61 
16pk_ligand_dft.xyz
 P   -0.783681   -2.258699   -1.128739
 O   -1.835983   -2.606317   -2.261621
 O   -0.311005   -0.861170   -1.045974
 P   -1.313785   -2.268018    1.735567
 O   -2.089754   -3.407098    2.548001
 O    0.085544   -2.012238    2.073284
 O   -1.598766   -2.749578    0.207374
 O   -2.272454   -1.012992    1.919937
 C   -3.674035   -1.024527    1.624961
 C   -4.019033    0.132955    0.712449
 O   -3.672349    1.372014    1.331394
 C   -3.269019    0.157132   -0.622099
 O   -3.778994   -0.731252   -1.589563
 C   -3.369429    1.626360   -1.004073
 O   -4.668070    1.811201   -1.527279
 C   -3.189138    2.280924    0.377730
 N   -1.773039    2.544401    0.618677
 C   -0.856184    1.787327    1.299017
 N    0.368763    2.229533    1.171038
 C    0.266290    3.334209    0.343126
 C    1.190660    4.225939   -0.236185
 N    2.541951    4.116649   -0.104177
 N    0.726198    5.197126   -1.035575
 C   -0.586159    5.270249   -1.277721
 N   -1.556432    4.480584   -0.821523
 C   -1.064314    3.540452   -0.010097
 C    0.567217   -3.549591   -1.336052
 F    0.603043   -4.294633   -0.194203
 F    0.194332   -4.382274   -2.343639
 C    1.932953   -2.964435   -1.633674
 C    2.556316   -2.185065   -0.473781
 C    3.869977   -1.537803   -0.916755
 C    4.499183   -0.597413    0.097799
 F    5.700096   -0.175294   -0.400845
 F    4.754538   -1.259816    1.261018
 P    3.531518    0.939082    0.507106
 O    2.920132    1.308438   -0.941830
 O    2.352289    0.328193    1.364690
 O    4.269471    2.079855    1.108341
 H   -2.590921   -1.970404   -2.228297
 H   -1.513383   -4.160312    2.739409
 H   -3.966622   -1.956755    1.131478
 H   -4.203983   -0.939444    2.575880
 H   -5.102307    0.101345    0.528854
 H   -2.217102   -0.083083   -0.464780
 H   -4.499137   -0.267458   -2.045662
 H   -2.597096    1.944423   -1.710343
 H   -4.714810    2.679604   -1.944739
 H   -3.721226    3.232895    0.454888
 H   -1.149074    0.915262    1.864857
 H    3.063776    4.912490   -0.446388
 H    2.965784    3.620855    0.680316
 H   -0.894532    6.075956   -1.939042
 H    1.828737   -2.317566   -2.512389
 H    2.565274   -3.811594   -1.926517
 H    2.733353   -2.848772    0.376392
 H    1.860225   -1.417601   -0.132196
 H    4.630130   -2.300745   -1.125730
 H    3.719759   -0.961409   -1.834861
 H    2.931304    2.278247   -1.055588
 H    1.608693    0.985967    1.443478
