16 
185l_ligand_xtb.xyz
 N   -1.558093    1.070963    0.000113
 C   -2.364054   -0.034602    0.000465
 C   -1.603993   -1.162515   -0.000321
 C    0.978914   -1.420692    0.000182
 C    2.139255   -0.680450    0.000137
 C    2.112127    0.717294   -0.000011
 C    0.921237    1.410694   -0.000103
 C   -0.253338    0.669456   -0.000550
 C   -0.242328   -0.746973   -0.000618
 H   -3.432526    0.069616    0.002020
 H   -1.959881   -2.173467   -0.000825
 H    1.007234   -2.500416    0.001564
 H    3.095532   -1.183091    0.000351
 H    3.045318    1.261288    0.000691
 H    0.899766    2.491078    0.000741
 H   -1.875723    2.024980   -0.000417
