18 
187l_ligand_xtb.xyz
 C   -1.403854    0.006827    0.000010
 C   -0.690254   -1.186983   -0.000024
 C    0.690206   -1.186857   -0.000051
 C    1.403870    0.006943   -0.000095
 C    0.692360    1.197028   -0.000079
 C   -0.692309    1.196870   -0.000001
 C   -2.903015   -0.008860    0.000098
 C    2.903002   -0.008979    0.000071
 H   -1.227102   -2.125466   -0.000394
 H    1.227102   -2.125221   -0.000221
 H    1.224489    2.138328   -0.000293
 H   -1.224521    2.138030   -0.000298
 H   -3.277166   -0.533587   -0.878386
 H   -3.277142   -0.528664    0.881548
 H   -3.303679    1.001667   -0.002642
 H    3.277064   -0.521089    0.886104
 H    3.277237   -0.541434   -0.873704
 H    3.303680    1.001511   -0.011292
