75 
1a07_ligand_xtb.xyz
 C    4.503273    1.892392    0.355652
 O    4.072136    3.034757    0.314651
 C    5.723655    1.506679    1.155272
 N    3.955941    0.877677   -0.340691
 C    2.693243    1.011816   -1.029578
 C    1.553723    0.679551   -0.052903
 O    1.755021    0.183734    1.037280
 C    2.646813    0.100030   -2.269575
 C    2.540647   -1.347676   -1.875979
 C    1.294265   -1.946376   -1.732006
 C    3.680279   -2.100098   -1.619769
 C    1.193561   -3.265609   -1.328387
 C    3.579451   -3.419722   -1.214251
 C    2.334547   -4.004663   -1.063169
 N    0.343262    1.022939   -0.515393
 C   -0.870007    0.905490    0.254057
 C   -1.794560   -0.078152   -0.479449
 O   -1.680524   -0.209933   -1.687536
 C   -1.557688    2.277600    0.342118
 C   -0.713107    3.289371    1.119908
 C    0.621718    3.551679    0.438489
 O    1.621826    3.483267    1.293905
 O    0.745423    3.795234   -0.736895
 N   -2.738320   -0.732563    0.222973
 C   -3.644266   -1.583507   -0.538428
 C   -4.687676   -0.765491   -1.303098
 C   -5.578169    0.070134   -0.387673
 C   -6.612452    0.867287   -1.179013
 C   -7.485786    1.723206   -0.269841
 C   -2.847594   -0.784977    1.665332
 C   -2.199274   -2.044552    2.258062
 C   -0.685899   -2.096114    2.065688
 C   -0.085127   -3.384129    2.623583
 C    1.433620   -3.377672    2.509751
 H    5.406857    0.927933    2.021002
 H    6.230583    2.404061    1.497578
 H    6.403992    0.903791    0.559263
 H    4.219659   -0.068821   -0.107697
 H    2.598167    2.061733   -1.331392
 H    1.785722    0.378576   -2.878029
 H    3.552733    0.271968   -2.854605
 H    0.398688   -1.382078   -1.946676
 H    4.657830   -1.657595   -1.758758
 H    0.219333   -3.720361   -1.221859
 H    4.474401   -3.992411   -1.018469
 H    2.254271   -5.034018   -0.746034
 H    0.240090    1.405221   -1.443467
 H   -0.566215    0.544657    1.237773
 H   -1.714691    2.648660   -0.673132
 H   -2.532084    2.169826    0.822173
 H   -0.513603    2.938846    2.132636
 H   -1.250767    4.238223    1.173632
 H    2.513022    3.542852    0.859589
 H   -4.135072   -2.269550    0.152242
 H   -3.054937   -2.159368   -1.257953
 H   -4.167043   -0.112130   -2.003701
 H   -5.304071   -1.455616   -1.882359
 H   -4.959759    0.764850    0.185525
 H   -6.094543   -0.584631    0.319858
 H   -6.096690    1.508771   -1.896517
 H   -7.243044    0.178278   -1.745136
 H   -8.213379    2.281791   -0.853509
 H   -8.023316    1.100202    0.442051
 H   -6.877214    2.432250    0.287554
 H   -2.396785    0.101938    2.108131
 H   -3.911981   -0.777936    1.919506
 H   -2.431060   -2.072062    3.324964
 H   -2.646951   -2.929835    1.800700
 H   -0.442345   -2.022870    1.003735
 H   -0.216594   -1.249642    2.570204
 H   -0.371660   -3.491633    3.672976
 H   -0.490321   -4.241795    2.080857
 H    1.735499   -3.286247    1.469216
 H    1.854249   -4.294808    2.916302
 H    1.848650   -2.532847    3.053595
