83 
1a08_ligand_xtb.xyz
 C    1.679559   -2.701575    2.305404
 O    1.344644   -1.988077    3.238024
 C    2.403529   -4.011855    2.496439
 N    1.464749   -2.377179    1.017390
 C    0.717102   -1.209431    0.613729
 C   -0.774953   -1.564185    0.502811
 O   -1.170123   -2.712522    0.478168
 C    1.260237   -0.663503   -0.714914
 C    2.712932   -0.312474   -0.561604
 C    3.703717   -1.117866   -1.108120
 C    3.082709    0.804701    0.178749
 C    5.040685   -0.815137   -0.929365
 C    4.415919    1.115955    0.366101
 C    5.395909    0.300502   -0.183823
 C    6.840238    0.644349   -0.059021
 F    7.100225    1.528604    0.928252
 F    7.617267   -0.449049    0.221018
 P    7.490830    1.281523   -1.685536
 O    7.380340    0.370425   -2.823540
 O    8.982280    1.761488   -1.375952
 O    6.687626    2.643294   -1.807524
 N   -1.577298   -0.491017    0.439110
 C   -3.015394   -0.568609    0.534581
 C   -3.569421    0.672022   -0.172808
 O   -2.881072    1.676927   -0.245630
 C   -3.457405   -0.570684    2.017523
 C   -2.750143    0.517819    2.832122
 C   -1.282202    0.184575    3.035253
 O   -1.108018   -0.987014    3.613662
 O   -0.375946    0.908177    2.695182
 N   -4.824038    0.618619   -0.657318
 C   -5.367013    1.820416   -1.270577
 C   -6.201663    2.627449   -0.275147
 C   -6.772229    3.885655   -0.924071
 C   -7.696444    4.673683    0.004776
 C   -6.968657    5.285790    1.195803
 C   -5.653028   -0.567364   -0.711648
 C   -5.393906   -1.393191   -1.977061
 C   -6.290940   -2.626720   -2.032794
 C   -6.039571   -3.458187   -3.288635
 C   -6.940771   -4.685348   -3.342517
 H    3.297283   -4.046637    1.878228
 H    2.677805   -4.123373    3.541196
 H    1.744867   -4.830626    2.213256
 H    1.618925   -3.078349    0.309510
 H    0.841251   -0.457044    1.401194
 H    0.685681    0.221920   -0.990528
 H    1.129923   -1.417564   -1.494341
 H    3.430967   -1.986058   -1.690122
 H    2.321661    1.433789    0.615199
 H    5.809037   -1.437746   -1.359894
 H    4.700239    1.983916    0.940109
 H    9.618959    1.063932   -1.537074
 H    6.638173    2.937345   -2.718971
 H   -1.212268    0.453910    0.461942
 H   -3.326060   -1.500320    0.056768
 H   -4.536914   -0.420298    2.074956
 H   -3.215956   -1.544171    2.447739
 H   -3.215989    0.582166    3.816782
 H   -2.822008    1.486620    2.336404
 H   -0.150003   -1.255777    3.630179
 H   -5.971668    1.533971   -2.134068
 H   -4.525223    2.426686   -1.612010
 H   -5.561380    2.896913    0.564802
 H   -7.020032    2.010387    0.104966
 H   -7.334373    3.598140   -1.816641
 H   -5.949475    4.528045   -1.243818
 H   -8.164189    5.474854   -0.572055
 H   -8.493431    4.017858    0.363350
 H   -6.573840    4.515328    1.852522
 H   -6.142219    5.906490    0.857423
 H   -7.649197    5.906368    1.774200
 H   -6.696539   -0.242403   -0.699516
 H   -5.492351   -1.186597    0.171640
 H   -5.572256   -0.771226   -2.856730
 H   -4.346813   -1.701431   -2.001558
 H   -7.338111   -2.315533   -2.009907
 H   -6.109830   -3.245106   -1.150791
 H   -4.994484   -3.774046   -3.306631
 H   -6.214414   -2.840028   -4.172122
 H   -6.766230   -5.324443   -2.479985
 H   -6.745874   -5.263083   -4.242573
 H   -7.988017   -4.390894   -3.343932
