83 
1a08_ligand_dft.xyz
 C    1.676980   -2.915543    2.136475
 O    1.539312   -2.095335    3.043025
 C    2.261898   -4.283132    2.403889
 N    1.334891   -2.666744    0.849109
 C    0.650926   -1.463158    0.447971
 C   -0.862842   -1.714384    0.363029
 O   -1.343941   -2.834652    0.440232
 C    1.236629   -0.902514   -0.860429
 C    2.698936   -0.560567   -0.703934
 C    3.677212   -1.225757   -1.441632
 C    3.096326    0.415905    0.214025
 C    5.024697   -0.931493   -1.271924
 C    4.440139    0.713155    0.394924
 C    5.409078    0.031122   -0.341383
 C    6.861718    0.382498   -0.191048
 F    7.107122    0.924436    1.032159
 F    7.647601   -0.732811   -0.308647
 P    7.446369    1.566987   -1.498631
 O    7.305304    1.021479   -2.862293
 O    8.918086    1.997824   -1.027878
 O    6.638543    2.910428   -1.157948
 N   -1.601306   -0.587351    0.213473
 C   -3.027318   -0.573513    0.450396
 C   -3.573110    0.693403   -0.214366
 O   -2.844657    1.676960   -0.319396
 C   -3.346151   -0.563357    1.967601
 C   -2.587075    0.519730    2.755101
 C   -1.103270    0.228592    2.876384
 O   -0.877258   -0.946646    3.456301
 O   -0.222465    0.960750    2.468402
 N   -4.870434    0.703997   -0.613068
 C   -5.394302    1.939157   -1.190055
 C   -5.947781    2.888719   -0.129380
 C   -6.507084    4.171302   -0.745290
 C   -7.132813    5.131182    0.271709
 C   -6.145691    5.665810    1.309620
 C   -5.760062   -0.450497   -0.573786
 C   -5.709752   -1.290364   -1.850219
 C   -6.640417   -2.500462   -1.792290
 C   -6.608046   -3.337000   -3.071860
 C   -7.519027   -4.561054   -3.005407
 H    2.688805   -4.745438    1.510055
 H    3.032559   -4.189202    3.170525
 H    1.472369   -4.933245    2.794775
 H    1.279533   -3.453944    0.219253
 H    0.821652   -0.729241    1.240584
 H    0.669778   -0.009510   -1.146443
 H    1.098225   -1.632498   -1.667576
 H    3.383348   -1.984055   -2.162711
 H    2.349857    0.940367    0.806243
 H    5.776741   -1.445653   -1.860316
 H    4.738842    1.466758    1.115042
 H    9.588174    1.450978   -1.460069
 H    5.924299    3.044747   -1.795591
 H   -1.164262    0.327166    0.241246
 H   -3.440275   -1.482161    0.008645
 H   -4.422554   -0.412115    2.107820
 H   -3.096788   -1.547995    2.372516
 H   -3.001777    0.562241    3.768218
 H   -2.697761    1.503598    2.293872
 H    0.083255   -1.180110    3.393502
 H   -6.175221    1.668114   -1.909861
 H   -4.586664    2.427292   -1.740494
 H   -5.136783    3.120690    0.569349
 H   -6.734711    2.379062    0.444903
 H   -7.262654    3.907850   -1.498212
 H   -5.701628    4.690579   -1.283489
 H   -7.574816    5.975773   -0.270845
 H   -7.964077    4.625821    0.782040
 H   -5.767341    4.869979    1.959477
 H   -5.282939    6.136571    0.824140
 H   -6.620013    6.415408    1.951179
 H   -6.776190   -0.072813   -0.411335
 H   -5.532449   -1.072725    0.295711
 H   -5.971816   -0.657124   -2.708187
 H   -4.676937   -1.623588   -2.016305
 H   -7.670409   -2.165255   -1.603854
 H   -6.361460   -3.133886   -0.938157
 H   -5.575902   -3.656737   -3.265795
 H   -6.899690   -2.705884   -3.921830
 H   -7.220250   -5.229447   -2.189956
 H   -7.483400   -5.133488   -3.937737
 H   -8.560962   -4.268776   -2.831340
