45 
1a0q_ligand_dft.xyz
 C    0.906772    0.867677    0.428824
 C    0.968565    2.173951   -0.366613
 C    2.120483    3.082253    0.065640
 C    2.155077    4.394893   -0.717792
 C    3.299747    5.307770   -0.282584
 C   -3.578065   -0.324722   -0.958753
 C   -4.936983   -0.626050   -0.964279
 C   -5.789854   -0.080430   -0.009120
 C   -5.278943    0.772918    0.965632
 C   -3.921747    1.075677    0.992343
 C   -3.088089    0.521060    0.030192
 C    2.450543   -0.977878    0.992252
 C    3.152984   -3.239045    0.192072
 C    3.627167   -1.810872    0.522317
 C    1.885393   -3.250614   -0.646180
 O   -0.393266   -0.809698   -1.377986
 O   -0.793396   -1.147618    1.192963
 O   -1.746304    0.891441    0.071586
 O    1.803922   -1.292258    1.994550
 O    0.967493   -4.012062   -0.478967
 O    1.891452   -2.271260   -1.568958
 N    2.123190    0.089514    0.223557
 P   -0.540076   -0.172816   -0.040546
 H    0.825181    1.082289    1.499525
 H    0.015453    2.696125   -0.236681
 H    1.048734    1.940514   -1.437404
 H    2.024090    3.298287    1.138599
 H    3.078183    2.560009   -0.055897
 H    2.246281    4.175713   -1.789824
 H    1.197673    4.916732   -0.590983
 H    4.270303    4.821377   -0.433201
 H    3.216199    5.561232    0.780318
 H    3.301644    6.243008   -0.851141
 H   -2.904289   -0.737882   -1.701297
 H   -5.327722   -1.292565   -1.726952
 H   -6.848922   -0.317735   -0.024329
 H   -5.937301    1.201738    1.714983
 H   -3.500680    1.731381    1.746850
 H    3.947055   -3.772506   -0.341679
 H    2.930009   -3.792361    1.105511
 H    4.359508   -1.850427    1.334132
 H    4.108223   -1.355246   -0.346657
 H    0.052300   -1.371273    1.650995
 H    0.960089   -2.058765   -1.805663
 H    2.499274    0.098094   -0.715118
