81 
1a1b_ligand_dft.xyz
 C   -6.038693    1.233097   -0.513431
 O   -6.364208    0.069037   -0.322896
 C   -7.059598    2.338457   -0.697484
 N   -4.736939    1.618400   -0.563446
 C   -3.668122    0.681329   -0.319282
 C   -2.449777    1.504306    0.115399
 O   -2.396853    2.715161   -0.075443
 C   -3.412370   -0.195320   -1.569733
 C   -2.394937   -1.295359   -1.382593
 C   -2.522426   -2.224583   -0.343248
 C   -1.304191   -1.411101   -2.245274
 C   -1.563390   -3.210389   -0.138181
 C   -0.357760   -2.414474   -2.077432
 C   -0.484603   -3.289901   -1.009797
 O    0.495625   -4.260359   -0.821784
 P    1.588524   -3.975621    0.331180
 O    1.069169   -4.124686    1.714379
 O    2.266013   -2.604336   -0.041484
 O    2.697200   -5.050815   -0.054469
 N   -1.482340    0.810353    0.759147
 C   -0.270274    1.439719    1.227359
 C    0.929354    0.734232    0.586640
 O    0.789650   -0.455307    0.268915
 C   -0.177568    1.424849    2.776889
 C   -0.599167    0.113640    3.440088
 C    0.330073   -1.040541    3.112130
 O   -0.340807   -2.158598    2.864975
 O    1.538043   -0.935032    3.087999
 N    2.071139    1.428715    0.430957
 C    3.299947    0.757072   -0.000286
 C    3.848519    1.252533   -1.339868
 C    2.898565    1.098584   -2.531746
 C    2.387824   -0.324545   -2.778915
 C    3.487158   -1.369333   -2.962135
 C    2.177434    2.858022    0.739105
 C    1.670797    3.787154   -0.368313
 C    1.621024    5.252193    0.077899
 C    2.955620    5.826208    0.572251
 C    4.091368    5.710745   -0.444455
 H   -6.620759    3.284807   -1.025293
 H   -7.579277    2.498340    0.251884
 H   -7.801536    2.010805   -1.429056
 H   -4.457723    2.587311   -0.642764
 H   -3.966717    0.026461    0.507010
 H   -4.385185   -0.628224   -1.825469
 H   -3.115611    0.460162   -2.395739
 H   -3.380835   -2.179988    0.322453
 H   -1.185485   -0.700479   -3.058790
 H   -1.641170   -3.909933    0.686339
 H    0.492501   -2.508100   -2.743769
 H    1.718616   -1.791222    0.152518
 H    2.894352   -5.604600    0.712406
 H   -1.480418   -0.202537    0.715273
 H   -0.330822    2.477192    0.900291
 H    0.846610    1.657938    3.084879
 H   -0.828311    2.223528    3.146918
 H   -1.627010   -0.148506    3.179582
 H   -0.568999    0.252231    4.527188
 H    0.284767   -2.874281    2.579561
 H    4.049937    0.908817    0.784962
 H    3.102585   -0.310924   -0.043284
 H    4.775868    0.697715   -1.526159
 H    4.147686    2.305235   -1.249937
 H    2.032300    1.757235   -2.392685
 H    3.420314    1.460537   -3.427436
 H    1.751673   -0.304695   -3.673888
 H    1.735973   -0.622743   -1.952229
 H    4.180682   -1.081369   -3.761455
 H    4.064767   -1.512676   -2.043448
 H    3.060359   -2.344242   -3.218742
 H    1.658974    3.078548    1.676964
 H    3.236138    3.051238    0.934460
 H    2.311014    3.683783   -1.250358
 H    0.666921    3.476756   -0.681449
 H    1.263845    5.854856   -0.766279
 H    0.868600    5.358631    0.870869
 H    2.802540    6.882318    0.823399
 H    3.251399    5.336557    1.509222
 H    3.811637    6.168579   -1.400235
 H    4.354562    4.665294   -0.643820
 H    4.994852    6.211601   -0.083266
