81 
1a1b_ligand_xtb.xyz
 C   -6.085840    1.254823   -0.548554
 O   -6.424831    0.106971   -0.348605
 C   -7.053337    2.401159   -0.750789
 N   -4.788469    1.623065   -0.620155
 C   -3.701402    0.698760   -0.408660
 C   -2.477872    1.526395   -0.019016
 O   -2.454105    2.735978   -0.167292
 C   -3.459382   -0.143430   -1.682233
 C   -2.422113   -1.209971   -1.492553
 C   -2.618232   -2.224253   -0.559085
 C   -1.250351   -1.207838   -2.237935
 C   -1.653377   -3.191303   -0.347099
 C   -0.285578   -2.179061   -2.044937
 C   -0.481763   -3.161296   -1.087476
 O    0.503450   -4.114987   -0.888203
 P    1.367901   -3.962124    0.457872
 O    0.568211   -4.038935    1.696740
 O    2.255440   -2.685466    0.278636
 O    2.402293   -5.134958    0.288631
 N   -1.470838    0.830979    0.530631
 C   -0.279505    1.482431    1.021933
 C    0.954835    0.709321    0.551055
 O    0.824419   -0.472908    0.226703
 C   -0.295150    1.559658    2.571187
 C   -0.851839    0.299442    3.232379
 C   -0.017712   -0.929614    2.897715
 O   -0.776560   -1.940015    2.531223
 O    1.185541   -0.953233    2.970829
 N    2.125743    1.355601    0.543414
 C    3.371009    0.622953    0.355878
 C    4.163663    1.031634   -0.886297
 C    3.435750    0.779794   -2.206793
 C    3.178612   -0.693611   -2.523917
 C    4.446475   -1.533506   -2.620078
 C    2.256830    2.784637    0.778243
 C    1.920068    3.629656   -0.459337
 C    1.656816    5.094065   -0.105685
 C    2.839691    5.816586    0.541253
 C    4.069413    5.881689   -0.357125
 H   -6.895186    2.853393   -1.727091
 H   -6.896981    3.158479    0.013866
 H   -8.071161    2.028378   -0.686900
 H   -4.506388    2.587495   -0.739601
 H   -3.969275    0.023634    0.412825
 H   -4.418777   -0.604487   -1.929654
 H   -3.175466    0.524363   -2.497708
 H   -3.536329   -2.258691    0.007883
 H   -1.084989   -0.435313   -2.974583
 H   -1.794252   -3.964565    0.390430
 H    0.624042   -2.182163   -2.622917
 H    1.734769   -1.850949    0.349889
 H    2.259145   -5.782641    0.976560
 H   -1.467290   -0.180340    0.531632
 H   -0.301110    2.494689    0.611238
 H    0.719833    1.711820    2.939370
 H   -0.911163    2.410697    2.867117
 H   -1.885325    0.117427    2.940907
 H   -0.816519    0.431693    4.316159
 H   -0.243587   -2.755547    2.297023
 H    3.987720    0.792255    1.245848
 H    3.137100   -0.437844    0.312590
 H    5.098842    0.471539   -0.874386
 H    4.424818    2.090255   -0.823935
 H    2.475077    1.299550   -2.190702
 H    4.034226    1.214637   -3.011945
 H    2.652768   -0.737287   -3.481561
 H    2.523308   -1.119891   -1.765854
 H    5.159008   -1.080410   -3.307200
 H    4.917849   -1.644070   -1.647526
 H    4.204363   -2.529333   -2.982855
 H    1.616596    3.095790    1.604925
 H    3.289657    2.966370    1.078390
 H    2.728463    3.568767   -1.186461
 H    1.025287    3.226868   -0.937842
 H    1.382711    5.622121   -1.021338
 H    0.800286    5.147097    0.570589
 H    2.523489    6.835207    0.776049
 H    3.100726    5.332824    1.484089
 H    3.811785    6.309896   -1.323197
 H    4.493638    4.894301   -0.520162
 H    4.835598    6.504042    0.098977
