44 
1a4r_ligand_xtb.xyz
 N    4.650338   -0.057349    0.316724
 P    3.196228   -0.142059   -0.460809
 O    3.193729   -1.531160   -1.187659
 O    2.814372    1.049692   -1.218305
 O    2.135212   -0.420075    0.762907
 P    1.504820    0.832544    1.525878
 O    2.441075    1.794541    2.090051
 O    0.578189    0.077255    2.577099
 O    0.392983    1.397837    0.549058
 C    0.525306    2.681521   -0.056413
 C   -0.825188    3.059708   -0.672707
 O   -1.151828    2.212239   -1.767630
 C   -2.005977    2.909502    0.303319
 O   -3.049972    3.765181   -0.063563
 C   -2.379464    1.429267    0.121516
 O   -3.750675    1.206467    0.292843
 C   -1.898110    1.126563   -1.324807
 N   -1.122690   -0.098110   -1.338939
 C    0.093527   -0.323369   -1.908675
 N    0.560635   -1.510410   -1.652497
 C   -0.381392   -2.115417   -0.862707
 C   -0.402030   -3.406837   -0.244839
 O    0.395632   -4.312799   -0.262037
 N   -1.607533   -3.560752    0.489011
 C   -2.602904   -2.641047    0.613491
 N   -3.655665   -2.962461    1.403954
 N   -2.575662   -1.465315    0.046029
 C   -1.441039   -1.233425   -0.662613
 H    5.236792    0.686050   -0.022182
 H    5.134807   -0.933792    0.416835
 H    2.284091   -1.757587   -1.504976
 H    0.991735    0.112539    3.438709
 H    0.833802    3.409707    0.697160
 H    1.287200    2.624822   -0.838607
 H   -0.774032    4.076456   -1.069514
 H   -1.693704    3.113835    1.336238
 H   -3.877001    3.278053    0.059821
 H   -1.798809    0.827397    0.826918
 H   -3.861895    0.243182    0.268898
 H   -2.761845    0.997114   -1.997817
 H    0.593805    0.416743   -2.498510
 H   -1.684933   -4.442572    0.981912
 H   -4.445876   -2.342340    1.394233
 H   -3.811924   -3.918344    1.669390
