44 
1a4r_ligand_dft.xyz
 N    4.554584   -1.729188   -0.128559
 P    3.034146   -1.286840   -0.578011
 O    2.385705   -2.655845   -0.994343
 O    2.974736   -0.111782   -1.473169
 O    2.162051   -0.963099    0.809906
 P    2.131632    0.503613    1.471971
 O    3.458767    1.100821    1.696195
 O    1.210735    0.239792    2.756779
 O    1.090037    1.347968    0.616472
 C    1.515194    2.451761   -0.201940
 C    0.278716    3.086895   -0.810025
 O   -0.326188    2.210276   -1.771441
 C   -0.842654    3.433938    0.173234
 O   -1.598418    4.486591   -0.371696
 C   -1.668910    2.144786    0.197885
 O   -3.014461    2.428634    0.475547
 C   -1.449311    1.592438   -1.231639
 N   -1.229638    0.143411   -1.199214
 C   -0.129850   -0.536006   -1.637113
 N   -0.175256   -1.811443   -1.332598
 C   -1.365824   -1.976153   -0.661851
 C   -1.943898   -3.139264   -0.048426
 O   -1.545744   -4.280648    0.027277
 N   -3.191651   -2.784432    0.558032
 C   -3.759496   -1.542503    0.593388
 N   -4.928609   -1.416555    1.291727
 N   -3.219564   -0.487076    0.036257
 C   -2.027629   -0.766124   -0.567911
 H    5.152403   -0.959015    0.143908
 H    4.643480   -2.541737    0.466808
 H    1.400135   -2.555402   -1.168405
 H    1.693410   -0.246614    3.438264
 H    2.053106    3.177497    0.415578
 H    2.173919    2.074093   -0.987674
 H    0.587505    3.986429   -1.349923
 H   -0.453135    3.687731    1.168435
 H   -2.512399    4.338240   -0.086152
 H   -1.245875    1.447859    0.927379
 H   -3.466550    1.566437    0.454101
 H   -2.324501    1.793514   -1.858564
 H    0.693946   -0.038995   -2.127953
 H   -3.623172   -3.548936    1.061981
 H   -5.405567   -0.538103    1.150895
 H   -5.538229   -2.217898    1.356599
