44 
1a52_ligand_xtb.xyz
 C    2.641962   -1.479829   -0.413619
 C    3.998826   -1.439668   -0.156369
 C    4.596099   -0.240280    0.203183
 O    5.928754   -0.138228    0.473078
 C    3.812723    0.900738    0.283086
 C    2.450548    0.860400    0.023187
 C    1.682227    2.148911    0.142760
 C    0.297878    2.066156   -0.485730
 C   -0.380744    0.785258   -0.012815
 C    0.356876   -0.417262   -0.625970
 C    1.839052   -0.348887   -0.316858
 C   -0.290151   -1.741332   -0.190556
 C   -1.796437   -1.785052   -0.469816
 C   -2.505941   -0.575885    0.133175
 C   -1.843564    0.694541   -0.421159
 C   -2.807067    1.813974   -0.019711
 C   -4.197112    1.152534   -0.099909
 C   -3.952407   -0.356058   -0.350361
 O   -4.864052   -1.196417    0.315719
 C   -2.511683   -0.671385    1.659784
 H    2.211032   -2.425649   -0.700807
 H    4.593937   -2.340067   -0.237440
 H    6.344173   -1.002991    0.373391
 H    4.286463    1.832687    0.551551
 H    2.259840    2.956499   -0.312982
 H    1.579815    2.388270    1.206611
 H   -0.288722    2.940138   -0.198679
 H    0.379498    2.057797   -1.574965
 H   -0.301358    0.741584    1.076841
 H    0.248276   -0.343990   -1.718427
 H   -0.097480   -1.900962    0.871142
 H    0.165623   -2.570437   -0.732835
 H   -1.956633   -1.790598   -1.551532
 H   -2.216760   -2.707617   -0.066253
 H   -1.874075    0.620445   -1.516263
 H   -2.733395    2.669909   -0.689435
 H   -2.593222    2.161251    0.990906
 H   -4.800419    1.585285   -0.898508
 H   -4.745715    1.270201    0.835168
 H   -3.996512   -0.558616   -1.433630
 H   -5.751787   -0.990513    0.006558
 H   -2.923301    0.225604    2.110358
 H   -3.138515   -1.511166    1.948307
 H   -1.514887   -0.831160    2.056739
