52 
1a86_ligand_xtb.xyz
 N   -4.351326    1.895732   -0.351339
 O   -4.999524    3.105070   -0.076722
 C   -4.081001    1.099197    0.696263
 O   -4.518041    1.330750    1.812351
 C   -3.256755   -0.128682    0.345177
 C   -4.022749   -1.054439   -0.618546
 C   -5.435817   -1.413308   -0.144668
 C   -5.417512   -2.116043    1.210278
 C   -6.104448   -2.296801   -1.196006
 C   -1.965138    0.286217   -0.345186
 O   -1.938717    1.086117   -1.267675
 N   -0.861518   -0.322256    0.108530
 C    0.448843   -0.108488   -0.456335
 C    1.357391   -1.208129    0.113932
 O    1.076061   -1.755839    1.163506
 C    0.986440    1.275317   -0.041265
 C    2.308962    1.630437   -0.665127
 O    2.903087    2.630256   -0.019609
 O    2.795784    1.103267   -1.633608
 N    2.428153   -1.490771   -0.637946
 C    3.571548   -2.217125   -0.111563
 C    4.675513   -1.231241    0.172776
 C    5.805252   -1.163161   -0.628939
 C    6.764889   -0.190631   -0.404577
 C    4.515615   -0.308483    1.200170
 C    5.469258    0.668204    1.419799
 C    6.595636    0.729636    0.615175
 H   -3.722404    1.939733   -1.149338
 H   -5.211671    3.036342    0.877031
 H   -3.039563   -0.654387    1.277129
 H   -3.442615   -1.972538   -0.745478
 H   -4.089234   -0.561956   -1.591019
 H   -6.016184   -0.490252   -0.047627
 H   -4.751878   -2.976959    1.187392
 H   -5.092985   -1.436756    1.993590
 H   -6.416383   -2.463215    1.463296
 H   -7.123953   -2.532093   -0.901177
 H   -5.557199   -3.230181   -1.311928
 H   -6.134618   -1.793340   -2.159555
 H   -0.865557   -0.950429    0.904829
 H    0.394407   -0.156463   -1.549370
 H    1.073921    1.346083    1.044357
 H    0.260330    2.026453   -0.368349
 H    3.748424    2.860905   -0.437742
 H    2.617265   -0.896688   -1.436585
 H    3.890408   -2.963509   -0.843222
 H    3.240223   -2.717656    0.801648
 H    5.935388   -1.873654   -1.432267
 H    7.642165   -0.146805   -1.032681
 H    3.636397   -0.360286    1.826279
 H    5.332891    1.383647    2.217435
 H    7.340496    1.493249    0.784543
