29 
1a8i_ligand_dft.xyz
 C    0.848754   -0.162346   -0.304666
 C    0.352736    1.258739   -0.600020
 O    1.353533    2.162760   -0.210732
 C   -0.962943    1.525991    0.107862
 O   -1.361768    2.828008   -0.272960
 C   -1.989706    0.476040   -0.278391
 O   -3.155708    0.770271    0.453508
 C   -1.423855   -0.915992    0.037485
 C   -2.287194   -2.040906   -0.517699
 O   -3.590082   -1.899752    0.030445
 O   -0.159406   -1.107473   -0.596987
 N    2.015966   -0.498271   -1.064666
 C    3.140831   -0.682531   -0.297101
 O    4.275742   -0.851850   -0.664493
 N    2.697883   -0.647976    1.035197
 C    1.374375   -0.324004    1.150099
 O    0.730224   -0.223596    2.168297
 H    0.171868    1.316420   -1.687577
 H    0.925041    3.028650   -0.152797
 H   -0.806130    1.471359    1.193828
 H   -2.223054    2.981058    0.138349
 H   -2.173797    0.545837   -1.364926
 H   -3.748613    0.008143    0.357283
 H   -1.331696   -1.017564    1.124929
 H   -2.303573   -1.959889   -1.613977
 H   -1.841356   -3.006276   -0.247457
 H   -4.167847   -2.557908   -0.369986
 H    2.124807   -0.225532   -2.029463
 H    3.319136   -0.797468    1.816040
