17 
1ado_ligand_dft.xyz
 P   -1.606348    0.121763   -0.196048
 O   -1.821398   -1.422213    0.165244
 O   -2.967002    0.754757    0.344367
 O   -1.243036    0.494141   -1.569810
 O   -0.506064    0.604904    0.897494
 C    0.817913    0.819630    0.462702
 C    1.527136   -0.480546    0.137618
 O    0.968437   -1.560213    0.149656
 C    2.984401   -0.390804   -0.266888
 O    3.482303    0.886790    0.047646
 H   -0.936200   -1.834561    0.227949
 H   -3.330825    0.251265    1.084483
 H    1.352471    1.331096    1.267199
 H    0.853218    1.464180   -0.424069
 H    3.014709   -0.599136   -1.347538
 H    3.526193   -1.199967    0.242652
 H    4.333020    1.005681   -0.387328
