47 
1afk_ligand_dft.xyz
 P   -3.173721   -1.239572   -0.861233
 O   -3.900548   -0.150465   -0.164308
 O   -2.786818   -1.020835   -2.361845
 O   -3.876588   -2.655612   -0.867295
 P   -1.608840   -2.102017    1.351318
 O   -0.308965   -3.030353    1.273326
 O   -2.868672   -2.765127    1.739180
 O   -1.710149   -1.510593   -0.155125
 O   -1.137061   -0.908391    2.258625
 C    0.229166   -0.451947    2.335267
 C    0.321945    1.030441    1.996456
 O    1.697187    1.359644    2.191194
 C   -0.018620    1.402008    0.546776
 O   -1.314413    2.005800    0.514960
 P   -2.041733    2.295657   -0.871092
 O   -1.682153    1.378259   -1.986704
 O   -3.555668    2.431458   -0.492501
 O   -1.575520    3.811064   -1.166862
 C    1.102220    2.388878    0.152942
 O    0.818657    3.708268    0.535724
 C    2.264851    1.955776    1.053992
 N    3.239666    1.082799    0.421829
 C    4.606377    1.277044    0.436043
 N    5.289574    0.339173   -0.156186
 C    4.319183   -0.545987   -0.584292
 C    4.388833   -1.766339   -1.284838
 N    5.561536   -2.299399   -1.675189
 N    3.251602   -2.420829   -1.565672
 C    2.096448   -1.880653   -1.164451
 N    1.897002   -0.744349   -0.501574
 C    3.046776   -0.112815   -0.236282
 H   -2.368580   -0.121599   -2.449749
 H   -3.969371   -2.957007    0.061122
 H   -0.510676   -3.903258    0.909530
 H    0.556917   -0.614675    3.363337
 H    0.866645   -1.016332    1.654115
 H   -0.294406    1.628302    2.675598
 H    0.000496    0.530772   -0.108257
 H   -3.912483    1.519169   -0.302905
 H   -1.615796    4.015314   -2.111463
 H    1.353739    2.308540   -0.912558
 H    0.015572    3.996273    0.076501
 H    2.815194    2.848024    1.361985
 H    5.031386    2.153968    0.907793
 H    6.423648   -1.807092   -1.508402
 H    5.559130   -3.153737   -2.207905
 H    1.199943   -2.442823   -1.412715
