47 
1afl_ligand_dft.xyz
 P   -3.672228   -0.716523   -0.186485
 O   -3.150987   -1.675185   -1.179539
 O   -4.258453    0.651170   -0.696674
 O   -4.792030   -1.216756    0.819502
 P   -1.570860   -1.315974    1.593470
 O   -2.411156   -2.451275    2.026998
 O   -0.826059   -0.444176    2.695941
 O   -2.451148   -0.207076    0.814318
 O   -0.320927   -1.625671    0.672727
 C   -0.294399   -2.755960   -0.227031
 C    0.890738   -2.587320   -1.157628
 O    0.668858   -1.558370   -2.131113
 C    2.204884   -2.196588   -0.483563
 O    3.255182   -2.647158   -1.295941
 C    2.125187   -0.655552   -0.491896
 O    3.402963   -0.074718   -0.694983
 P    4.288428    0.485725    0.555558
 O    5.571433    1.014728    0.078560
 O    4.423985   -0.786747    1.535957
 O    3.276968    1.394750    1.346205
 C    1.246990   -0.357927   -1.723559
 N    0.158261    0.601822   -1.457427
 C   -1.078664    0.507936   -2.034743
 N   -1.886520    1.485477   -1.702012
 C   -1.136927    2.274105   -0.854606
 C   -1.448812    3.433508   -0.120049
 N   -2.659343    4.018902   -0.162907
 N   -0.496431    3.987212    0.646656
 C    0.695275    3.399236    0.695627
 N    1.099398    2.289489    0.072861
 C    0.138980    1.747730   -0.694599
 H   -3.565022    1.064746   -1.287332
 H   -4.439842   -1.971050    1.330083
 H   -1.417446   -0.178745    3.413420
 H   -1.224004   -2.790185   -0.799908
 H   -0.182834   -3.669016    0.364626
 H    1.020263   -3.518995   -1.713883
 H    2.290525   -2.582608    0.539614
 H    3.949434   -1.973270   -1.262976
 H    1.660902   -0.295491    0.426500
 H    5.348411   -1.065522    1.579438
 H    2.530883    1.751241    0.772352
 H    1.862078    0.042511   -2.533830
 H   -1.344224   -0.335419   -2.653292
 H   -3.442167    3.545546   -0.584258
 H   -2.838684    4.778909    0.474850
 H    1.435514    3.875508    1.332883
