21 
1ahx_ligand_xtb.xyz
 C   -2.275750   -0.360782    0.343901
 O   -3.331220   -0.814040    0.008213
 O   -1.372966   -1.117653    0.989517
 C   -1.857321    1.076432    0.089499
 C   -0.762881    1.163650   -0.991292
 C    0.538545    0.557850   -0.541212
 C    1.303606    1.190376    0.435068
 C    2.491828    0.632528    0.871457
 C    2.933032   -0.566525    0.336499
 C    2.182701   -1.201265   -0.638421
 C    0.992912   -0.643280   -1.073696
 H   -0.530157   -0.657680    1.119922
 H   -1.496989    1.517865    1.022219
 H   -2.738909    1.625346   -0.242748
 H   -0.606960    2.218642   -1.229103
 H   -1.116436    0.661829   -1.893619
 H    0.969971    2.133028    0.846665
 H    3.076878    1.137186    1.625981
 H    3.861454   -1.000741    0.675080
 H    2.524394   -2.132914   -1.063289
 H    0.410201   -1.142929   -1.833772
