20 
1ai4_ligand_dft.xyz
 C    2.898793   -0.132168   -0.212775
 C    1.957163    0.159812    0.962397
 C    0.495946    0.280290    0.607455
 C   -0.316863   -0.860923    0.570506
 C   -1.650482   -0.772267    0.195067
 O   -2.421965   -1.882688    0.170578
 C   -2.187478    0.475215   -0.154170
 O   -3.508374    0.453097   -0.506919
 C   -1.391491    1.609503   -0.122572
 C   -0.052844    1.511732    0.254110
 O    4.082713    0.065439   -0.149950
 O    2.342193   -0.660878   -1.315989
 H    2.331351    1.071573    1.434485
 H    2.112770   -0.650047    1.685261
 H    0.073709   -1.835369    0.851339
 H   -3.311698   -1.620813   -0.107095
 H   -3.810313    1.343125   -0.720676
 H   -1.813402    2.574520   -0.393621
 H    0.564588    2.404803    0.271310
 H    1.379998   -0.714733   -1.202874
