20 
1ai5_ligand_xtb.xyz
 C    2.988747   -0.281651   -0.285761
 C    1.998848   -0.482668    0.864676
 C    0.686010    0.179811    0.565259
 C   -0.453561   -0.577956    0.354109
 C   -1.650545    0.053887    0.042149
 N   -2.832269   -0.747013   -0.161606
 O   -3.863949   -0.170924   -0.430289
 O   -2.723328   -1.949732   -0.047136
 C   -1.728626    1.434922   -0.078522
 C   -0.586236    2.186066    0.126293
 C    0.609426    1.565428    0.449320
 O    4.012126   -1.149203   -0.298201
 O    2.899769    0.581194   -1.104750
 H    2.454876   -0.031424    1.751920
 H    1.854502   -1.549134    1.051265
 H   -0.438496   -1.655422    0.427664
 H   -2.673145    1.892072   -0.329643
 H   -0.625891    3.260008    0.033232
 H    1.497033    2.158669    0.602748
 H    3.975683   -1.803396    0.411926
