13 
1ai7_ligand_xtb.xyz
 C   -0.935190   -0.034162   -0.000068
 C   -0.268144    1.184773   -0.000026
 C    1.115055    1.216215   -0.000021
 C    1.840377    0.038294   -0.000021
 C    1.174304   -1.176777    0.000171
 C   -0.205975   -1.219272   -0.000185
 O   -2.294186   -0.114129    0.000046
 H   -0.835019    2.107163    0.000148
 H    1.625330    2.168058   -0.000185
 H    2.919403    0.066348   -0.000003
 H    1.734841   -2.099842    0.000494
 H   -0.740185   -2.156052   -0.000442
 H   -2.673444    0.772929    0.000519
