34 
1aj7_ligand_xtb.xyz
 C   -1.996462   -1.366457   -0.110522
 N   -3.368195   -1.199919    0.251477
 O   -3.993427   -0.345029   -0.362193
 O   -3.826537   -1.875788    1.139135
 C   -1.583829   -1.020086   -1.394286
 C   -0.239499   -1.008185   -1.688816
 C    0.689761   -1.298911   -0.687323
 C    0.264843   -1.727889    0.567122
 C   -1.082958   -1.772865    0.855111
 O    2.000822   -1.104127   -0.973995
 P    3.055081   -0.540314    0.147383
 O    4.124618    0.098948   -0.845547
 O    3.617580   -1.580222    1.009813
 C    2.232358    0.890591    0.938281
 C    1.473212    1.776460   -0.040037
 C    0.661457    2.861360    0.681405
 C   -0.647341    3.158168   -0.049190
 C   -1.627656    2.012765    0.097981
 O   -1.574649    1.175834    0.965344
 O   -2.564939    2.025874   -0.839155
 H   -2.316355   -0.744109   -2.137837
 H    0.116312   -0.723168   -2.666270
 H    1.007681   -1.991595    1.304353
 H   -1.439963   -2.055250    1.833043
 H    4.901422   -0.462453   -0.873568
 H    1.553260    0.493473    1.694716
 H    3.018906    1.443562    1.452841
 H    0.780354    1.155194   -0.608206
 H    2.172463    2.223473   -0.747823
 H    1.247850    3.775138    0.777767
 H    0.406623    2.513984    1.684198
 H   -0.487975    3.349432   -1.110632
 H   -1.127777    4.041681    0.378411
 H   -3.212728    1.291161   -0.717650
