15 
1ajq_ligand_dft.xyz
 S    1.166076   -1.094262    0.428731
 C    0.352978    0.429491    0.306655
 C    1.191797    1.389882   -0.180890
 C    2.502675    0.902526   -0.457503
 C    2.634441   -0.422960   -0.170989
 C   -1.077533    0.597443    0.707754
 C   -2.084566   -0.075939   -0.228655
 O   -1.805699   -0.752990   -1.175990
 O   -3.378671    0.142743    0.101776
 H    0.882264    2.417704   -0.337846
 H    3.306329    1.512969   -0.851532
 H    3.509186   -1.047712   -0.287701
 H   -1.306076    1.670405    0.744350
 H   -1.253295    0.211063    1.721693
 H   -3.439419    0.703089    0.886830
