52 
1akr_ligand_xtb.xyz
 N   -1.016400    1.053945   -1.087985
 C   -1.768690    2.171709   -1.186514
 O   -2.872576    2.175873   -1.708664
 N   -1.247127    3.375965   -0.726173
 C   -0.029503    3.575684   -0.131700
 O    0.313340    4.643412    0.312561
 C    0.816062    2.353410   -0.153824
 N    2.047200    2.435502    0.230441
 C    2.821746    1.333687    0.149583
 C    4.181346    1.447134    0.475373
 C    5.034119    0.373945    0.388958
 C    6.481431    0.518377    0.735917
 C    4.521042   -0.868058   -0.047160
 C    5.427625   -2.048990   -0.176460
 C    3.182190   -0.998779   -0.356946
 C    2.296103    0.078939   -0.258756
 N    0.957430   -0.006586   -0.557775
 C    0.196651    1.127380   -0.614972
 C    0.304353   -1.273249   -0.826767
 C    0.034708   -2.075297    0.461254
 O    1.220086   -2.626116    1.023353
 C   -0.857422   -3.304610    0.187678
 O   -0.216844   -4.162644   -0.734200
 C   -2.268845   -3.048400   -0.376650
 O   -2.231266   -2.510765   -1.670719
 C   -3.154767   -2.172141    0.511448
 O   -2.521669   -0.952182    0.846779
 P   -3.394671    0.383577    0.893821
 O   -2.589614    1.556818    1.235844
 O   -4.494230   -0.007748    1.995248
 O   -4.251789    0.417749   -0.425293
 H   -1.888158    4.161969   -0.737000
 H    4.528868    2.419625    0.785372
 H    7.106433    0.296744   -0.128240
 H    6.694558    1.530534    1.066806
 H    6.757698   -0.173748    1.530174
 H    6.237682   -1.832999   -0.871542
 H    4.885354   -2.920396   -0.532599
 H    5.877671   -2.289611    0.785879
 H    2.828794   -1.962555   -0.685072
 H    0.901146   -1.866047   -1.522177
 H   -0.660572   -1.026013   -1.275263
 H   -0.466266   -1.426554    1.182999
 H    1.682903   -1.950770    1.527964
 H   -0.974492   -3.820131    1.154018
 H    0.671298   -4.322670   -0.391959
 H   -2.752250   -4.041063   -0.414334
 H   -1.641890   -3.070384   -2.193224
 H   -3.392337   -2.707305    1.435503
 H   -4.076660   -1.967465   -0.037171
 H   -4.923043    0.784011    2.314635
 H   -3.816765    0.999769   -1.093702
