52 
1akw_ligand_xtb.xyz
 N   -1.008259    1.063016   -1.077512
 C   -1.755087    2.184570   -1.175959
 O   -2.851634    2.197637   -1.713122
 N   -1.235341    3.382490   -0.697423
 C   -0.019528    3.574519   -0.096785
 O    0.322408    4.636141    0.362462
 C    0.825975    2.352357   -0.132713
 N    2.058878    2.430400    0.246649
 C    2.831720    1.328220    0.154533
 C    4.194521    1.439609    0.467377
 C    5.045636    0.366316    0.368062
 C    6.497451    0.509759    0.696076
 C    4.526298   -0.875181   -0.062058
 C    5.431594   -2.055388   -0.205516
 C    3.183759   -1.004856   -0.356106
 C    2.300912    0.075071   -0.252157
 N    0.960604   -0.006065   -0.545195
 C    0.203528    1.130393   -0.600252
 C    0.301324   -1.270242   -0.808995
 C    0.022212   -2.057702    0.485866
 O    1.206089   -2.592999    1.065767
 C   -0.860583   -3.295414    0.220638
 O   -0.199703   -4.168620   -0.672288
 C   -2.262139   -3.055938   -0.374680
 O   -2.202989   -2.533098   -1.674144
 C   -3.171975   -2.176404    0.485963
 O   -2.547886   -0.955824    0.835357
 P   -3.420386    0.380935    0.859511
 O   -2.622129    1.553165    1.220643
 O   -4.547617   -0.006837    1.933857
 O   -4.242904    0.414152   -0.481344
 H   -1.875692    4.169057   -0.702680
 H    4.546077    2.411007    0.776348
 H    7.111884    0.268257   -0.170217
 H    6.719215    1.526652    1.006071
 H    6.778718   -0.168635    1.500465
 H    6.215370   -1.846367   -0.932470
 H    4.880436   -2.933270   -0.530597
 H    5.916973   -2.280748    0.743011
 H    2.825264   -1.968774   -0.678272
 H    0.898464   -1.872695   -1.495566
 H   -0.659707   -1.021766   -1.264908
 H   -0.489023   -1.402256    1.194244
 H    1.664520   -1.905030    1.557234
 H   -0.993955   -3.792388    1.194477
 H    0.682547   -4.317750   -0.310228
 H   -2.737458   -4.052514   -0.410791
 H   -1.601354   -3.095626   -2.179195
 H   -3.434774   -2.708856    1.404756
 H   -4.078449   -1.973241   -0.088353
 H   -4.979362    0.786799    2.244567
 H   -3.797882    1.007375   -1.133462
