14 
1amk_ligand_xtb.xyz
 P    1.142635    0.006713    0.191394
 O    2.550921   -0.673346   -0.012387
 O    0.625135   -0.037369    1.551796
 O    1.389748    1.413513   -0.501751
 O    0.214044   -0.847932   -0.854601
 C   -1.073979   -1.136579   -0.395505
 C   -1.837440    0.150753   -0.116834
 O   -3.092302    0.005540    0.302914
 O   -1.341569    1.229361   -0.271940
 H    2.906450   -0.512817   -0.886509
 H    0.602231    1.958939   -0.424270
 H   -1.024330   -1.712454    0.538186
 H   -1.571754   -1.721713   -1.176129
 H   -3.351422   -0.915838    0.439595
