14 
1amk_ligand_dft.xyz
 P    1.260220   -0.003723   -0.149434
 O    1.163522    1.552482    0.124094
 O    1.087693   -0.526579   -1.517435
 O    2.652538   -0.331660    0.556496
 O    0.173113   -0.648457    0.883969
 C   -1.064481   -1.056953    0.367349
 C   -1.972539    0.134043    0.066305
 O   -3.240773   -0.166907   -0.232668
 O   -1.602987    1.281918    0.065823
 H    0.216790    1.804188    0.147536
 H    3.101310   -1.046067    0.085172
 H   -1.532475   -1.693814    1.125446
 H   -0.939442   -1.635256   -0.558090
 H   -3.392198   -1.122113   -0.202719
