32 
1amn_ligand_dft.xyz
 C   -1.917601    0.320497    0.000012
 C   -0.740855   -0.403588    0.000025
 C    0.490030    0.264073    0.000025
 C    0.518987    1.652058   -0.000006
 C   -0.677528    2.370665    0.000026
 C   -1.898653    1.717185    0.000055
 C    1.707082   -0.679250    0.000039
 O    1.645212   -1.534265    1.094843
 O    1.645198   -1.534388   -1.094626
 C    3.068584    0.056260   -0.000023
 F    3.175133    0.839674    1.090065
 F    3.174974    0.839712   -1.090133
 F    4.074571   -0.799705   -0.000124
 N   -3.251479   -0.372776   -0.000033
 C   -4.022241    0.020548   -1.231855
 C   -4.022361    0.020585    1.231762
 C   -3.127505   -1.868787    0.000006
 H   -0.710658   -1.485285    0.000025
 H    1.456665    2.193272   -0.000027
 H   -0.654475    3.454863    0.000023
 H   -2.808627    2.307598    0.000069
 H    1.803221   -1.024210    1.901046
 H    1.803439   -1.024511   -1.900894
 H   -4.977347   -0.506772   -1.229594
 H   -4.194501    1.095194   -1.227197
 H   -3.434657   -0.255929   -2.107371
 H   -4.194631    1.095225    1.227019
 H   -4.977444   -0.506772    1.229389
 H   -3.434808   -0.255870    2.107300
 H   -4.134125   -2.286966   -0.000060
 H   -2.597297   -2.189917   -0.895956
 H   -2.597421   -2.189876    0.896056
