80 
1apv_ligand_xtb.xyz
 C   -6.049058    0.910538   -0.009515
 C   -7.053777    0.439734    1.061478
 C   -6.939672   -1.065227    1.293809
 C   -6.852152    1.205275    2.365457
 C   -4.634718    0.494390    0.329612
 O   -3.959033    1.053294    1.181441
 N   -4.164475   -0.551354   -0.374982
 C   -2.859902   -1.142603   -0.143475
 C   -1.768405   -0.313252   -0.845494
 O   -1.112293   -0.716256   -1.792885
 C   -2.819509   -2.623309   -0.551606
 C   -3.642018   -3.466446    0.420091
 C   -3.276486   -2.856481   -1.991380
 N   -1.598502    0.894667   -0.297256
 C   -0.644201    1.852750   -0.826563
 C    0.715860    1.536510   -0.185219
 O    1.192332    2.211214    0.719662
 C   -1.081568    3.296732   -0.561098
 C   -2.519342    3.526739   -1.021611
 C   -0.133574    4.253208   -1.281576
 N    1.282649    0.431511   -0.670737
 C    2.483771   -0.190699   -0.138508
 C    2.617403   -1.599189   -0.712964
 C    1.392201   -2.496994   -0.487863
 C    1.719222   -3.896658   -1.005568
 C    1.006926   -2.561241    0.988782
 C    3.699069    0.732855   -0.437096
 O    3.551264    1.212844   -1.736451
 C    5.082627    0.030701   -0.284393
 C    5.271843   -0.555222    1.130065
 O    5.040245   -1.720452    1.369203
 O    3.784177    1.766327    0.496729
 F    6.037446    0.985269   -0.532735
 F    5.293624   -0.905975   -1.235679
 N    5.683486    0.358271    2.012819
 C    5.850732    0.055812    3.413014
 H   -6.334384    0.508170   -0.983119
 H   -6.077932    2.000464   -0.058870
 H   -8.058420    0.656442    0.679580
 H   -5.975068   -1.309983    1.733126
 H   -7.051076   -1.613253    0.359593
 H   -7.717434   -1.399301    1.976435
 H   -7.049172    2.264990    2.220554
 H   -5.829257    1.094326    2.714977
 H   -7.526119    0.831710    3.132635
 H   -4.709513   -0.944014   -1.124533
 H   -2.663240   -1.063555    0.934858
 H   -1.770688   -2.926307   -0.482191
 H   -3.582136   -4.516819    0.146523
 H   -4.688127   -3.168100    0.400906
 H   -3.272535   -3.356611    1.437167
 H   -4.351051   -2.717997   -2.103616
 H   -3.047452   -3.878493   -2.282549
 H   -2.751930   -2.186011   -2.665563
 H   -2.171448    1.165496    0.498425
 H   -0.566298    1.673564   -1.906693
 H   -1.012018    3.476780    0.516101
 H   -3.222704    2.947072   -0.430414
 H   -2.776018    4.577617   -0.914683
 H   -2.631389    3.250673   -2.068612
 H   -0.415519    5.282843   -1.077005
 H   -0.173564    4.091205   -2.356982
 H    0.888065    4.105828   -0.944105
 H    0.827995   -0.047669   -1.438953
 H    2.403277   -0.231705    0.956091
 H    2.816492   -1.518527   -1.782977
 H    3.472443   -2.083190   -0.240836
 H    0.541665   -2.116381   -1.060714
 H    2.542361   -4.324685   -0.438424
 H    2.007124   -3.858674   -2.053017
 H    0.856059   -4.551882   -0.911176
 H    0.589397   -1.616296    1.329822
 H    0.258904   -3.334963    1.149773
 H    1.879656   -2.797927    1.593249
 H    4.295490    1.793289   -1.944574
 H    2.868863    2.096820    0.689603
 H    5.732174    1.324322    1.723292
 H    6.847007    0.350482    3.743032
 H    5.727085   -1.018488    3.538064
 H    5.103526    0.580103    4.010744
