60 
1aq1_ligand_xtb.xyz
 O   -0.720759   -1.908832   -1.713328
 C    0.382629   -2.418651   -1.024258
 C   -0.003455   -3.334022    0.155174
 C   -1.074905   -2.699826    1.025047
 C   -2.276652   -2.242665    0.165496
 C   -1.843978   -1.358652   -1.056023
 C   -2.933156   -1.407836   -2.139297
 N   -1.590510    0.007305   -0.615242
 C   -0.326046    0.553031   -0.433790
 C    0.925891   -0.052601   -0.403939
 C    2.103625    0.707743   -0.145202
 C    1.974345    2.067317    0.083403
 C    0.720666    2.685439    0.054343
 C   -0.434716    1.948832   -0.190049
 C   -1.831995    2.254402   -0.235118
 C   -2.519016    1.044811   -0.490265
 C   -3.905975    1.034226   -0.517534
 C   -4.578516    2.228879   -0.339144
 C   -3.903071    3.426216   -0.123813
 C   -2.527050    3.446851   -0.059698
 C    0.990588    4.099720    0.319702
 N    2.226336    4.361045    0.507904
 C    2.965075    3.151150    0.393880
 O    4.148403    3.051366    0.544920
 C    3.203710   -0.211545   -0.206926
 C    2.661440   -1.480120   -0.504891
 C    3.467331   -2.597783   -0.639855
 C    4.831713   -2.421200   -0.485433
 C    5.377164   -1.173200   -0.193382
 C    4.576951   -0.057030   -0.050364
 N    1.277815   -1.377315   -0.586404
 O   -3.136929   -1.489597    0.992789
 C   -4.273429   -2.175911    1.492756
 N   -0.616079   -1.499133    1.784573
 C    0.165518   -1.771452    2.999830
 H    0.911134   -3.017353   -1.780141
 H    0.892898   -3.569805    0.729597
 H   -0.402428   -4.267726   -0.242710
 H   -1.430129   -3.421948    1.770104
 H   -2.776293   -3.132839   -0.233446
 H   -2.873821   -0.523128   -2.765506
 H   -2.744865   -2.279486   -2.760529
 H   -3.926685   -1.484383   -1.714880
 H   -4.472944    0.131912   -0.655886
 H   -5.657162    2.228404   -0.367085
 H   -4.463266    4.338739    0.003198
 H   -1.995159    4.365516    0.124529
 H    0.251389    4.881094    0.357611
 H    3.059312   -3.569821   -0.872689
 H    5.485737   -3.272149   -0.596007
 H    6.445679   -1.080115   -0.081969
 H    4.990148    0.913514    0.171685
 H   -3.987674   -3.010577    2.139327
 H   -4.830991   -1.441511    2.069160
 H   -4.899595   -2.549426    0.679984
 H   -0.069931   -0.869885    1.156368
 H   -1.502134   -1.001825    2.007876
 H    0.404831   -0.835922    3.501205
 H    1.096616   -2.273085    2.742746
 H   -0.401425   -2.401742    3.682711
