91 
1aq7_ligand_xtb.xyz
 C   -6.862281    0.662404    0.716577
 C   -6.484728   -0.276214    1.667116
 C   -5.347583   -1.040368    1.472549
 C   -4.575821   -0.886366    0.331655
 C   -4.956201    0.061917   -0.613584
 C   -6.087577    0.829579   -0.427856
 C   -3.327521   -1.692558    0.122722
 C   -2.077868   -0.849631    0.456680
 C   -0.868943   -1.465917   -0.237201
 O   -1.896269   -0.803381    1.844599
 O   -0.833928   -1.671364   -1.458375
 N    0.137998   -1.770273    0.575692
 C    1.283576   -2.567206    0.200963
 C    1.346151   -3.879306    1.011732
 C   -0.015064   -4.584776    0.993773
 C    2.443711   -4.769147    0.431161
 C   -0.058806   -5.822616    1.882750
 C    2.577066   -1.759467    0.394214
 O    3.301450   -1.944472    1.367086
 N    2.898139   -0.873312   -0.555853
 C    2.128993   -0.429401   -1.703719
 C    3.193455   -0.380251   -2.804712
 C    4.415871    0.174427   -2.064148
 C    4.232214   -0.265346   -0.606035
 C    1.524219    0.949937   -1.414120
 C    0.982289    1.572838   -2.697073
 C    2.107245    1.738177   -3.716650
 C    2.740553    0.388357   -4.042970
 O   -0.040582    0.743415   -3.242401
 S   -1.497832    1.158397   -2.772576
 O   -2.026845    2.145001   -3.642952
 O   -2.233312   -0.173952   -2.967960
 O   -1.449718    1.503419   -1.378784
 C    4.334208    0.934060    0.363463
 O    4.344680    2.086496   -0.027267
 N    4.429707    0.569896    1.649126
 C    4.300869    1.550535    2.704172
 C    2.828329    1.749766    3.070887
 C    2.600625    2.959602    3.971621
 C    1.105912    3.219097    4.214109
 N    0.368622    3.492394    3.002244
 C   -0.148335    2.511716    2.177321
 N   -0.428292    1.309498    2.516417
 N   -0.342975    2.914281    0.891370
 O   -7.976304    1.434587    0.864502
 H   -7.081642   -0.407899    2.560759
 H   -5.057413   -1.762147    2.221359
 H   -4.357371    0.199817   -1.502880
 H   -6.389894    1.563919   -1.157106
 H   -3.263201   -2.015682   -0.917380
 H   -3.324633   -2.567335    0.775436
 H   -2.213360    0.152789    0.031661
 H   -1.427764    0.042335    2.084266
 H   -0.033526   -1.586889    1.561075
 H    1.160634   -2.817395   -0.858189
 H    1.609041   -3.626000    2.043758
 H   -0.784660   -3.891958    1.338855
 H   -0.259488   -4.864029   -0.033935
 H    3.393677   -4.242357    0.421610
 H    2.195730   -5.066078   -0.586180
 H    2.566453   -5.663619    1.034035
 H    0.252650   -5.574793    2.895005
 H   -1.072618   -6.213896    1.923194
 H    0.588783   -6.608368    1.504106
 H    1.323373   -1.117103   -1.957619
 H    3.413610   -1.411257   -3.105565
 H    5.349418   -0.198203   -2.480853
 H    4.434818    1.264250   -2.096661
 H    4.959772   -1.019912   -0.287869
 H    0.717118    0.851811   -0.688540
 H    2.279702    1.618910   -1.004875
 H    0.526607    2.543755   -2.470403
 H    2.843839    2.423568   -3.296586
 H    1.704814    2.178208   -4.628997
 H    3.590507    0.531715   -4.712644
 H    1.993290   -0.214727   -4.560657
 H   -1.749926   -0.862016   -2.396495
 H    4.237612   -0.405368    1.872252
 H    4.718229    2.487220    2.326106
 H    4.881054    1.219460    3.567901
 H    2.275146    1.886380    2.139080
 H    2.450291    0.845798    3.553746
 H    3.042636    3.842643    3.503609
 H    3.091147    2.809464    4.934986
 H    0.655206    2.357598    4.712281
 H    0.989055    4.083274    4.875396
 H    0.689731    4.317333    2.515731
 H   -0.193967    1.087881    3.476164
 H   -0.878740    2.321726    0.271015
 H   -0.430017    3.899638    0.712480
 H   -8.413513    1.214778    1.695826
