52 
1aqj_ligand_xtb.xyz
 N   -0.578804    3.262132    0.986702
 C    0.423194    2.985868   -0.048502
 C   -0.318522    2.145164   -1.087758
 O   -0.845853    2.888924   -2.033397
 O   -0.442818    0.944100   -1.017323
 C    1.581606    2.194250    0.566512
 C    2.675965    1.870188   -0.453619
 C    3.800034    0.996662    0.129394
 N    4.508011    0.299064   -0.996666
 C    3.426791   -0.041758    1.193344
 C    2.467891   -1.192707    0.836895
 O    1.322675   -1.142263    1.689255
 C    1.843258   -1.275643   -0.571251
 O    2.757066   -1.650873   -1.564948
 C    0.729256   -2.303701   -0.309524
 O    1.331799   -3.564160   -0.327356
 C    0.274924   -1.880289    1.118305
 N   -0.905328   -1.024360    1.092252
 C   -1.084678    0.052488    1.856831
 N   -2.250491    0.624066    1.599188
 C   -2.883459   -0.100642    0.616639
 C   -4.111003   -0.041344   -0.097278
 N   -5.060403    0.877845    0.072770
 N   -4.306880   -0.975972   -1.027225
 C   -3.418115   -1.918496   -1.246273
 N   -2.255976   -2.084276   -0.626516
 C   -2.018289   -1.160108    0.289186
 H   -0.145121    3.784268    1.743050
 H   -1.299673    3.865707    0.600533
 H   -2.566276    1.485457    2.024411
 H    0.794911    3.893858   -0.546477
 H   -1.348997    2.383922   -2.695742
 H    1.162964    1.274467    0.971085
 H    2.003952    2.777270    1.385592
 H    3.111754    2.806284   -0.809103
 H    2.227467    1.378141   -1.316828
 H    4.526624    1.662866    0.607257
 H    3.902941   -0.500899   -1.360293
 H    4.702567    0.947561   -1.766923
 H    5.397981   -0.099067   -0.678355
 H    2.991726    0.476727    2.046867
 H    4.358020   -0.481482    1.554019
 H    2.980475   -2.150632    1.013452
 H    1.369416   -0.338938   -0.864391
 H    2.825030   -2.620997   -1.554182
 H   -0.097239   -2.230018   -1.019836
 H    0.673334   -4.263377   -0.408305
 H    0.048149   -2.767159    1.729313
 H   -0.377685    0.388242    2.590873
 H   -5.902505    0.771938   -0.473157
 H   -5.047097    1.559228    0.811051
 H   -3.659688   -2.638273   -2.014711
