48 
1atl_ligand_xtb.xyz
 C   -1.315697   -0.215353   -0.917531
 O   -1.505101   -0.430336   -2.098009
 C   -1.997393    0.909700   -0.139295
 C   -2.821970    1.741756   -1.116332
 S   -3.593023    3.199689   -0.341571
 C   -2.809023    0.415684    1.071498
 C   -4.039074   -0.451064    0.777438
 C   -4.825775   -0.639670    2.075043
 C   -3.671107   -1.812290    0.193580
 N   -0.441837   -0.930171   -0.181419
 C    0.307049   -2.041907   -0.709582
 C    0.889525   -2.801260    0.464423
 O    0.806736   -2.437481    1.608164
 C    1.431677   -1.579307   -1.669556
 C    2.355431   -0.616141   -0.982720
 C    3.490469   -1.062009   -0.313458
 C    2.068698    0.740065   -0.961014
 C    4.309967   -0.178829    0.354454
 C    2.881633    1.639409   -0.291737
 C    4.013324    1.185053    0.375317
 O    4.887296    1.972070    1.061167
 O    1.509177   -3.918987    0.096138
 C    4.654361    3.358499    1.103610
 H   -1.189744    1.541749    0.257007
 H   -3.643318    1.159345   -1.528310
 H   -2.201596    2.083975   -1.944196
 H   -2.453523    3.820493   -0.036599
 H   -2.147710   -0.136610    1.743608
 H   -3.149356    1.304801    1.609066
 H   -4.686251    0.073082    0.068132
 H   -4.218674   -1.156274    2.815883
 H   -5.128700    0.320781    2.485700
 H   -5.720651   -1.230086    1.893738
 H   -4.562389   -2.429007    0.098662
 H   -2.966730   -2.328134    0.844285
 H   -3.228584   -1.713190   -0.792810
 H   -0.272073   -0.722543    0.792557
 H   -0.365116   -2.704489   -1.269920
 H    0.945280   -1.100612   -2.520056
 H    1.972096   -2.461045   -2.014247
 H    3.740505   -2.113216   -0.326607
 H    1.197650    1.105838   -1.485619
 H    5.194132   -0.517477    0.870737
 H    2.625251    2.687266   -0.303298
 H    1.882540   -4.373115    0.868980
 H    5.472527    3.777049    1.687511
 H    3.704291    3.592539    1.595087
 H    4.663951    3.798930    0.101261
