86 
1au0_ligand_dft.xyz
 C   -2.850546   -3.011153   -1.851200
 C   -3.878044   -2.076499   -1.797563
 C   -3.586588   -0.717217   -1.867540
 C   -2.270173   -0.282642   -1.999267
 C   -1.241073   -1.225116   -2.069592
 C   -1.530600   -2.583234   -1.989732
 C   -1.960998    1.189847   -2.058982
 O   -1.030508    1.552675   -1.024484
 C    0.238936    1.807801   -1.395141
 O    0.612486    1.928839   -2.554859
 C    2.410544    2.383441   -0.402856
 C    2.822385    3.034698    0.915254
 C    1.903900    4.172242    1.385540
 C    1.728041    5.258975    0.322247
 C    2.451579    4.763811    2.686679
 C    3.374853    1.237964   -0.782203
 O    4.252661    0.842812   -0.008821
 N    3.175095    0.717822   -2.006395
 C    4.058171   -0.241202   -2.639792
 N    1.038915    1.909840   -0.313558
 C    3.602421   -1.711151   -2.575621
 O    2.245327   -1.782267   -2.949632
 C   -6.737243    0.547329   -0.003301
 C   -6.130174   -0.491930    0.699798
 C   -4.859881   -0.324442    1.237841
 C   -4.177121    0.881499    1.072696
 C   -4.790218    1.919045    0.372385
 C   -6.066541    1.756164   -0.162722
 C   -2.800357    1.070876    1.647689
 O   -2.035619   -0.104588    1.362084
 C   -0.722070   -0.000871    1.602690
 O   -0.201290    0.963924    2.157350
 C    1.379513   -1.191817    1.328314
 C    1.805635   -1.814257    2.674683
 C    1.659818   -3.335284    2.828579
 C    0.230074   -3.841017    2.612091
 C    2.173539   -3.748256    4.211332
 C    1.938937   -1.973974    0.148269
 O    1.235080   -2.756899   -0.497763
 N    3.246473   -1.785937   -0.094101
 C    3.891352   -2.400849   -1.238925
 N   -0.051952   -1.081541    1.158792
 H   -3.072175   -4.072387   -1.784530
 H   -4.908889   -2.397774   -1.680753
 H   -4.391553    0.009732   -1.797615
 H   -0.209783   -0.902101   -2.191773
 H   -0.722969   -3.306052   -2.025067
 H   -1.531670    1.479415   -3.020665
 H   -2.860639    1.779756   -1.869059
 H    2.451598    3.117125   -1.215979
 H    3.845256    3.411046    0.796682
 H    2.874005    2.261393    1.690758
 H    0.915252    3.749211    1.606586
 H    1.132874    6.090877    0.713892
 H    1.216270    4.880541   -0.569187
 H    2.700182    5.662332    0.010689
 H    2.567116    3.991619    3.455075
 H    1.779236    5.533786    3.080249
 H    3.432770    5.226764    2.522736
 H    2.368559    1.049778   -2.531114
 H    4.125448    0.040950   -3.694659
 H    5.053540   -0.136144   -2.197428
 H    0.629494    1.756043    0.606494
 H    4.212935   -2.249685   -3.319784
 H    1.771859   -2.319058   -2.292097
 H   -7.728435    0.413963   -0.426374
 H   -6.647035   -1.438887    0.824908
 H   -4.377495   -1.143722    1.761560
 H   -4.263198    2.860581    0.236068
 H   -6.532014    2.571662   -0.708260
 H   -2.305429    1.938939    1.206264
 H   -2.832922    1.214394    2.733539
 H    1.797415   -0.180448    1.298622
 H    2.858140   -1.549136    2.836980
 H    1.230933   -1.300379    3.455681
 H    2.303494   -3.813485    2.076416
 H   -0.480588   -3.290964    3.240555
 H   -0.078243   -3.736014    1.569130
 H    0.159650   -4.903211    2.872004
 H    3.204688   -3.414870    4.374047
 H    1.550634   -3.311499    5.001917
 H    2.147381   -4.836823    4.329816
 H    3.703542   -0.955226    0.281034
 H    4.969747   -2.396261   -1.056483
 H    3.564964   -3.443790   -1.296641
 H   -0.517183   -1.735943    0.541725
