86 
1au0_ligand_xtb.xyz
 C    4.252845    1.705746   -1.734841
 C    4.661126    0.434714   -2.097075
 C    3.723187   -0.558329   -2.317346
 C    2.368340   -0.283700   -2.198576
 C    1.963659    0.998059   -1.847369
 C    2.902758    1.984186   -1.608288
 C    1.340572   -1.355056   -2.432524
 O    0.571164   -1.536463   -1.239728
 C   -0.741091   -1.800725   -1.397926
 O   -1.289120   -1.939736   -2.474427
 C   -2.762151   -2.210030   -0.069456
 C   -3.027771   -2.723987    1.341833
 C   -2.350599   -4.065186    1.641617
 C   -3.046731   -5.216305    0.919411
 C   -2.351592   -4.311485    3.148647
 C   -3.633329   -0.976776   -0.376726
 O   -4.251693   -0.368451    0.487769
 N   -3.650479   -0.647730   -1.671983
 C   -4.513404    0.360922   -2.237936
 N   -1.357645   -1.878710   -0.209861
 C   -3.800026    1.692113   -2.599471
 O   -2.553548    1.453221   -3.199721
 C    7.007218   -0.343998    0.587012
 C    6.213312    0.670280    1.093040
 C    4.867985    0.449453    1.327991
 C    4.302214   -0.786584    1.050772
 C    5.102333   -1.800367    0.541004
 C    6.448865   -1.581262    0.313733
 C    2.847430   -1.044555    1.314079
 O    2.107914    0.163445    1.163193
 C    0.797106    0.073467    1.425076
 O    0.254437   -0.918468    1.873021
 C   -1.263733    1.380414    1.223386
 C   -1.716303    2.232620    2.426619
 C   -1.636202    3.753934    2.246486
 C   -0.232391    4.230751    1.880525
 C   -2.097728    4.424561    3.540189
 C   -1.753728    1.959312   -0.099673
 O   -0.973672    2.356043   -0.954961
 N   -3.084632    2.039398   -0.224333
 C   -3.697032    2.637301   -1.392476
 N    0.171908    1.235950    1.166009
 H    4.986313    2.477255   -1.552999
 H    5.712767    0.211246   -2.196536
 H    4.047826   -1.552670   -2.588983
 H    0.911067    1.224122   -1.764982
 H    2.577607    2.977182   -1.333689
 H    0.656667   -1.080350   -3.245297
 H    1.817823   -2.309116   -2.684429
 H   -3.007265   -2.971884   -0.820174
 H   -4.106457   -2.813013    1.480834
 H   -2.667091   -1.972133    2.046603
 H   -1.310916   -4.013386    1.302364
 H   -2.566098   -6.160794    1.164110
 H   -3.005813   -5.089330   -0.159475
 H   -4.090756   -5.275969    1.220364
 H   -1.798295   -3.528916    3.661829
 H   -1.887471   -5.267422    3.379892
 H   -3.370389   -4.323112    3.530368
 H   -2.993638   -1.107295   -2.300598
 H   -4.940062   -0.054711   -3.154015
 H   -5.316143    0.561066   -1.523898
 H   -0.814246   -1.711738    0.635150
 H   -4.426701    2.193806   -3.352771
 H   -1.847292    1.700802   -2.581806
 H    8.057741   -0.171560    0.404258
 H    6.643918    1.637294    1.308081
 H    4.245058    1.238969    1.718104
 H    4.666813   -2.764687    0.322975
 H    7.063384   -2.376286   -0.082694
 H    2.450110   -1.789664    0.615475
 H    2.701157   -1.427989    2.334392
 H   -1.684062    0.376079    1.348865
 H   -2.749606    1.966952    2.657145
 H   -1.100301    1.938881    3.279170
 H   -2.321553    4.048641    1.444129
 H    0.506346    3.802151    2.553858
 H    0.016445    3.958358    0.858811
 H   -0.177238    5.314781    1.956416
 H   -3.096550    4.092052    3.813052
 H   -1.419598    4.180020    4.354847
 H   -2.117248    5.505395    3.423979
 H   -3.675335    1.454126    0.360284
 H   -4.693459    2.982717   -1.111030
 H   -3.086965    3.498480   -1.684081
 H    0.680765    1.925653    0.631702
