70 
1au2_ligand_xtb.xyz
 C   -1.545464    2.227564   -1.415435
 C   -1.792835    0.941768   -1.885045
 C   -2.978700    0.683645   -2.555414
 C   -3.923416    1.676505   -2.743541
 C   -3.680525    2.950912   -2.255784
 C   -2.498659    3.228121   -1.598366
 O   -0.452364    2.594411   -0.673017
 C    0.767664    1.995764   -0.764070
 C    1.243437    1.318986   -1.884594
 C    2.516836    0.776895   -1.860156
 C    3.308416    0.924948   -0.738947
 C    2.866265    1.641739    0.357473
 C    1.596689    2.178730    0.346000
 S    4.927164    0.161716   -0.660322
 O    5.207718   -0.459084   -1.920472
 O    5.850497    1.114099   -0.121664
 N    4.803335   -1.054444    0.467937
 C    4.000846   -2.200613    0.136354
 C    2.512359   -2.021732    0.475417
 O    2.424844   -1.709106    1.845970
 C    1.737696   -3.306703    0.120709
 N    0.342562   -3.199506    0.487848
 C   -0.518508   -2.464385   -0.237847
 O   -0.256564   -1.971032   -1.316518
 C   -1.905259   -2.289487    0.411559
 C   -2.996115   -2.690291   -0.575609
 C   -4.424825   -2.517120   -0.046618
 C   -4.728107   -3.504635    1.077643
 C   -5.415843   -2.705202   -1.193596
 N   -2.040524   -0.895469    0.792946
 C   -1.214061   -0.357997    1.709749
 O   -0.354590   -1.029968    2.270947
 C   -1.430655    1.077489    2.044047
 C   -2.519380    1.829734    1.609483
 C   -2.598003    3.157049    2.002695
 N   -1.705973    3.746483    2.777172
 C   -0.496542    1.697654    2.871443
 C   -0.682848    3.029004    3.206290
 H   -1.078032    0.145564   -1.737292
 H   -3.157654   -0.309819   -2.939868
 H   -4.841828    1.460489   -3.267454
 H   -4.411329    3.733167   -2.393956
 H   -2.288529    4.213027   -1.212253
 H    0.636529    1.228900   -2.771461
 H    2.910574    0.236224   -2.705860
 H    3.524416    1.775969    1.200845
 H    1.220751    2.751932    1.178178
 H    4.645098   -0.714563    1.404063
 H    4.131496   -2.369670   -0.932814
 H    4.386279   -3.060014    0.693473
 H    2.092504   -1.200870   -0.123832
 H    1.504710   -1.490888    2.072750
 H    1.794050   -3.464027   -0.957798
 H    2.165835   -4.161383    0.646100
 H    0.123740   -3.362967    1.459412
 H   -1.956984   -2.890580    1.325534
 H   -2.860086   -2.093147   -1.479199
 H   -2.838147   -3.735901   -0.848282
 H   -4.541996   -1.500886    0.346043
 H   -5.759230   -3.395458    1.404934
 H   -4.585400   -4.526937    0.734321
 H   -4.085038   -3.333786    1.937192
 H   -5.240778   -1.974892   -1.980218
 H   -6.436346   -2.585335   -0.838376
 H   -5.316501   -3.700734   -1.620099
 H   -2.571552   -0.301360    0.174578
 H   -3.300989    1.415892    0.990976
 H   -3.422403    3.779132    1.680302
 H    0.348452    1.132732    3.233471
 H    0.018845    3.548652    3.845404
