14 
1aw1_ligand_dft.xyz
 P    1.260018   -0.003651    0.149502
 O    0.173430   -0.648696   -0.884477
 O    2.652657   -0.331856   -0.555697
 O    1.086912   -0.526177    1.517559
 O    1.163062    1.552407   -0.124551
 C   -1.064399   -1.057035   -0.368045
 C   -1.972121    0.134016   -0.066289
 O   -3.240297   -0.166925    0.233197
 O   -1.602707    1.281930   -0.066067
 H    3.101848   -1.044978   -0.082843
 H    0.216221    1.803829   -0.148250
 H   -0.939588   -1.636226    0.556831
 H   -1.532753   -1.692976   -1.126684
 H   -3.391337   -1.122238    0.204718
