24 
1axz_ligand_dft.xyz
 C    0.422468    1.421913   -0.194336
 C    1.480134    0.386024    0.160191
 C    1.175456   -0.917540   -0.560027
 C   -0.243099   -1.382957   -0.227372
 C   -1.233618   -0.242404   -0.466977
 C   -2.640234   -0.547413    0.026092
 O    0.727484    2.579318    0.508329
 O    2.777211    0.782035   -0.231537
 O    2.063015   -1.938490   -0.152021
 O   -0.311070   -1.797877    1.115888
 O   -0.843970    0.954495    0.202269
 O   -3.520214    0.511574   -0.274335
 H    0.422386    1.603685   -1.286140
 H    1.416267    0.218989    1.244179
 H    1.259847   -0.743978   -1.644603
 H   -0.509803   -2.211202   -0.904486
 H   -1.274620   -0.048477   -1.552331
 H   -3.022025   -1.438031   -0.480846
 H   -2.598478   -0.754533    1.102743
 H    0.111074    3.271580    0.239699
 H    2.972123    1.608749    0.228404
 H    2.943657   -1.539291   -0.121067
 H    0.503624   -2.299256    1.270406
 H   -3.130337    1.297581    0.129881
