86 
1ayu_ligand_xtb.xyz
 C   -4.959543    1.018855   -2.655292
 C   -5.166761    2.263315   -2.083372
 C   -4.817594    2.485804   -0.760215
 C   -4.275618    1.449815    0.003217
 C   -4.073560    0.201436   -0.577154
 C   -4.411641   -0.008931   -1.902338
 C   -3.902212    1.674318    1.445406
 O   -2.471292    1.555688    1.699769
 C   -1.596195    2.192420    0.996496
 O   -1.861107    2.917090   -0.046967
 C    0.778935    2.775174    0.740708
 C    1.890637    2.966143    1.783584
 C    3.108040    3.758810    1.278077
 C    2.715824    5.154369    0.801008
 C    4.129555    3.856830    2.409561
 C    1.305038    2.015458   -0.477619
 O    1.832393    2.539061   -1.424475
 N    1.189352    0.655972   -0.377680
 N    1.498335   -0.112633   -1.518467
 N   -0.342528    2.095061    1.377961
 C    0.471123    0.035151   -2.649634
 O    0.688112   -0.956467   -3.566519
 C    4.529299    0.404960   -0.837493
 C    4.196287    0.071582    0.467319
 C    3.862424   -1.232110    0.791018
 C    3.870277   -2.224013   -0.185082
 C    4.213619   -1.891137   -1.490231
 C    4.534165   -0.580254   -1.817696
 C    3.523906   -3.643700    0.176430
 O    2.230448   -3.783570    0.799149
 C    1.187661   -3.296711    0.162043
 O    1.249043   -2.593357   -0.854602
 C   -1.222979   -3.156406    0.077661
 C   -2.451767   -3.387865    0.970913
 C   -2.600036   -2.515012    2.226399
 C   -3.977415   -2.778429    2.835190
 C   -1.512383   -2.784392    3.263548
 C   -1.010835   -1.688184   -0.282256
 O   -0.742907   -0.842503    0.562757
 N   -1.164508   -1.367880   -1.585676
 N   -0.825799   -0.074457   -2.022880
 N    0.007368   -3.603370    0.712270
 H   -5.243464    0.844722   -3.680891
 H   -5.611714    3.058114   -2.659909
 H   -5.022470    3.447653   -0.310073
 H   -3.668858   -0.601443    0.019565
 H   -4.275688   -0.985225   -2.341615
 H   -4.330267    0.904435    2.091221
 H   -4.234394    2.655554    1.799118
 H    0.441012    3.752092    0.381190
 H    1.465887    3.503363    2.634059
 H    2.216654    1.981604    2.126630
 H    3.559207    3.220715    0.439647
 H    2.145652    5.113169   -0.123202
 H    3.611114    5.737157    0.606529
 H    2.136840    5.674798    1.560081
 H    5.030725    4.349932    2.058516
 H    3.727675    4.437165    3.236006
 H    4.406051    2.873865    2.783997
 H    0.446054    0.218943    0.199027
 H    2.468132    0.125190   -1.833688
 H    1.513044   -1.166294   -1.239110
 H   -0.150628    1.521765    2.192747
 H    0.565664    1.056980   -3.041419
 H    1.322115   -0.723988   -4.255546
 H    4.813677    1.415870   -1.085393
 H    4.234105    0.823856    1.238718
 H    3.622487   -1.494074    1.810753
 H    4.249121   -2.658350   -2.248062
 H    4.836075   -0.338266   -2.825768
 H    3.550961   -4.280534   -0.712692
 H    4.215524   -4.037699    0.924142
 H   -1.365983   -3.729186   -0.849752
 H   -2.442493   -4.437670    1.271085
 H   -3.333678   -3.244667    0.342117
 H   -2.541098   -1.459333    1.941712
 H   -4.772842   -2.562912    2.125055
 H   -4.065538   -3.818228    3.138042
 H   -4.127062   -2.159427    3.715373
 H   -1.740092   -2.246249    4.179987
 H   -1.465554   -3.843096    3.507486
 H   -0.540388   -2.447997    2.912416
 H   -1.203293   -2.102214   -2.285698
 H   -1.554297    0.281864   -2.636532
 H   -2.812950    2.909697   -0.319221
 H   -0.037608   -4.231809    1.500599
