52 
1azl_ligand_dft.xyz
 N   -0.868670    1.439284   -0.704889
 C   -1.449068    2.676166   -0.755473
 O   -2.604658    2.857337   -1.127958
 N   -0.706675    3.797468   -0.389026
 C    0.622496    3.828178   -0.019441
 O    1.196586    4.845806    0.290715
 C    1.258586    2.475245   -0.069445
 N    2.526526    2.389489    0.161893
 C    3.110033    1.155857    0.091314
 C    4.501812    1.069430    0.287491
 C    5.169301   -0.131167    0.217132
 C    6.659442   -0.203686    0.420118
 C    4.415414   -1.306065   -0.051343
 C    5.107878   -2.640479   -0.129166
 C    3.046339   -1.238474   -0.237268
 C    2.364266   -0.011947   -0.172549
 N    0.993786    0.108034   -0.377281
 C    0.398214    1.343424   -0.394338
 C    0.156941   -1.066562   -0.668860
 C   -0.314395   -1.774992    0.606552
 O    0.798778   -2.212734    1.392339
 C   -1.086270   -3.079703    0.320163
 O   -0.178414   -4.023642   -0.235292
 C   -2.266774   -3.060722   -0.659768
 O   -1.863158   -2.661338   -1.954085
 C   -3.451950   -2.211425   -0.220798
 O   -2.989457   -1.063974    0.477923
 P   -3.853526    0.263494    0.705647
 O   -3.162925    1.175015    1.630643
 O   -5.248039   -0.388411    1.190126
 O   -4.247325    0.832609   -0.718938
 H   -1.202331    4.680369   -0.398395
 H    5.024679    1.999230    0.489243
 H    7.163235   -0.613576   -0.462970
 H    7.077420    0.787136    0.614215
 H    6.918270   -0.850526    1.266534
 H    5.870255   -2.644498   -0.916497
 H    4.399734   -3.445630   -0.339129
 H    5.619468   -2.874433    0.811620
 H    2.498540   -2.156610   -0.393092
 H    0.727021   -1.742962   -1.305100
 H   -0.708406   -0.716010   -1.225485
 H   -0.941287   -1.092864    1.180929
 H    1.000569   -1.544078    2.054516
 H   -1.458805   -3.437254    1.292028
 H    0.584212   -4.037366    0.360035
 H   -2.622940   -4.102331   -0.700437
 H   -1.116395   -3.231466   -2.184711
 H   -4.097543   -2.786645    0.450106
 H   -4.021785   -1.924794   -1.110060
 H   -5.968073    0.253300    1.137434
 H   -3.622407    1.564857   -0.990093
