83 
1b0f_ligand_dft.xyz
 C    7.471579    1.756313   -0.928074
 C    6.976236    0.314872   -0.906279
 C    6.139980   -1.071801    1.020124
 C    2.082472   -1.236276   -0.379091
 C    2.806052   -2.406642   -0.137388
 C    4.122451   -2.335801    0.297838
 C    4.737987   -1.097182    0.474197
 C    0.660356   -1.242611   -0.845228
 C   -1.726861   -3.442761   -2.028032
 C   -1.208392   -2.840828   -3.334899
 C   -1.112138   -4.819184   -1.764885
 O    8.766845    1.855636   -0.379283
 N    7.025214   -0.185379    0.463414
 C    8.349203   -0.058648    1.060132
 C    8.796104    1.394835    0.957005
 O    6.436530   -1.787338    1.965458
 C    4.011540    0.072504    0.238493
 C    2.693963    0.004210   -0.191513
 N   -0.062789   -2.344448   -0.557141
 C   -1.476836   -2.460794   -0.853742
 C   -2.145890   -2.933585    0.441865
 O   -1.500588   -3.568821    1.270428
 C   -4.396058   -2.021306   -0.295724
 C   -4.115787   -3.124419    1.859393
 C   -5.554253   -2.625342    1.712123
 C   -5.749229   -2.558743    0.195210
 C   -4.419969   -0.485081   -0.328671
 N   -3.576367    0.149992    0.514819
 N   -3.450354   -2.624016    0.646797
 O   -5.195657    0.078015   -1.086289
 C   -3.394893    1.590869    0.497578
 C   -3.668573    2.205451    1.886082
 C   -2.730050    1.702911    2.986265
 C   -5.131981    1.965741    2.267358
 C   -2.013222    1.831771   -0.142789
 C   -1.550943    3.289077   -0.266968
 O   -1.031238    1.116640    0.557762
 F   -1.365411    3.871951    0.941221
 F   -0.349017    3.286375   -0.902218
 C   -2.470740    4.214854   -1.089203
 F   -2.744340    3.655724   -2.272938
 F   -3.629629    4.428796   -0.451701
 F   -1.888636    5.393417   -1.298509
 O    0.184953   -0.274061   -1.448703
 H    6.768650    2.394437   -0.366614
 H    7.537329    2.123925   -1.955066
 H    5.965812    0.246882   -1.308966
 H    7.636174   -0.298719   -1.537185
 H    2.354909   -3.379918   -0.307495
 H    4.683452   -3.240243    0.508309
 H   -2.812882   -3.572519   -2.119956
 H   -1.666733   -1.867847   -3.538213
 H   -0.123592   -2.696609   -3.291757
 H   -1.426395   -3.507889   -4.175221
 H   -0.019680   -4.749289   -1.716577
 H   -1.465008   -5.254822   -0.825197
 H   -1.365215   -5.506129   -2.578395
 H    9.061824   -0.707847    0.531901
 H    8.293465   -0.384948    2.099151
 H    9.827493    1.503861    1.300676
 H    8.145031    2.022196    1.587260
 H    4.476514    1.039655    0.407122
 H    2.125880    0.908699   -0.382625
 H    0.257058   -2.982660    0.162575
 H   -1.834626   -1.464808   -1.131512
 H   -4.198375   -2.336743   -1.322086
 H   -4.054388   -4.218150    1.880961
 H   -3.608828   -2.747948    2.751177
 H   -6.270207   -3.284538    2.207732
 H   -5.657547   -1.625789    2.148723
 H   -5.911957   -3.561404   -0.214401
 H   -6.567502   -1.912936   -0.125953
 H   -2.888267   -0.391722    1.017212
 H   -4.150931    1.969309   -0.195728
 H   -3.523638    3.284317    1.783372
 H   -1.683592    1.898669    2.747332
 H   -2.970935    2.197062    3.933522
 H   -2.848445    0.623667    3.145139
 H   -5.327663    0.896160    2.406142
 H   -5.369474    2.473821    3.207753
 H   -5.816659    2.334511    1.496212
 H   -2.084396    1.460514   -1.174058
 H   -0.422682    0.761372   -0.115237
