74 
1b0h_ligand_xtb.xyz
 N   -3.148129    0.332916    1.210961
 C   -3.134224   -0.951308    0.446349
 C   -2.043318   -0.859454   -0.673690
 O   -2.324888   -1.055806   -1.828459
 C   -4.495627   -1.209546   -0.198168
 C   -5.515484   -1.914811    0.700279
 C   -6.763274   -2.299330   -0.106359
 C   -7.768917   -3.069032    0.745960
 N   -8.955381   -3.482041   -0.061404
 N   -0.831258   -0.499996   -0.233944
 C    0.293511   -0.318511   -1.135569
 C    1.547652   -0.499572   -0.276104
 O    1.465165   -0.539722    0.936965
 C    0.255527    1.084878   -1.787493
 C    0.119670    2.165066   -0.745749
 C    1.258231    2.666469   -0.162801
 C    1.206919    3.629910    0.851978
 C   -1.145861    2.651158   -0.320934
 C   -1.196218    3.620017    0.723915
 C    0.000931    4.092334    1.297360
 C   -2.373645    2.248970   -0.903136
 C   -3.578550    2.740253   -0.442006
 C   -3.615333    3.688389    0.599846
 C   -2.446085    4.118416    1.158745
 N    2.700676   -0.617779   -0.955261
 C    3.976714   -0.788033   -0.295939
 C    4.926971    0.353795   -0.626355
 O    6.112644    0.320889   -0.365898
 C    4.627590   -2.156452   -0.612337
 C    4.908925   -3.008286    0.627796
 C    6.044314   -2.499492    1.520961
 C    7.428764   -2.616398    0.869210
 N    8.042641   -1.271914    0.687170
 O    4.350024    1.369883   -1.219322
 H   -3.946873    0.363325    1.853594
 H   -2.288974    0.458328    1.756791
 H   -3.209837    1.175895    0.520463
 H   -2.872033   -1.768164    1.126003
 H   -4.309250   -1.827190   -1.079618
 H   -4.903425   -0.266255   -0.564875
 H   -5.068258   -2.819533    1.114629
 H   -5.812616   -1.273778    1.533060
 H   -6.451075   -2.915047   -0.951708
 H   -7.226254   -1.392458   -0.499502
 H   -8.118306   -2.452607    1.576203
 H   -7.305131   -3.968560    1.154938
 H   -8.669082   -4.083947   -0.846624
 H   -9.629535   -4.006213    0.514053
 H   -9.438205   -2.659786   -0.450411
 H   -0.524807   -0.530839    0.736019
 H    0.252435   -1.079682   -1.922884
 H   -0.565072    1.106813   -2.502025
 H    1.180100    1.236385   -2.344773
 H    2.221867    2.316807   -0.501168
 H    2.124651    4.004369    1.276776
 H   -0.053257    4.831648    2.080898
 H   -2.377011    1.587252   -1.754476
 H   -4.496354    2.473972   -0.947373
 H   -4.561673    4.095354    0.917989
 H   -2.455359    4.874019    1.928576
 H    2.695741   -0.579701   -1.963408
 H    3.755695   -0.723792    0.780158
 H    5.543108   -2.003982   -1.185703
 H    3.939175   -2.710446   -1.251267
 H    5.148988   -4.021079    0.302828
 H    3.998393   -3.068673    1.224651
 H    6.026263   -3.080829    2.441684
 H    5.857077   -1.460509    1.796116
 H    7.347578   -3.087244   -0.111055
 H    8.097108   -3.226016    1.477574
 H    8.886047   -1.317244    0.105903
 H    7.335625   -0.631227    0.234961
 H    8.301954   -0.868087    1.593555
 H    4.972091    2.091885   -1.424058
