27 
1b2i_ligand_xtb.xyz
 C    1.163775    0.039121    0.348572
 C    0.535962   -1.310999    0.005942
 C   -0.978534   -1.249651    0.232682
 C   -1.596358   -0.148053   -0.634536
 C   -0.972387    1.208126   -0.290174
 C    0.537889    1.146654   -0.508425
 C   -3.123532   -0.124884   -0.548772
 C    2.689568    0.145995    0.195553
 N   -3.579007    0.227050    0.831088
 O    3.355657   -0.923917   -0.237595
 O    3.252785    1.166965    0.455663
 H    0.969073    0.268217    1.403370
 H    0.947466   -2.101852    0.637497
 H    0.719633   -1.560678   -1.042446
 H   -1.152577   -1.054534    1.295278
 H   -1.418739   -2.216895   -0.017176
 H   -1.356266   -0.370376   -1.678676
 H   -1.150099    1.469111    0.757558
 H   -1.395762    1.990823   -0.921419
 H    0.748891    0.954762   -1.561993
 H    0.997228    2.099047   -0.245531
 H   -3.532764   -1.102829   -0.806686
 H   -3.525991    0.617186   -1.239749
 H   -4.602904    0.254191    0.896578
 H   -3.213444   -0.469071    1.494701
 H   -3.194988    1.149542    1.080372
 H    2.808461   -1.698236   -0.418895
