37 
1b2m_ligand_dft.xyz
 O   -0.392296    2.439935    1.668312
 C   -1.467860    2.996968    0.944703
 C   -1.915246    2.006733   -0.118272
 O   -0.893008    1.839400   -1.106250
 C   -2.218123    0.599642    0.398547
 O   -3.162855    0.012900   -0.499468
 C   -0.865477   -0.098561    0.279701
 O   -1.009388   -1.475161    0.093078
 C   -0.228925    0.622792   -0.930174
 N    1.193333    0.874280   -0.712530
 C    1.870433    2.072077   -0.766641
 N    3.143356    1.956540   -0.501558
 C    3.319462    0.614008   -0.257882
 C    4.500263   -0.121714    0.107405
 O    5.643992    0.233140    0.289325
 N    4.168076   -1.508253    0.271990
 C    2.935815   -2.076719    0.131145
 N    2.834750   -3.414860    0.406341
 N    1.866352   -1.400364   -0.203791
 C    2.119585   -0.068109   -0.379991
 P   -3.965788   -1.318980   -0.051921
 O   -5.247279   -1.237411   -1.024217
 O   -4.234560   -1.402051    1.396509
 H    0.070559    3.139552    2.140639
 H   -1.173473    3.922899    0.432149
 H   -2.321975    3.224442    1.601419
 H   -2.795718    2.411523   -0.625328
 H   -2.613528    0.583864    1.416755
 H   -0.279826    0.138186    1.174592
 H   -0.097537   -1.819028    0.040491
 H   -0.337300    0.009420   -1.831762
 H    1.352779    2.986946   -1.010187
 H    4.947044   -2.069010    0.593235
 H    3.643182   -3.995473    0.239768
 H    1.960375   -3.830695    0.120180
 H   -5.928911   -0.653890   -0.662706
 H   -3.316333   -2.384148   -0.663146
