37 
1b2m_ligand_xtb.xyz
 O   -0.482471    2.417721    1.802883
 C   -1.499739    3.056793    1.066037
 C   -1.942500    2.147518   -0.087697
 O   -0.920015    2.043428   -1.071956
 C   -2.240124    0.717906    0.372726
 O   -3.206041    0.132784   -0.462541
 C   -0.892231    0.022878    0.189432
 O   -1.073916   -1.320375   -0.109350
 C   -0.258333    0.818885   -0.977686
 N    1.156875    0.987285   -0.746803
 C    1.931164    2.114485   -0.819576
 N    3.176506    1.897979   -0.537479
 C    3.262891    0.560583   -0.258811
 C    4.379218   -0.256635    0.117968
 O    5.544194    0.002588    0.289287
 N    3.943289   -1.599080    0.309184
 C    2.676830   -2.070628    0.166321
 N    2.470028   -3.397197    0.353906
 N    1.666688   -1.318370   -0.180795
 C    1.999286   -0.016875   -0.385928
 P   -3.585434   -1.407520   -0.151374
 O   -5.053471   -1.464253   -0.782991
 O   -3.548998   -1.745575    1.270277
 H   -0.118538    3.040361    2.441960
 H   -1.136619    3.996604    0.632377
 H   -2.369196    3.266822    1.704130
 H   -2.815180    2.589223   -0.578733
 H   -2.570158    0.665177    1.413153
 H   -0.289179    0.166527    1.094493
 H   -0.169111   -1.698124   -0.178103
 H   -0.392604    0.261627   -1.921457
 H    1.514433    3.062683   -1.089453
 H    4.683927   -2.241521    0.564949
 H    3.159636   -3.943499    0.839377
 H    1.515127   -3.708839    0.401275
 H   -5.719688   -1.252208   -0.127050
 H   -2.978057   -2.186356   -1.093995
