65 
1b32_ligand_xtb.xyz
 N    4.122164    3.851910   -0.430961
 C    3.760004    2.461557   -0.047040
 C    2.345538    2.294920   -0.665037
 O    1.759968    3.315517   -0.986392
 C    3.729403    2.365736    1.489626
 C    3.081225    1.110200    2.079441
 C    3.867341   -0.181109    1.835747
 C    3.177864   -1.396078    2.448156
 N    1.990662   -1.800112    1.654017
 N    1.893798    1.056178   -0.804266
 C    0.579202    0.725280   -1.320441
 C   -0.288493    0.217631   -0.156681
 O    0.179126    0.105851    0.969884
 C    0.692989   -0.282416   -2.478694
 C    0.998275   -1.720353   -2.074410
 S    2.698424   -1.947292   -1.398912
 C    3.041465   -3.647840   -1.906747
 N   -1.565248   -0.047429   -0.447074
 C   -2.454738   -0.670659    0.517227
 C   -1.931815   -2.080781    0.856966
 O   -2.819132   -2.796030    1.505922
 C   -3.910358   -0.692936    0.046756
 C   -4.623258    0.657279    0.174502
 C   -6.121276    0.507267   -0.123691
 C   -6.865077    1.826320    0.066061
 N   -8.333769    1.653206   -0.146893
 O   -0.813443   -2.446754    0.592502
 H    4.763086    3.915681   -1.228038
 H    4.503519    4.402423    0.345251
 H    3.158299    4.234803   -0.726259
 H    4.460882    1.742698   -0.474096
 H    4.754795    2.438373    1.856945
 H    3.167618    3.223374    1.866524
 H    3.025971    1.268460    3.157378
 H    2.058629    1.025094    1.716214
 H    4.031265   -0.365725    0.772651
 H    4.848263   -0.087313    2.302333
 H    2.863598   -1.172663    3.468426
 H    3.871989   -2.237062    2.477254
 H    1.283678   -1.031791    1.576222
 H    2.268971   -2.033292    0.661191
 H    1.525921   -2.612398    2.065776
 H    2.486463    0.273962   -0.567092
 H    0.145716    1.660883   -1.693419
 H    1.468601    0.075463   -3.159017
 H   -0.243466   -0.288044   -3.039092
 H    0.294591   -2.092625   -1.330017
 H    0.955684   -2.351576   -2.960698
 H    3.079757   -3.689188   -2.991495
 H    4.011134   -3.911177   -1.495773
 H    2.269853   -4.304384   -1.515846
 H   -1.886715    0.009465   -1.401588
 H   -2.373543   -0.109429    1.459375
 H   -2.498016   -3.680466    1.755020
 H   -3.950103   -1.041978   -0.987399
 H   -4.437152   -1.422572    0.662423
 H   -4.498701    1.031685    1.191453
 H   -4.183616    1.386462   -0.507197
 H   -6.248932    0.151959   -1.147891
 H   -6.534290   -0.245063    0.551127
 H   -6.502368    2.574609   -0.640599
 H   -6.710164    2.203010    1.078706
 H   -8.719666    0.972336    0.522643
 H   -8.833841    2.544316   -0.020412
 H   -8.527623    1.309292   -1.097942
