47 
1b39_ligand_dft.xyz
 P   -5.584306    0.155091   -0.166732
 O   -5.062019    1.340855   -0.888891
 O   -6.999447   -0.368516   -0.647287
 O   -5.775632    0.263056    1.385422
 P   -3.105192   -1.382867   -0.009342
 O   -2.848648   -1.934252    1.322527
 O   -2.571548   -2.135593   -1.282859
 O   -4.648574   -1.160013   -0.417672
 P   -2.421438    1.397617    0.730802
 O   -2.675429    2.558123   -0.311630
 O   -3.326321    1.284805    1.891066
 O   -2.453314    0.096610   -0.239724
 O   -0.901843    1.538603    1.141863
 C    0.178596    1.681420    0.212063
 C    0.374830    0.474159   -0.717798
 O    1.626372    0.684358   -1.386683
 C    0.487827   -0.867341    0.001166
 O    0.107056   -1.908242   -0.893442
 C    1.988644   -0.982874    0.257285
 O    2.341226   -2.325584    0.376110
 C    2.558588   -0.286023   -0.996301
 N    3.831374    0.369406   -0.734908
 C    4.247452    1.625937   -1.121795
 N    5.487071    1.888759   -0.804306
 C    5.921469    0.735740   -0.183727
 C    7.151279    0.363026    0.393857
 N    8.210138    1.189705    0.419737
 N    7.269053   -0.859737    0.938102
 C    6.213066   -1.674396    0.913803
 N    5.001638   -1.446909    0.404078
 C    4.914927   -0.218559   -0.134628
 H   -7.203291   -0.054118   -1.538476
 H   -4.964802    0.646473    1.810571
 H   -1.582730   -2.201185   -1.229437
 H   -3.566290    2.399828   -0.710725
 H    1.066569    1.810354    0.834001
 H    0.034922    2.585337   -0.385586
 H   -0.405993    0.433112   -1.478265
 H   -0.104990   -0.915433    0.919779
 H    0.645671   -2.678458   -0.639415
 H    2.261961   -0.400913    1.149420
 H    3.321471   -2.346550    0.462198
 H    2.699632   -1.024649   -1.795387
 H    3.571614    2.296283   -1.632029
 H    9.070868    0.874377    0.836830
 H    8.148745    2.108381    0.012188
 H    6.360657   -2.649263    1.370546
