67 
1b3g_ligand_xtb.xyz
 N   -3.309374    1.805657    1.896294
 C   -3.484656    0.457109    1.256806
 C   -2.587599    0.441828   -0.029654
 O   -3.067042    0.320288   -1.126288
 C   -4.959894    0.244231    0.916053
 C   -5.257735   -1.184991    0.448027
 C   -6.737281   -1.343132    0.076616
 C   -7.020807   -2.747459   -0.448303
 N   -8.455818   -2.903430   -0.832088
 N   -1.302483    0.683312    0.268036
 C   -0.239547    0.791080   -0.716789
 C    1.008975    0.238789   -0.018413
 O    0.974767   -0.021202    1.171509
 C   -0.005768    2.249888   -1.189894
 C    0.576752    3.172731   -0.106479
 C   -1.262793    2.828306   -1.834513
 C   -0.294676    3.432508    1.120374
 N    2.093579    0.067486   -0.788900
 C    3.362826   -0.368718   -0.247047
 C    4.392354    0.754047   -0.284644
 O    5.577850    0.568158   -0.100563
 C    3.897560   -1.641288   -0.942728
 C    4.150188   -2.808733    0.014930
 C    5.339648   -2.625833    0.962404
 C    6.697140   -2.657829    0.247145
 N    7.416209   -1.365766    0.422280
 O    3.876384    1.933037   -0.530181
 H   -3.609228    1.807138    2.880060
 H   -3.882887    2.495932    1.390977
 H   -2.316375    2.114162    1.837561
 H   -3.129479   -0.306358    1.954282
 H   -5.571844    0.467584    1.792714
 H   -5.230812    0.929029    0.109245
 H   -5.001073   -1.892984    1.236991
 H   -4.642740   -1.401248   -0.424849
 H   -6.985653   -0.607687   -0.690693
 H   -7.352333   -1.144200    0.956573
 H   -6.787650   -3.492219    0.314535
 H   -6.406926   -2.948155   -1.327960
 H   -8.711356   -2.227628   -1.565975
 H   -9.070510   -2.742856   -0.021645
 H   -8.640896   -3.850599   -1.190727
 H   -0.898517    0.431612    1.173989
 H   -0.496501    0.180059   -1.589373
 H    0.754327    2.188647   -1.975678
 H    1.533604    2.768508    0.227635
 H    0.779843    4.131221   -0.585721
 H   -1.629513    2.169239   -2.616243
 H   -1.033464    3.792172   -2.279310
 H   -2.064605    2.970890   -1.115435
 H    0.156582    4.225636    1.710948
 H   -1.285445    3.771506    0.824972
 H   -0.347573    2.548949    1.756818
 H    2.064917    0.327192   -1.763092
 H    3.164793   -0.580051    0.814774
 H    3.151483   -1.960168   -1.671169
 H    4.805269   -1.401070   -1.497957
 H    3.253066   -2.971370    0.613031
 H    4.310919   -3.710724   -0.576147
 H    5.234835   -1.684250    1.503394
 H    5.299639   -3.424340    1.701774
 H    6.559280   -2.825681   -0.821511
 H    7.323501   -3.462249    0.633042
 H    6.758468   -0.576955    0.181575
 H    8.249401   -1.312947   -0.173035
 H    7.713129   -1.247003    1.396873
 H    4.543735    2.642998   -0.543749
