74 
1b3h_ligand_xtb.xyz
 N   -2.162721   -3.095697   -0.321762
 C   -3.147074   -2.030400   -0.699700
 C   -2.382868   -0.735096   -0.282936
 O   -2.501052   -0.302107    0.833403
 C   -4.456963   -2.195374    0.067275
 C   -5.512540   -1.183605   -0.391210
 C   -6.816363   -1.339233    0.400709
 C   -7.848195   -0.306528   -0.043307
 N   -9.121872   -0.445595    0.724614
 N   -1.541634   -0.303223   -1.246789
 C   -0.230096    0.276650   -0.988470
 C    0.692302   -0.871493   -0.557212
 O    0.258543   -2.013145   -0.365169
 C   -0.256658    1.411888    0.043769
 C   -0.981896    2.653288   -0.499180
 C   -1.449286    3.556865    0.647322
 C   -0.285147    4.249320    1.349293
 C    0.526568    5.066266    0.349595
 C    1.041798    4.176137   -0.776489
 C   -0.116582    3.463258   -1.471437
 N    1.982172   -0.564686   -0.447776
 C    2.987863   -1.483769    0.040117
 C    3.412566   -1.142462    1.476265
 O    2.455999   -0.522539    2.145439
 C    4.224465   -1.582285   -0.861296
 C    5.034001   -0.278906   -0.962806
 C    6.544831   -0.540209   -1.055112
 C    7.140434   -0.768997    0.331558
 N    8.554466   -1.243373    0.243481
 O    4.492633   -1.420027    1.920995
 H   -1.148377   -2.700600   -0.415270
 H   -2.278293   -3.327912    0.671650
 H   -2.265071   -3.955614   -0.867989
 H   -3.316259   -2.068104   -1.777990
 H   -4.254300   -2.030396    1.128129
 H   -4.839612   -3.208556   -0.069730
 H   -5.716073   -1.321137   -1.454229
 H   -5.120394   -0.176416   -0.246620
 H   -7.209090   -2.346169    0.246637
 H   -6.599798   -1.213190    1.462988
 H   -8.073569   -0.428659   -1.104150
 H   -7.461501    0.701704    0.114483
 H   -8.953766   -0.319214    1.732618
 H   -9.812053    0.256624    0.423729
 H   -9.532702   -1.379189    0.583372
 H   -1.622780   -0.729915   -2.158328
 H    0.137368    0.673556   -1.941323
 H    0.764901    1.671557    0.314330
 H   -0.759278    1.063192    0.944288
 H   -1.872722    2.304742   -1.035437
 H   -2.025777    2.969105    1.364472
 H   -2.110304    4.320827    0.234631
 H   -0.674838    4.905482    2.127704
 H    0.355437    3.509566    1.834294
 H    1.363682    5.550118    0.853643
 H   -0.104548    5.849433   -0.072570
 H    1.579059    4.780326   -1.508519
 H    1.753033    3.451140   -0.369556
 H    0.265747    2.824748   -2.273147
 H   -0.750276    4.217854   -1.939004
 H    2.270590    0.389829   -0.607268
 H    2.503264   -2.468299    0.091440
 H    2.707294   -0.355434    3.070468
 H    3.917208   -1.907994   -1.854621
 H    4.842468   -2.370593   -0.431957
 H    4.849973    0.352101   -0.092077
 H    4.723938    0.276499   -1.847291
 H    7.026583    0.319023   -1.523300
 H    6.713628   -1.410255   -1.691882
 H    6.552730   -1.502214    0.887862
 H    7.131411    0.163546    0.897515
 H    9.133046   -0.557277   -0.260941
 H    8.606365   -2.137574   -0.262747
 H    8.954839   -1.377584    1.181472
