55 
1b3l_ligand_xtb.xyz
 N    1.782136   -0.716355    1.690059
 C    2.874754    0.143125    1.137324
 C    2.131184    0.903695    0.005865
 O    2.092200    0.468766   -1.115658
 C    4.027687   -0.698866    0.596412
 C    5.203422    0.186042    0.168268
 C    6.344840   -0.642027   -0.433279
 C    7.499873    0.260944   -0.856216
 N    8.618933   -0.528323   -1.453172
 N    1.432032    1.976788    0.446306
 C    0.115138    2.198100   -0.113873
 C   -0.801959    1.162407    0.548324
 O   -0.481099    0.662675    1.626903
 N   -1.914412    0.822442   -0.100609
 C   -2.704947   -0.321601    0.315652
 C   -1.865825   -1.604712    0.143481
 O   -2.613558   -2.683729    0.071280
 C   -4.054423   -0.374214   -0.401531
 C   -4.986146    0.749213    0.062627
 C   -6.314176    0.810776   -0.703124
 C   -7.255394   -0.340932   -0.357296
 N   -8.612743   -0.105949   -0.937223
 O   -0.660504   -1.606455    0.131614
 H    1.495353   -1.417994    0.989920
 H    2.050931   -1.193366    2.555552
 H    0.888831   -0.136858    1.850141
 H    3.217214    0.823185    1.921086
 H    3.668981   -1.254869   -0.272410
 H    4.360902   -1.405901    1.358106
 H    4.851267    0.904372   -0.572693
 H    5.575325    0.741494    1.030541
 H    5.964929   -1.189121   -1.297823
 H    6.690650   -1.365441    0.307614
 H    7.157761    0.985154   -1.597454
 H    7.888320    0.805899    0.005874
 H    8.298939   -1.037993   -2.288586
 H    9.396134    0.087265   -1.730560
 H    8.980230   -1.215762   -0.777066
 H    1.533263    2.268618    1.408500
 H    0.163198    2.049559   -1.193605
 H   -0.221542    3.212588    0.104252
 H   -2.088046    1.197839   -1.021536
 H   -2.861268   -0.237929    1.401491
 H   -2.091727   -3.502511    0.004804
 H   -4.500795   -1.345051   -0.191061
 H   -3.888176   -0.303365   -1.478721
 H   -4.482963    1.707570   -0.070584
 H   -5.190124    0.633866    1.127949
 H   -6.798894    1.753513   -0.442053
 H   -6.111943    0.819328   -1.775477
 H   -6.877311   -1.285347   -0.749997
 H   -7.359090   -0.427965    0.725737
 H   -9.017794    0.764912   -0.564836
 H   -8.561036   -0.018384   -1.961775
 H   -9.253608   -0.879287   -0.711776
