18 
1b42_ligand_dft.xyz
 N   -2.442570   -0.851270    0.001140
 C   -2.728542    0.480522    0.001704
 N   -1.716814    1.352072   -0.001086
 C   -0.651242    0.503648   -0.010493
 C    0.699903    0.764963    0.003795
 N    1.224253    2.026147   -0.057750
 N    1.528015   -0.326756    0.006741
 C    0.995548   -1.608505    0.015817
 N   -0.257694   -1.912499    0.007972
 C   -1.110955   -0.846380   -0.007479
 C    2.973238   -0.142423   -0.024235
 H   -3.758550    0.820401    0.007419
 H    0.505923    2.735639    0.029340
 H    2.063354    2.228360    0.466501
 H    1.742352   -2.397151    0.030448
 H    3.243318    0.530365   -0.842354
 H    3.338532    0.265612    0.924357
 H    3.451048   -1.108041   -0.189493
