62 
1b46_ligand_dft.xyz
 N    5.128816   -0.058889   -2.085658
 C    4.533967   -0.284792   -0.720806
 C    3.189101   -0.972171   -1.023685
 O    2.678628   -0.751737   -2.123299
 C    4.302419    1.050931    0.011292
 C    3.412564    2.060383   -0.730605
 C    3.095746    3.307942    0.112321
 C    2.052538    3.135541    1.214014
 N    0.680266    2.889968    0.651558
 N    2.614023   -1.692157   -0.058663
 C    1.234865   -2.135124   -0.223788
 C    0.300222   -0.921374   -0.118180
 O    0.721054    0.192100    0.209718
 C    1.044386   -3.131173    0.938028
 C    1.971385   -2.579665    2.025789
 C    3.190678   -2.092733    1.240669
 N   -1.001288   -1.151886   -0.359891
 C   -2.012401   -0.111413   -0.225286
 C   -1.925895    0.537867    1.158879
 O   -1.802004    1.730058    1.338155
 C   -3.404508   -0.717687   -0.476346
 C   -4.544013    0.308314   -0.427655
 C   -5.902895   -0.353197   -0.712712
 C   -7.033168    0.670912   -0.673851
 N   -8.373235    0.021056   -0.954405
 O   -2.037971   -0.357017    2.134787
 H    4.305597   -0.000389   -2.725729
 H    5.702401    0.786818   -2.149145
 H    5.702910   -0.849701   -2.396128
 H    5.223022   -0.914391   -0.155065
 H    3.853235    0.794380    0.976214
 H    5.276687    1.500441    0.239546
 H    3.918246    2.409580   -1.638890
 H    2.492391    1.571580   -1.067281
 H    2.776191    4.120229   -0.551671
 H    4.008436    3.673733    0.595731
 H    1.992421    4.039525    1.822865
 H    2.262645    2.290487    1.873081
 H    0.599678    1.929347    0.259006
 H    0.438194    3.576435   -0.067870
 H   -0.058873    2.929048    1.364206
 H    1.100031   -2.598464   -1.206012
 H    1.370784   -4.123428    0.614164
 H    0.005917   -3.208492    1.267324
 H    1.496904   -1.738065    2.540661
 H    2.239724   -3.327950    2.772567
 H    3.690121   -1.255821    1.734311
 H    3.917745   -2.897341    1.088048
 H   -1.302863   -2.088586   -0.593673
 H   -1.812746    0.685584   -0.948732
 H   -3.580358   -1.506564    0.264921
 H   -3.384984   -1.190305   -1.465962
 H   -4.576954    0.791218    0.556784
 H   -4.358235    1.099637   -1.164114
 H   -5.873619   -0.835586   -1.698082
 H   -6.088030   -1.138597    0.031266
 H   -7.126949    1.145311    0.305575
 H   -6.910352    1.449045   -1.430596
 H   -9.137651    0.706624   -0.927002
 H   -8.595487   -0.706856   -0.265657
 H   -8.396534   -0.419927   -1.881054
 H   -2.017326    0.102197    2.992465
