35 
1b4d_ligand_dft.xyz
 N    0.400569    0.385709    2.571374
 C    0.015237    1.270816   -0.207690
 O    0.744129    2.220923    0.542594
 C   -2.381807    0.672889   -0.747934
 C   -2.057573   -0.729831   -0.257317
 C   -2.823025   -1.853410   -0.927378
 C    0.248262   -0.215774    0.174151
 C   -1.455777    1.640337   -0.028045
 O   -1.699741    2.931351   -0.538744
 O   -3.729080    0.958429   -0.461828
 O   -0.678858   -0.990619   -0.543543
 N    1.521863   -0.745401   -0.288566
 O   -2.533636   -3.087295   -0.317356
 C    2.712764   -0.120610   -0.444808
 O    2.939938    1.080218   -0.358222
 C    4.965728   -0.488943   -0.963522
 O    3.659189   -1.020155   -0.743186
 C    0.151368   -0.600799    1.687926
 O   -0.079767   -1.760170    1.984747
 H    0.603623    1.324520    2.243043
 H    0.411408    0.156254    3.553898
 H    0.263225    1.353606   -1.274236
 H    1.678913    2.099923    0.269989
 H   -2.182248    0.731707   -1.830116
 H   -2.237084   -0.795537    0.824360
 H   -3.894949   -1.669695   -0.822267
 H   -2.575072   -1.858023   -2.001390
 H   -1.699444    1.600723    1.046371
 H   -1.040759    3.514074   -0.136607
 H   -3.848584    1.903747   -0.625418
 H    1.546220   -1.757112   -0.294941
 H   -1.591439   -3.075791   -0.098515
 H    5.339889   -0.001009   -0.060725
 H    4.956090    0.230010   -1.785437
 H    5.584736   -1.349062   -1.215673
