64 
1b4h_ligand_dft.xyz
 N   -5.060722   -1.663785    1.231939
 C   -4.142778   -0.877027    0.326874
 C   -2.742884   -1.156648    0.949329
 O   -2.710659   -1.508596    2.122759
 C   -4.516488    0.618095    0.346475
 C   -5.874030    0.935278   -0.311110
 C   -6.223765    2.435300   -0.249673
 C   -7.588096    2.695351   -0.893117
 N   -7.976514    4.156874   -0.824093
 N   -1.644647   -1.013632    0.189910
 C   -0.314829   -1.228988    0.763926
 C    0.719502   -0.616496   -0.183309
 O    0.539060   -0.681464   -1.401564
 C    0.016812   -2.729077    0.985860
 C   -0.202271   -3.689520   -0.182759
 N    0.743122   -3.482671   -1.334226
 N    1.832785   -0.122767    0.383492
 C    3.044718    0.150569   -0.380487
 C    3.564869   -1.170974   -0.960904
 O    4.545761   -0.979517   -1.822491
 C    4.079796    0.853991    0.531908
 C    5.273683    1.485325   -0.200916
 C    6.242992    2.172400    0.777331
 C    7.429970    2.769246    0.023560
 N    8.419225    3.423068    0.966392
 O    3.125671   -2.264192   -0.662036
 H   -4.541068   -1.739799    2.137444
 H   -5.969922   -1.220544    1.386739
 H   -5.235873   -2.617404    0.897833
 H   -4.231053   -1.289609   -0.681856
 H   -3.721945    1.154585   -0.184191
 H   -4.488698    0.974571    1.384431
 H   -5.856955    0.603932   -1.356586
 H   -6.686955    0.379537    0.177347
 H   -5.449103    3.013520   -0.768145
 H   -6.236159    2.765982    0.796501
 H   -7.599355    2.430095   -1.952829
 H   -8.389507    2.149831   -0.389139
 H   -7.310161    4.760724   -1.319794
 H   -8.897528    4.315451   -1.253645
 H   -8.037793    4.498095    0.142751
 H   -1.680587   -0.727698   -0.782879
 H   -0.289040   -0.745019    1.745090
 H    1.050026   -2.805830    1.342335
 H   -0.618179   -3.088677    1.800824
 H   -1.210735   -3.610587   -0.594552
 H   -0.055505   -4.713466    0.165201
 H    1.728291   -3.418901   -1.024026
 H    0.560615   -2.574384   -1.792304
 H    0.662190   -4.235162   -2.024789
 H    1.917862   -0.151431    1.391486
 H    2.788665    0.799423   -1.224704
 H    4.862178   -1.835840   -2.162895
 H    4.437302    0.137465    1.283255
 H    3.538494    1.641835    1.069560
 H    4.905463    2.217404   -0.929815
 H    5.814304    0.721040   -0.765986
 H    5.718787    2.961930    1.330985
 H    6.602004    1.439635    1.511580
 H    7.992314    2.008296   -0.522237
 H    7.122041    3.546382   -0.679428
 H    9.216707    3.821859    0.455542
 H    8.801984    2.754167    1.644660
 H    7.992297    4.188184    1.501060
