64 
1b4h_ligand_xtb.xyz
 N   -4.999328   -1.408820    1.590627
 C   -4.148194   -0.829441    0.518403
 C   -2.705070   -1.168721    1.022562
 O   -2.632880   -1.638730    2.148089
 C   -4.419301    0.673305    0.364197
 C   -5.802314    0.949600   -0.250816
 C   -6.126813    2.449807   -0.323442
 C   -7.511034    2.668465   -0.938893
 N   -7.880266    4.112264   -1.002198
 N   -1.650883   -0.998856    0.232779
 C   -0.314768   -1.339082    0.718408
 C    0.746818   -0.670706   -0.166785
 O    0.551165   -0.584615   -1.372835
 C   -0.070411   -2.869378    0.709967
 C   -0.376100   -3.600029   -0.596408
 N    0.570418   -3.254495   -1.687878
 N    1.860259   -0.277191    0.454457
 C    3.096194    0.010810   -0.262107
 C    3.650495   -1.332806   -0.771352
 O    4.886416   -1.279731   -1.178693
 C    4.082400    0.788800    0.623128
 C    5.149608    1.545730   -0.177915
 C    6.173379    2.225034    0.742366
 C    7.243765    2.939680   -0.080307
 N    8.280308    3.572385    0.788671
 O    2.959564   -2.328238   -0.792335
 H   -4.235037   -1.702973    2.311312
 H   -5.626712   -0.729183    2.029734
 H   -5.538863   -2.235057    1.317694
 H   -4.332021   -1.339905   -0.430662
 H   -3.653146    1.110187   -0.277158
 H   -4.338207    1.154771    1.341207
 H   -5.834348    0.531435   -1.258055
 H   -6.583982    0.460774    0.333451
 H   -5.368869    2.953171   -0.925776
 H   -6.098495    2.872691    0.682711
 H   -7.536687    2.267360   -1.954025
 H   -8.271187    2.153208   -0.348160
 H   -7.211998    4.646243   -1.575968
 H   -8.815044    4.227501   -1.422199
 H   -7.906664    4.535157   -0.063056
 H   -1.701883   -0.604028   -0.698241
 H   -0.239057   -0.998777    1.756180
 H    0.967686   -3.050764    0.990934
 H   -0.698340   -3.308339    1.486770
 H   -1.389705   -3.383216   -0.938435
 H   -0.304318   -4.672390   -0.403391
 H    1.553714   -3.321756   -1.355622
 H    0.452274   -2.251315   -1.960176
 H    0.445771   -3.864101   -2.502172
 H    1.953271   -0.428447    1.449402
 H    2.839203    0.597783   -1.153972
 H    5.227289   -2.131304   -1.510662
 H    4.568034    0.097068    1.314212
 H    3.508329    1.507536    1.211193
 H    4.664691    2.300304   -0.798479
 H    5.671326    0.852147   -0.835111
 H    5.660698    2.939901    1.388577
 H    6.639913    1.466681    1.373880
 H    7.742800    2.229557   -0.742140
 H    6.789606    3.720311   -0.693063
 H    8.991745    4.052515    0.218873
 H    8.759994    2.865531    1.364016
 H    7.858604    4.266818    1.421341
