78 
1b5g_ligand_dft.xyz
 C   -0.053210    1.730629   -0.253506
 O   -0.387291    1.042501    0.705655
 C   -0.929772    2.908542   -0.719741
 C   -0.794478    4.120119    0.229738
 C   -1.924618    3.924846    1.249986
 C   -3.058503    3.367147    0.391269
 C   -4.171743    2.611897    1.105594
 C   -4.899511    1.663187    0.145987
 C   -3.910606    0.657173   -0.451151
 C   -2.742985    1.378371   -1.137504
 O   -2.151447    0.881050   -2.091336
 N   -2.326429    2.516724   -0.559640
 N   -4.582655   -0.196440   -1.486660
 C   -3.304304   -0.318668    0.600413
 C   -4.345391   -1.169939    1.288996
 C   -4.991255   -0.729692    2.448691
 C   -5.977758   -1.502516    3.052339
 C   -6.333604   -2.732970    2.505788
 C   -5.686202   -3.191134    1.362757
 C   -4.697017   -2.417011    0.760623
 N    1.081958    1.532898   -0.952224
 C    2.131235    0.612149   -0.534771
 C    3.374287    1.476115   -0.226661
 O    3.722595    2.188760   -1.384947
 C    2.415610   -0.458405   -1.603208
 C    1.552646   -1.721078   -1.509492
 C    0.068172   -1.484313   -1.762481
 N   -0.648075   -2.757746   -1.801060
 C   -1.990480   -2.833099   -1.999136
 N   -2.595939   -4.026898   -1.674594
 N   -2.723373   -1.851743   -2.437990
 C    4.543367    0.655676    0.255609
 N    5.633887    0.606303   -0.428897
 C    6.573360   -0.211133    0.186210
 C    7.860374   -0.468228   -0.294678
 C    8.685485   -1.306220    0.436057
 C    8.244987   -1.888162    1.634373
 C    6.971281   -1.644381    2.125878
 C    6.142510   -0.800685    1.387952
 S    4.505531   -0.287787    1.730307
 H   -0.709750    3.166296   -1.759763
 H    0.193539    4.169208    0.693044
 H   -0.943971    5.045267   -0.335270
 H   -2.200453    4.850905    1.759189
 H   -1.632562    3.179414    1.996345
 H   -3.508478    4.187005   -0.188588
 H   -4.883020    3.331116    1.521197
 H   -3.757034    2.052242    1.949083
 H   -5.363840    2.243536   -0.663303
 H   -5.701792    1.133550    0.670340
 H   -3.899560   -0.990523   -1.875660
 H   -4.904731    0.354192   -2.284777
 H   -5.388832   -0.666428   -1.065088
 H   -2.582658   -0.951916    0.077724
 H   -2.719830    0.268029    1.310913
 H   -4.708711    0.219120    2.897347
 H   -6.463161   -1.146817    3.955689
 H   -7.101300   -3.337461    2.978097
 H   -5.939111   -4.160746    0.944834
 H   -4.162508   -2.804984   -0.104011
 H    1.326045    2.161904   -1.706404
 H    1.777255    0.145995    0.390362
 H    3.092347    2.188400    0.562687
 H    4.632339    1.929899   -1.613476
 H    2.317178   -0.005795   -2.596268
 H    3.461906   -0.769591   -1.518304
 H    1.922734   -2.444087   -2.246931
 H    1.688025   -2.175796   -0.518196
 H   -0.055014   -0.971837   -2.723373
 H   -0.357572   -0.838510   -0.986115
 H   -0.184738   -3.549473   -1.380289
 H   -3.447147   -4.197803   -2.190879
 H   -2.012337   -4.846485   -1.587080
 H   -2.155746   -1.037160   -2.655061
 H    8.189014   -0.008456   -1.220340
 H    9.688913   -1.514520    0.079620
 H    8.912375   -2.538581    2.190340
 H    6.635954   -2.093986    3.054340
