61 
1b5h_ligand_xtb.xyz
 N   -3.522725    0.373652    2.138702
 C   -3.393483   -0.235306    0.785569
 C   -2.237406    0.572066    0.129633
 O   -1.984014    1.662846    0.630674
 C   -4.705151   -0.087769   -0.004495
 C   -5.832234   -0.999391    0.508993
 C   -7.111756   -0.847557   -0.329999
 C   -8.222755   -1.761807    0.192525
 N   -9.473000   -1.638489   -0.611040
 N   -1.665674    0.056714   -0.956415
 C   -0.364040    0.458045   -1.488567
 C    0.714500    0.096836   -0.408813
 O    0.365228   -0.079877    0.735301
 C   -0.267817    1.945907   -1.875141
 N    0.012798    2.822372   -0.716706
 N    1.970652    0.021695   -0.868495
 C    3.108066    0.006627    0.042271
 C    3.241688    1.422930    0.621079
 O    4.256789    1.582259    1.415428
 C    4.379565   -0.484927   -0.670276
 C    5.471823   -0.958337    0.296351
 C    6.729059   -1.424404   -0.451609
 C    7.813563   -1.851561    0.536042
 N    9.055378   -2.298268   -0.162465
 O    2.442031    2.297106    0.347438
 H   -4.495730    0.529613    2.423701
 H   -3.043248   -0.161004    2.873012
 H   -3.023402    1.302661    2.035279
 H   -3.117971   -1.289204    0.872317
 H   -5.025428    0.955965    0.026243
 H   -4.510040   -0.334046   -1.049192
 H   -6.074557   -0.769297    1.548319
 H   -5.502642   -2.038603    0.467803
 H   -6.888331   -1.097557   -1.368573
 H   -7.442546    0.192189   -0.294018
 H   -7.898500   -2.803909    0.157283
 H   -8.462043   -1.512086    1.228238
 H   -9.314441   -1.895249   -1.596189
 H  -10.204826   -2.263433   -0.240202
 H   -9.843514   -0.677234   -0.586908
 H   -1.958891   -0.867883   -1.240456
 H   -0.204620   -0.136806   -2.390394
 H   -1.208771    2.253016   -2.339080
 H    0.526205    2.070714   -2.613444
 H   -0.705113    2.620914    0.021228
 H    0.968897    2.641399   -0.305369
 H   -0.032382    3.811613   -0.980059
 H    2.176582    0.197948   -1.840873
 H    2.863186   -0.658371    0.880013
 H    4.322980    2.479629    1.793768
 H    4.094002   -1.319392   -1.313893
 H    4.771653    0.313416   -1.304008
 H    5.739139   -0.146721    0.971426
 H    5.084909   -1.782175    0.897224
 H    6.470765   -2.260426   -1.104234
 H    7.098290   -0.606609   -1.073315
 H    8.073079   -1.017730    1.190816
 H    7.455431   -2.676182    1.154856
 H    9.777704   -2.575240    0.518018
 H    9.443166   -1.542994   -0.745518
 H    8.866986   -3.107454   -0.770986
