65 
1bgo_ligand_xtb.xyz
 C   -2.168068    2.066884    2.838325
 C   -1.263787    1.514058    1.950155
 C   -1.091536    2.068822    0.682682
 C   -0.151852    1.469122   -0.276973
 C    1.051650    0.914619    0.156252
 C    1.923193    0.298099   -0.734345
 C    1.588596    0.250188   -2.080757
 C    0.407089    0.814852   -2.527189
 C   -0.459718    1.415648   -1.635884
 C    3.209936   -0.308408   -0.228006
 C    2.887695   -1.201065    0.967394
 C    4.218913    0.772477    0.182323
 C    5.418657    2.885717   -0.393107
 C    5.450910    0.988047   -2.018900
 N    2.102524   -2.256167    0.658025
 C    1.551169   -3.107214    1.690028
 C    0.319860   -2.497421    2.389701
 C   -0.912103   -2.445510    1.473003
 C   -1.841832    3.190643    0.335574
 C   -2.743094    3.741187    1.227336
 C   -2.912286    3.179157    2.481723
 O    3.299453   -0.999683    2.096683
 C    4.623188    1.710264   -0.958299
 O    0.572995   -1.187858    2.842606
 N   -0.563286   -1.849441    0.204604
 S   -1.506603   -2.141793   -1.112474
 O   -2.086564   -3.444187   -0.966524
 O   -0.702676   -1.895944   -2.276572
 C   -2.798854   -0.880585   -1.075744
 N   -3.125292   -0.448258    0.124087
 C   -4.045995    0.499284    0.208955
 C   -4.663709    1.049094   -0.904732
 C   -4.309421    0.581241   -2.161866
 C   -3.348136   -0.415144   -2.254525
 H   -2.291943    1.623902    3.815625
 H   -0.700889    0.641600    2.245112
 H    1.315167    0.972954    1.202227
 H    2.249078   -0.231622   -2.785549
 H    0.157039    0.771599   -3.575565
 H   -1.392977    1.829430   -1.989718
 H    3.641687   -0.940429   -1.009520
 H    3.777177    1.359623    0.989467
 H    5.106958    0.282996    0.587207
 H    5.703422    3.572251   -1.187152
 H    4.828558    3.433674    0.337619
 H    6.324032    2.530072    0.094144
 H    5.770100    1.687686   -2.788285
 H    6.337989    0.545401   -1.570172
 H    4.878156    0.200468   -2.501009
 H    1.637916   -2.278552   -0.237802
 H    1.280532   -4.066728    1.249267
 H    2.337862   -3.257485    2.436957
 H    0.070681   -3.139545    3.252480
 H   -1.273445   -3.450121    1.253003
 H   -1.701661   -1.879104    1.980082
 H   -1.700392    3.649837   -0.632170
 H   -3.311416    4.615834    0.944871
 H   -3.617048    3.609659    3.178178
 H    3.713103    2.100651   -1.428068
 H    1.524240   -1.091235    3.012632
 H   -0.302232   -0.874145    0.274096
 H   -4.282394    0.831369    1.209861
 H   -5.401564    1.827196   -0.789165
 H   -4.768811    0.986779   -3.051411
 H   -3.009364   -0.821213   -3.192939
