85 
1bhf_ligand_xtb.xyz
 C   -5.607080   -1.385645   -1.070227
 O   -5.060727   -1.348013   -2.158695
 C   -6.844788   -2.205934   -0.796122
 N   -5.176028   -0.675380   -0.006217
 C   -3.943716    0.083298   -0.012379
 C   -4.121788    1.430833    0.704291
 C   -2.957930    2.331522    0.404116
 C   -2.857013    2.935039   -0.843233
 C   -1.792652    3.763363   -1.143146
 C   -1.958261    2.558379    1.340578
 C   -0.902237    3.402489    1.047323
 C   -0.813103    4.020767   -0.194338
 C    0.343842    4.936106   -0.508694
 C    1.594574    4.079909   -0.542249
 O    2.029271    3.821507    0.670300
 O    2.093329    3.669838   -1.564985
 C   -2.873156   -0.753779    0.689968
 O   -3.126604   -1.373368    1.715005
 N   -1.661479   -0.758367    0.109572
 C   -0.745310   -1.868256    0.263253
 C    0.637896   -1.486054    0.785639
 O    1.548925   -2.295588    0.723892
 C   -0.620998   -2.698818   -1.026974
 C   -0.452173   -1.853163   -2.299359
 C   -1.790347   -1.271382   -2.703683
 O   -2.650500   -2.191041   -3.095734
 O   -2.073058   -0.097209   -2.610467
 N    0.722570   -0.277917    1.361547
 C    1.844616    0.215102    2.154997
 C    3.039653    0.502386    1.231683
 O    3.457079    1.646115    1.083310
 C    2.171693   -0.739050    3.309677
 C    1.009540   -0.815666    4.309761
 C   -0.198237   -1.480405    3.679174
 O   -1.221897   -0.642517    3.534130
 O   -0.236285   -2.631950    3.333992
 N    3.552137   -0.545315    0.583871
 C    4.235103   -0.302656   -0.679578
 C    3.311126    0.670097   -1.431113
 O    2.120806    0.476388   -1.510181
 C    4.426174   -1.621396   -1.435858
 C    5.398601   -2.527580   -0.671258
 C    4.913573   -1.337207   -2.854478
 C    5.288853   -3.988854   -1.089684
 O    3.929002    1.733255   -1.884001
 H   -7.621626   -1.587346   -0.353729
 H   -6.601645   -3.010351   -0.104525
 H   -7.206623   -2.634858   -1.725904
 H   -5.571768   -0.863154    0.903051
 H   -3.671142    0.249194   -1.059051
 H   -4.212037    1.258337    1.779003
 H   -5.045655    1.888670    0.344206
 H   -3.618569    2.754639   -1.586640
 H   -1.728613    4.219762   -2.119145
 H   -2.015518    2.084628    2.311274
 H   -0.138661    3.588988    1.787814
 H    0.204151    5.415401   -1.476122
 H    0.454360    5.685114    0.276121
 H    2.730037    3.119866    0.730786
 H   -1.521573   -0.171138   -0.704939
 H   -1.153896   -2.520522    1.050589
 H    0.251738   -3.340392   -0.897923
 H   -1.500537   -3.334460   -1.141416
 H   -0.109468   -2.505000   -3.103249
 H    0.274303   -1.052372   -2.147285
 H   -3.564650   -1.826439   -3.128453
 H   -0.085960    0.323249    1.290241
 H    1.535012    1.181576    2.566064
 H    2.369691   -1.738171    2.920955
 H    3.065913   -0.376683    3.818401
 H    1.318891   -1.425076    5.159908
 H    0.730050    0.178632    4.658276
 H   -1.975661   -1.075029    3.059567
 H    3.038792   -1.430005    0.656581
 H    5.193219    0.195943   -0.502473
 H    3.447944   -2.112431   -1.486663
 H    6.418730   -2.172967   -0.832772
 H    5.186846   -2.456134    0.396897
 H    5.080688   -2.266236   -3.392072
 H    4.177688   -0.755215   -3.404219
 H    5.845513   -0.776733   -2.831243
 H    4.279212   -4.354475   -0.918192
 H    5.977024   -4.598366   -0.509031
 H    5.528959   -4.117628   -2.141909
 H    3.280981    2.456051   -2.085231
