98 
1bil_ligand_dft.xyz
 C    4.935459   -3.695475   -3.112989
 C    4.453696   -1.279746   -2.919708
 C    3.747001   -2.878216   -1.162317
 O    3.652417   -4.004322   -0.700890
 N    4.429009   -2.597646   -2.311066
 N    2.179501   -2.062550    0.567139
 C    0.972305   -2.486389    0.101641
 O    0.756070   -2.524386   -1.109908
 C    3.122011   -1.667723   -0.455749
 C    2.618362   -2.002077    1.969850
 C    3.831810   -2.897252    2.218018
 C    2.793618   -0.547968    2.399247
 C    1.650900    0.208128    2.678805
 C    4.042696    0.064876    2.499956
 C    1.756121    1.539385    3.060419
 C    4.150242    1.405860    2.867875
 C    3.008065    2.144883    3.154388
 C   -1.346815   -0.751275    0.617607
 O   -1.498854   -0.114396    1.657051
 C   -1.486065   -2.273586    0.579270
 C   -0.150733   -2.872157    1.061461
 C   -2.652585   -2.707169    1.467095
 C   -4.003242   -2.465174    0.846515
 C   -5.104549   -3.211119    1.105490
 S   -6.482452   -2.570996    0.257949
 C   -5.436946   -1.338191   -0.417324
 N   -4.190545   -1.407981   -0.030608
 N   -5.929601   -0.367472   -1.239213
 C   -1.350278    1.910267   -1.791670
 C   -0.563452    1.197068   -0.683234
 C    0.950685    1.193078   -0.915848
 C    1.649734    2.544518   -1.087943
 C    1.285164    3.556287    0.006487
 C    2.094342    4.851399   -0.101848
 C    3.599254    4.574306   -0.099225
 C    3.971527    3.604615   -1.222973
 C    3.168716    2.307888   -1.108363
 N   -1.005898   -0.186060   -0.564810
 O   -1.020692    1.379467   -3.060297
 C   -2.884407    1.854231   -1.622031
 C   -3.414346    2.175581   -0.226476
 C   -3.006535    3.540151    0.347456
 C   -3.450481    4.706579   -0.539165
 C   -3.565859    3.683173    1.764666
 O   -3.354039    0.575418   -2.063203
 H    5.999004   -3.546555   -3.331700
 H    4.804233   -4.619473   -2.551998
 H    4.387500   -3.768791   -4.060797
 H    4.611167   -0.496412   -2.174230
 H    5.291763   -1.237205   -3.620118
 H    3.530461   -1.060276   -3.473077
 H    3.904048   -1.053480    0.002480
 H    2.600753   -1.042752   -1.181690
 H    1.805413   -2.410978    2.568341
 H    4.106431   -2.856024    3.276655
 H    3.594868   -3.924274    1.936665
 H    4.703322   -2.598927    1.628115
 H    0.661970   -0.234457    2.588446
 H    4.948087   -0.501575    2.301819
 H    0.853376    2.103143    3.276345
 H    5.130583    1.867753    2.939549
 H    3.091255    3.187936    3.445730
 H   -1.652400   -2.604325   -0.448928
 H    0.017143   -2.559373    2.093348
 H   -0.219652   -3.966157    1.055095
 H   -2.580344   -2.150540    2.409109
 H   -2.562008   -3.772017    1.708185
 H   -5.193018   -4.079227    1.742180
 H   -6.767975   -0.581706   -1.756871
 H   -5.210960    0.145446   -1.751230
 H   -1.046329    2.964580   -1.794951
 H   -0.784799    1.663110    0.279892
 H    1.396504    0.674723   -0.056786
 H    1.151008    0.583553   -1.806379
 H    1.360184    2.971329   -2.060094
 H    0.215019    3.793266   -0.035709
 H    1.466224    3.093423    0.984528
 H    1.828214    5.527178    0.719528
 H    1.827305    5.369291   -1.034291
 H    3.882693    4.129393    0.865328
 H    4.159638    5.511264   -0.198853
 H    5.045894    3.386074   -1.198507
 H    3.767033    4.078752   -2.193347
 H    3.419677    1.629399   -1.935071
 H    3.451647    1.794618   -0.176020
 H   -0.693633   -0.823814   -1.288796
 H   -1.708764    0.716524   -3.233745
 H   -3.301866    2.554889   -2.353027
 H   -3.098832    1.389281    0.469933
 H   -4.510896    2.122362   -0.271791
 H   -1.911235    3.575006    0.425792
 H   -4.536206    4.680804   -0.696426
 H   -2.968176    4.684444   -1.522721
 H   -3.203080    5.666389   -0.072713
 H   -4.662690    3.659879    1.752340
 H   -3.218834    2.865157    2.404958
 H   -3.254803    4.630666    2.218526
 H   -3.175655   -0.070170   -1.348632
