33 
1bju_ligand_dft.xyz
 N   -6.665031   -1.637398   -0.558826
 N   -7.178776    0.392192    0.577224
 C   -6.321594   -0.533655   -0.010956
 C   -4.886130   -0.133720   -0.025805
 C   -3.900862   -1.114988   -0.149149
 C   -2.551068   -0.795704   -0.164991
 C   -2.158736    0.543957   -0.061578
 C   -3.138793    1.535759    0.047546
 C   -4.484547    1.200220    0.064780
 N   -0.818704    0.970419   -0.087376
 C    0.320997    0.188211   -0.026623
 O    0.312764   -1.023581    0.080701
 N    1.475120    0.950272   -0.101023
 C    2.806475    0.500464   -0.051624
 C    3.808528    1.453735   -0.264868
 C    5.149862    1.102569   -0.219952
 C    5.498639   -0.216763    0.040765
 C    4.515852   -1.174169    0.254327
 C    3.170948   -0.823985    0.210668
Cl    7.186854   -0.671233    0.098628
 H   -7.667163   -1.807923   -0.452592
 H   -8.120327    0.063044    0.742666
 H   -6.802735    0.901880    1.365030
 H   -4.213187   -2.150009   -0.237064
 H   -1.802862   -1.570427   -0.248373
 H   -2.848512    2.582477    0.110497
 H   -5.224889    1.992966    0.116490
 H   -0.701014    1.971299   -0.041798
 H    1.374958    1.931346   -0.312861
 H    3.541339    2.488036   -0.469645
 H    5.917484    1.849935   -0.387320
 H    4.795674   -2.202331    0.456446
 H    2.406908   -1.570662    0.371020
