80 
1bkm_ligand_dft.xyz
 C    6.322386   -2.146898   -2.366859
 C    5.295982   -3.189174   -1.911870
 C    3.877084   -2.608282   -1.913516
 C    3.757680   -1.320841   -1.078107
 C    4.804876   -0.298606   -1.553688
 C    6.228585   -0.865069   -1.532441
 C    3.838940   -1.629769    0.426181
 C    3.667807   -0.427522    1.361757
 C    2.425021    0.421431    1.050307
 C    2.237162    1.486954    2.138544
 C    0.299460   -0.341284    0.058445
 C   -0.725629   -1.468063    0.122356
 C   -0.126787   -2.766419   -0.484006
 C   -0.450830   -4.009011    0.339665
 C    0.257138   -4.032604    1.668705
 C   -3.138543   -1.478375   -0.145846
 C   -4.342902   -0.639780   -0.551379
 C   -4.589541    0.459535    0.519272
 C   -3.440485    1.429506    0.614885
 C   -2.481366    1.327663    1.625977
 C   -1.356172    2.144365    1.638640
 C   -1.191877    3.076372    0.620359
 C   -2.144956    3.226851   -0.382211
 C   -3.259161    2.394588   -0.377521
 C   -6.588758   -1.162376   -1.355319
 C   -7.707898   -2.184189   -1.384915
 N    2.871700    2.663360    1.899141
 N    1.251066   -0.422223    0.987966
 N   -1.931433   -1.019151   -0.539253
 N   -5.471846   -1.527251   -0.671530
 O    1.628277    1.236584    3.165716
 O    0.234035    0.513778   -0.836872
 O    0.110987   -5.203888    2.297264
 O    0.891412   -3.119885    2.163337
 O   -3.278663   -2.482941    0.548952
 O   -6.680620   -0.079600   -1.916496
 O   -0.052741    3.869706    0.670001
 O    1.569853    2.789378   -0.967942
 O    2.051649    4.978569    0.016915
 O    0.155867    4.866990   -1.743613
 P    0.840427    4.158897   -0.649055
 H    7.334613   -2.564010   -2.313505
 H    6.137153   -1.899768   -3.421928
 H    5.335629   -4.068336   -2.565533
 H    5.556311   -3.541821   -0.905085
 H    3.161498   -3.358028   -1.549986
 H    3.592701   -2.380285   -2.949935
 H    2.764536   -0.895926   -1.278917
 H    4.751641    0.619470   -0.955615
 H    4.557433   -0.005090   -2.582787
 H    6.932398   -0.115260   -1.911330
 H    6.531366   -1.078616   -0.498086
 H    4.797311   -2.103453    0.667378
 H    3.071131   -2.376135    0.666733
 H    3.595996   -0.782972    2.397021
 H    4.541141    0.232719    1.318789
 H    2.547241    0.896468    0.075818
 H   -0.970936   -1.648555    1.173856
 H   -0.533480   -2.883814   -1.491642
 H    0.959437   -2.667851   -0.584813
 H   -0.185816   -4.924878   -0.198948
 H   -1.528556   -4.054349    0.538461
 H   -4.177247   -0.152193   -1.517840
 H   -5.510214    0.972434    0.225833
 H   -4.766698   -0.035596    1.480195
 H   -2.603425    0.582309    2.408510
 H   -0.596403    2.047036    2.408229
 H   -2.007733    3.976470   -1.153400
 H   -4.003776    2.497881   -1.163558
 H   -7.465718   -3.115983   -0.866566
 H   -8.598413   -1.742175   -0.929981
 H   -7.947768   -2.406036   -2.428019
 H    3.061093    2.941945    0.946060
 H    2.662929    3.419606    2.536245
 H    1.175480   -1.177438    1.664437
 H   -1.855513   -0.129400   -1.020305
 H   -5.405770   -2.398926   -0.164297
 H    0.568029   -5.125830    3.150697
 H    1.002076    1.966359   -0.962285
 H    2.033776    5.889845   -0.304935
