38 
1bl6_ligand_dft.xyz
 F    5.715982   -0.130573    0.759173
 C    4.089483   -1.379446   -0.395261
 C    4.421435   -0.361369    0.485769
 C    3.454424    0.420230    1.098794
 C    2.116892    0.174687    0.812438
 C    1.745746   -0.829903   -0.088048
 C    2.748610   -1.608308   -0.676566
 C   -1.737504    3.286327    0.466614
 N   -0.854083    4.037101   -0.191580
 C    0.054627    3.385668   -0.923714
 C    0.115913    2.003251   -1.035664
 C   -0.809556    1.218755   -0.337726
 C   -1.758232    1.895119    0.435045
 N   -1.834588   -1.045049   -0.765941
 C   -0.745868   -0.247625   -0.443405
 C    0.335748   -1.110801   -0.408979
 N   -0.064559   -2.387440   -0.718508
 C   -1.354086   -2.305716   -0.926057
 C   -3.226377   -0.651775   -0.900707
 C   -4.056155   -0.851095    0.359455
 C   -3.442083   -0.929248    1.733255
 C   -4.062981   -2.151466    1.113851
 H    4.874281   -1.975339   -0.848174
 H    3.751535    1.195729    1.796087
 H    1.353678    0.767677    1.306145
 H    2.461879   -2.404128   -1.355876
 H   -2.471219    3.824958    1.062946
 H    0.770386    4.006362   -1.458160
 H    0.874586    1.535117   -1.653565
 H   -2.497424    1.352799    1.013964
 H   -2.000644   -3.126070   -1.209104
 H   -3.655547   -1.232615   -1.723561
 H   -3.246572    0.398827   -1.200935
 H   -5.015367   -0.342168    0.295870
 H   -3.957243   -0.439524    2.553822
 H   -2.357961   -0.915888    1.807813
 H   -3.384336   -2.937622    0.795954
 H   -5.011467   -2.508947    1.501845
