45 
1bl7_ligand_dft.xyz
 C    2.867021   -0.493417    1.159602
 C    4.292696    0.028045    1.116225
 N    5.206466   -1.048144    0.570134
 C    4.781802   -1.561613   -0.786798
 C    3.346708   -2.068944   -0.730025
 C    2.426645   -0.949606   -0.239276
 C   -3.088423    0.229199   -0.803146
 C   -4.436884    0.558723   -0.767755
 C   -5.298088   -0.241209   -0.030130
 C   -4.852137   -1.358713    0.661186
 C   -3.500690   -1.673983    0.618637
 C   -2.602057   -0.878070   -0.099848
 F   -6.597474    0.070594    0.008518
 C   -0.741974    1.741292    0.848166
 C    0.106871    1.009581    0.014998
 N    1.137557    1.596641   -0.614496
 C    1.310225    2.908643   -0.402658
 N    0.556628    3.697383    0.370981
 C   -0.462672    3.094822    0.980766
 N    2.401790    3.486216   -1.004399
 N    1.024406   -1.319380   -0.257973
 C    0.494563   -2.573987   -0.258532
 N   -0.809972   -2.570536   -0.193663
 C   -1.177573   -1.249558   -0.131631
 C   -0.054463   -0.440753   -0.149648
 H    2.769662   -1.318194    1.877792
 H    2.228770    0.319741    1.512849
 H    4.674540    0.305230    2.100548
 H    4.380830    0.885970    0.443419
 H    5.221296   -1.831950    1.231062
 H    6.167385   -0.697465    0.520894
 H    5.488485   -2.343161   -1.072296
 H    4.885158   -0.719115   -1.475297
 H    3.295333   -2.948982   -0.076198
 H    3.064049   -2.394605   -1.735431
 H    2.523364   -0.093232   -0.912135
 H   -2.410618    0.833097   -1.398719
 H   -4.828816    1.409888   -1.312943
 H   -5.559644   -1.964120    1.216428
 H   -3.131412   -2.550193    1.141249
 H   -1.569019    1.276403    1.368466
 H   -1.078635    3.726940    1.615894
 H    2.378937    4.496814   -1.017865
 H    2.688267    3.059659   -1.873565
 H    1.101810   -3.466050   -0.325697
