50 
1bm6_ligand_xtb.xyz
 N    1.151769    0.195522   -0.234596
 C    1.781510   -0.694219    0.725386
 C    1.406686   -0.375901    2.180269
 C   -0.109731   -0.363029    2.347379
 C    2.038512   -1.411416    3.107701
 C    3.293250   -0.650837    0.494129
 O    4.078952    0.052310    1.114241
 O    5.037770   -1.366592   -0.894240
 N    3.701437   -1.454978   -0.493747
 C    1.605144    1.576149   -0.354347
 C    0.458387    2.525157   -0.134008
 C   -0.293530    3.002381   -1.202932
 C    0.083961    2.935647    1.142437
 C   -1.372454    3.835722   -0.951709
 C   -1.663744    4.156064    0.365521
 N   -0.949297    3.720311    1.388954
 S    0.527836   -0.556802   -1.586842
 O    1.288115   -1.754339   -1.861093
 O    0.411841    0.412652   -2.632811
 C   -1.084003   -1.035931   -1.002113
 C   -1.337651   -2.349786   -0.648119
 C   -2.047887   -0.062202   -0.840397
 C   -2.567721   -2.687417   -0.127043
 C   -3.285785   -0.390473   -0.317605
 C   -3.554988   -1.709972    0.047730
 O   -4.722859   -2.143690    0.569648
 C   -5.771880   -1.220278    0.761615
 H    1.416771   -1.694863    0.477794
 H    1.813344    0.607153    2.432308
 H   -0.369924   -0.091149    3.367236
 H   -0.521873   -1.347928    2.135507
 H   -0.570139    0.351780    1.670367
 H    3.122021   -1.377407    3.039061
 H    1.755119   -1.208720    4.137448
 H    1.702224   -2.413111    2.847568
 H    5.426146   -0.740664   -0.248526
 H    3.081070   -1.852300   -1.194443
 H    2.014319    1.727166   -1.358361
 H    2.391715    1.749358    0.382430
 H   -0.037320    2.708626   -2.210230
 H    0.646418    2.625044    2.012855
 H   -1.972675    4.225052   -1.759933
 H   -2.500665    4.793768    0.618572
 H   -0.569682   -3.091465   -0.799973
 H   -1.823022    0.951219   -1.131778
 H   -2.798112   -3.702013    0.155898
 H   -4.026568    0.383110   -0.197355
 H   -6.086062   -0.769580   -0.184467
 H   -5.488685   -0.433448    1.467014
 H   -6.596171   -1.797463    1.176878
