30 
1bm7_ligand_dft.xyz
 C   -3.060218    0.165487    0.061061
 O   -4.685998   -0.902878    1.498334
 C   -3.844449    1.318332   -0.089125
 C   -3.335057    2.480618   -0.639000
 O   -3.242940   -2.189521    0.442178
 C   -2.007017    2.490307   -1.067631
 C   -1.214690    1.361905   -0.959846
 C   -1.717043    0.172346   -0.399645
 C   -3.643474   -1.065029    0.660226
 N   -0.958096   -0.974317   -0.325015
 C    0.433203   -1.093504   -0.397094
 C    1.297470   -0.125227    0.120055
 C    2.673986   -0.312198    0.045458
 C    3.213471   -1.468073   -0.508978
 C    2.350124   -2.446356   -0.992815
 C    0.975704   -2.260989   -0.948437
 C    3.578652    0.784685    0.539059
 F    3.073575    1.400691    1.622106
 F    4.796709    0.326470    0.867521
 F    3.753892    1.733449   -0.400333
 H   -4.784769    0.029775    1.729817
 H   -4.894908    1.293175    0.191883
 H   -3.962220    3.358031   -0.751021
 H   -1.588721    3.385560   -1.517914
 H   -0.202204    1.380067   -1.345847
 H   -1.496543   -1.822989   -0.183039
 H    0.898849    0.760213    0.602016
 H    4.287512   -1.605632   -0.553069
 H    2.753168   -3.359203   -1.419768
 H    0.306451   -3.018893   -1.345432
