39 
1bmk_ligand_xtb.xyz
 F    5.915891    0.683731    0.815360
 C    4.544139   -0.888284   -0.284075
 C    4.678259    0.214665    0.539766
 C    3.582207    0.847446    1.098539
 C    2.318366    0.369630    0.810937
 C    2.149769   -0.725161   -0.035959
 C    3.275451   -1.356139   -0.564555
 C   -0.228880    3.041824   -0.985071
 N   -1.401382    3.433997   -0.514976
 C   -2.204999    2.471148   -0.060331
 N   -1.917102    1.170045   -0.016027
 C   -0.727871    0.782818   -0.477839
 C    0.172111    1.718840   -1.003414
 N   -3.436476    2.839785    0.359346
 N   -1.315608   -1.640132   -0.649585
 C   -0.404125   -0.629846   -0.446254
 C    0.831729   -1.264058   -0.340723
 N    0.665946   -2.604981   -0.499523
 C   -0.612316   -2.790644   -0.678767
 C   -2.748548   -1.539894   -0.783327
 C   -3.444844   -2.008623    0.477141
 C   -4.704941   -1.322661    0.911427
 C   -3.436084   -1.108158    1.675930
 H    5.422680   -1.363774   -0.690869
 H    3.726889    1.693895    1.751494
 H    1.455643    0.841582    1.256694
 H    3.134783   -2.219398   -1.195109
 H    0.408942    3.830758   -1.362656
 H    1.123250    1.416802   -1.405314
 H   -3.984598    2.176020    0.876817
 H   -3.609364    3.821609    0.478960
 H   -1.068548   -3.747021   -0.842597
 H   -3.060954   -2.150441   -1.638038
 H   -2.997199   -0.493979   -0.968990
 H   -3.368979   -3.075053    0.652234
 H   -5.484394   -1.920593    1.358308
 H   -5.075194   -0.515994    0.296956
 H   -2.929901   -0.161611    1.565103
 H   -3.340274   -1.554789    2.653571
