43 
1bnm_ligand_dft.xyz
 C    3.460958    0.041266   -0.124267
 C   -0.871125    0.754879    1.708860
 C    0.312949    1.580447    1.201444
 C   -1.119710    3.550799    0.380969
 C   -4.854216   -1.024495    1.437425
 C   -5.564469   -0.555860    0.334744
 C   -4.889334    0.093556   -0.703496
 C   -3.503398    0.271364   -0.614932
 C   -6.857070    0.381919   -2.002422
 N    5.900565   -0.912468    0.506275
 S    5.192642    0.153078   -0.541698
 O    5.564956    1.505008   -0.177583
 O    5.325071   -0.388818   -1.876297
 S    2.494872   -1.320043   -0.544205
 C    1.114371   -0.556851    0.126634
 C    1.386868    0.689878    0.643862
 C    2.756184    1.037362    0.488320
 N   -1.390287    0.027295    0.543449
 S   -0.468688   -1.376298    0.200000
 O   -0.844433   -1.833734   -1.114739
 O   -0.452362   -2.265928    1.342892
 N   -0.200904    2.425113    0.041493
 C   -2.821994   -0.199319    0.495216
 C   -3.478510   -0.858058    1.534687
 O   -5.465664    0.586121   -1.814637
 H   -1.672822    1.379769    2.106488
 H   -0.534404    0.095774    2.517709
 H    0.697316    2.267682    1.958833
 H   -0.642394    4.189392    1.124605
 H   -1.321907    4.117553   -0.528063
 H   -2.052323    3.140478    0.766630
 H   -5.388270   -1.537201    2.230582
 H   -6.636080   -0.708898    0.290185
 H   -2.980869    0.744560   -1.439863
 H   -7.093010    0.829399   -2.967034
 H   -7.098638   -0.686606   -2.026560
 H   -7.440374    0.878207   -1.218133
 H    6.433526   -0.449774    1.235777
 H    6.426302   -1.630467    0.017045
 H    3.216749    1.964190    0.812362
 H   -0.701314    1.736512   -0.547811
 H    0.597842    2.768757   -0.498361
 H   -2.925752   -1.249232    2.382169
