37 
1bnn_ligand_xtb.xyz
 C   -2.980511    0.515155   -0.007705
 C    1.156504   -0.566179    2.107760
 C    0.179192    0.610363    1.985588
 C    4.442303   -0.848207   -1.479858
 C    4.980604    0.391483   -1.171886
 C    4.382526    1.156226   -0.179609
 C    3.247722    0.677814    0.475213
 C    5.945284    2.939017   -0.389382
 N   -5.563992   -0.044653    0.182238
 S   -4.573399    1.140777   -0.458801
 O   -4.788782    2.358120    0.261568
 O   -4.698279    1.117858   -1.881851
 S   -2.354728   -0.898325   -0.756021
 C   -0.939963   -0.783598    0.212084
 C   -0.951859    0.285655    1.063358
 C   -2.142663    1.040264    0.927387
 N    1.604156   -1.079234    0.833737
 S    0.388148   -1.968679    0.117719
 O    0.057813   -3.054098    0.989016
 O    0.668419   -2.253493   -1.249771
 C    2.712674   -0.562815    0.157714
 C    3.332854   -1.337769   -0.822882
 O    4.810368    2.383553    0.231375
 H    0.650847   -1.403164    2.597332
 H    2.027169   -0.284489    2.703744
 H   -0.211682    0.855637    2.975304
 H    0.690743    1.498176    1.603319
 H    4.912807   -1.449598   -2.242725
 H    5.853800    0.738269   -1.699819
 H    2.824528    1.309262    1.237963
 H    6.832070    2.315913   -0.236591
 H    5.784570    3.087070   -1.461793
 H    6.098317    3.905519    0.088155
 H   -6.085366   -0.533413   -0.526768
 H   -6.158142    0.306028    0.914843
 H   -2.378740    1.927769    1.484850
 H    2.933282   -2.306118   -1.065370
