38 
1bnt_ligand_dft.xyz
 C    3.501051    0.038996   -0.008763
 O    0.234066    2.779191   -0.768461
 C   -0.885431    1.623434    1.051371
 C    0.430783    2.148375    0.478253
 C   -2.775583    0.296555    0.119154
 C   -3.591467    0.273864    1.254255
 C   -4.957046    0.100802    1.121245
 C   -5.524553   -0.075610   -0.146777
 C   -4.707692   -0.073885   -1.279983
 C   -3.336252    0.114873   -1.137066
 O    5.699005   -1.287805    0.455215
 O    5.798995    1.205461   -0.064523
 N    5.342649   -0.508207   -1.890370
 S    5.242219   -0.118695   -0.271387
 C    2.841953    1.222958    0.142020
 C    1.446177    1.034443    0.348188
 C    1.119203   -0.295032    0.321445
 S    2.467178   -1.340691    0.082844
 S   -0.516706   -0.936928    0.558482
 O   -0.817328   -1.895710   -0.484767
 O   -0.667831   -1.315264    1.955141
 N   -1.351905    0.498770    0.219627
 O   -6.867479   -0.239569   -0.168656
 C   -7.491271   -0.461905   -1.414881
 H   -0.201041    2.124638   -1.334668
 H   -1.638807    2.409657    0.979121
 H   -0.772309    1.339233    2.106261
 H    0.821763    2.921884    1.145774
 H   -3.151365    0.384500    2.240370
 H   -5.609088    0.084149    1.987797
 H   -5.121078   -0.215361   -2.271319
 H   -2.689566    0.113582   -2.008081
 H    5.937494   -1.320132   -2.022096
 H    5.634684    0.285726   -2.450883
 H    3.335177    2.186837    0.109979
 H   -8.553198   -0.585637   -1.201352
 H   -7.355253    0.391653   -2.091028
 H   -7.110355   -1.371299   -1.896067
