30 
1bq4_ligand_dft.xyz
 C    1.393134   -0.176440    0.003458
 C    2.900566   -0.229012    0.176325
 O    3.509530   -1.340766    0.556534
 O    3.541505    0.790739    0.050012
 C    0.845017    1.111683   -0.028435
 C    1.705942    2.327535   -0.344866
 O    2.145431    3.057152    0.721101
 O    1.755456    2.755300   -1.455890
 C   -0.543853    1.294706    0.003628
 C   -1.251915    2.626451    0.176939
 O   -0.593276    3.709663    0.556689
 O   -2.455607    2.671578    0.051547
 C   -1.385328    0.175957   -0.028503
 C   -2.868721    0.313954   -0.344874
 O   -3.720301    0.329017    0.721081
 O   -3.263969    0.143617   -1.455996
 C   -0.849442   -1.118402    0.003328
 C   -1.648754   -2.397585    0.176358
 O   -2.916433   -2.368984    0.555189
 O   -1.085843   -3.462568    0.051423
 C    0.540188   -1.287755   -0.028634
 C    1.162921   -2.641240   -0.344658
 O    1.574945   -3.386113    0.721704
 O    1.508840   -2.898333   -1.455546
 H    2.931370   -2.099536    0.756074
 H    2.446149    2.460906    1.423843
 H    0.353190    3.588283    0.755081
 H   -3.354088    0.886694    1.424413
 H   -3.284772   -1.488764    0.753687
 H    0.907408   -3.349117    1.423719
