42 
1bqm_ligand_xtb.xyz
 C    1.890827    0.230849   -0.096842
 C    2.542857   -0.909763   -0.832319
 C    0.504199   -2.142195   -0.466557
 C   -0.205380   -0.980558   -0.137490
 C   -1.490684   -1.080106    0.374750
 C   -2.093226   -2.326035    0.511856
 C   -1.390697   -3.478819    0.150301
 C   -0.101892   -3.385391   -0.324205
 C   -0.113800    1.420943   -0.724550
 C   -2.098879    2.505866   -1.386795
 C   -3.309789    2.078669   -2.202348
 C   -2.486899    3.306702   -0.148312
 C    2.210825    0.092694    1.401850
 C    2.149124    2.838042    1.898552
 C   -4.111197   -1.397440    1.359522
 N    0.456476    0.241797   -0.321216
 N    1.808184   -2.027559   -0.938568
 O    0.522729    2.440621   -0.854137
 O   -1.417487    1.302849   -0.989423
 O   -3.348383   -2.521376    0.987363
 S    4.079889   -0.824350   -1.391378
 S    1.326677    1.307887    2.421513
 H    2.288999    1.179444   -0.469330
 H   -2.003062   -0.178675    0.657325
 H   -1.876047   -4.434309    0.260103
 H    0.446034   -4.276037   -0.592473
 H   -1.408980    3.097025   -2.001976
 H   -3.983498    1.486690   -1.587950
 H   -3.837253    2.957229   -2.561587
 H   -2.998818    1.478845   -3.053465
 H   -2.999633    4.217118   -0.444397
 H   -1.596082    3.573843    0.415070
 H   -3.144831    2.719581    0.489150
 H    1.884389   -0.879991    1.771879
 H    3.282766    0.203419    1.564675
 H    1.827164    3.610817    2.588812
 H    1.840818    3.090346    0.887701
 H    3.225037    2.705009    1.963018
 H   -3.644555   -0.852049    2.185577
 H   -4.263009   -0.720253    0.513241
 H   -5.073133   -1.790190    1.684737
 H    2.248802   -2.841619   -1.348693
