17 
1bty_ligand_xtb.xyz
 C   -0.214453   -0.031855   -0.019816
 C    0.516547   -1.200298    0.174410
 C    1.897529   -1.164516    0.199241
 C    2.565171    0.036683    0.021450
 C    1.844997    1.199732   -0.192067
 C    0.461908    1.169164   -0.210756
 C   -1.690630   -0.106268   -0.032834
 N   -2.357451    1.035235    0.342143
 N   -2.236200   -1.182801   -0.419772
 H   -0.023264   -2.125201    0.299885
 H    2.457318   -2.074582    0.357037
 H    3.644668    0.065623    0.041383
 H    2.362797    2.135327   -0.347082
 H   -0.087890    2.079451   -0.403404
 H   -3.352988    0.971870    0.483380
 H   -1.877946    1.733504    0.883718
 H   -3.253553   -1.168878   -0.409290
