17 
1bty_ligand_dft.xyz
 C   -0.213841   -0.035419   -0.021922
 C    0.520534   -1.211201    0.152743
 C    1.908599   -1.174047    0.176751
 C    2.580633    0.036893    0.019633
 C    1.856285    1.209417   -0.168680
 C    0.464801    1.174302   -0.189348
 C   -1.705511   -0.111050   -0.035824
 N   -2.353742    1.078382    0.275896
 N   -2.266887   -1.212578   -0.364429
 H   -0.019285   -2.145316    0.264751
 H    2.469819   -2.092886    0.318535
 H    3.666208    0.064419    0.038110
 H    2.373395    2.154017   -0.308889
 H   -0.091448    2.089176   -0.372030
 H   -3.348068    1.001732    0.440763
 H   -1.890262    1.675413    0.946660
 H   -3.284956   -1.140556   -0.308284
