92 
1bv7_ligand_xtb.xyz
 O    2.444735    1.795508   -0.974963
 O    1.763933   -3.911927   -0.760234
 O    4.080172   -3.448379    0.580984
 N    2.014085   -0.314069   -1.688299
 N    3.112635    0.088631    0.354909
 C    2.516731    0.594259   -0.778486
 C    1.510553    0.287108   -2.930965
 C    1.362681   -1.548626   -1.262712
 C    2.382442   -2.652076   -0.929773
 C    3.160649   -2.406169    0.364720
 C    3.952330   -1.089401    0.359960
 C    3.184431    1.020424    1.479275
 C    0.335036   -1.297739   -0.140819
 C   -0.564868   -2.462283    0.174482
 C   -0.634247   -2.954621    1.471035
 C   -1.505096   -3.979371    1.795875
 C   -2.322351   -4.532908    0.826195
 C   -2.259791   -4.055380   -0.471123
 C   -1.390098   -3.028642   -0.790772
 C    5.003103   -1.041997   -0.767763
 C    6.026185    0.015526   -0.466025
 C    7.118856   -0.284323    0.338951
 C    8.046702    0.689742    0.660130
 C    7.889726    1.980835    0.184331
 C    6.802147    2.289583   -0.614052
 C    5.876609    1.312749   -0.938331
 C    0.126625    0.860839   -2.750586
 C   -0.982874    0.029425   -2.809672
 C   -2.225629    0.461750   -2.363401
 C   -2.397754    1.786529   -1.985127
 C   -1.321564    2.654437   -2.054815
 C   -0.061140    2.191192   -2.394218
 C   -3.279635   -0.586036   -2.201226
 O   -3.557824   -1.402146   -3.044036
 N   -3.795535   -0.566588   -0.922829
 N   -5.156187   -2.509149   -0.963709
 C   -4.528832   -1.570317   -0.358975
 C   -5.742281   -3.364614   -0.093684
 S   -4.602278   -1.658800    1.407098
 C   -5.565363   -3.079587    1.219386
 C    1.870872    0.900759    2.209687
 C    0.746258    1.524167    1.680665
 C   -0.520557    1.214889    2.162030
 C   -0.664366    0.313079    3.212061
 C    0.460267   -0.239915    3.797151
 C    1.719274    0.037331    3.288235
 C   -1.735829    1.754119    1.497940
 O   -2.672703    1.064137    1.166485
 N   -1.683424    3.114075    1.294102
 N   -3.831305    3.473072    0.358683
 C   -2.690862    3.882140    0.773217
 C   -4.601922    4.494919   -0.084356
 S   -2.452642    5.631121    0.650997
 C   -4.042397    5.727126   -0.011661
 H    1.105987   -4.051455   -1.449552
 H    3.605430   -4.274101    0.420377
 H    2.210321    1.077367   -3.207276
 H    1.518773   -0.488015   -3.701180
 H    0.818639   -1.912320   -2.141611
 H    3.101773   -2.711771   -1.763842
 H    2.438189   -2.385651    1.195348
 H    4.502282   -1.089458    1.307008
 H    4.027564    0.761464    2.118582
 H    3.326758    2.031690    1.088864
 H   -0.288615   -0.455371   -0.454473
 H    0.856425   -0.994359    0.764334
 H   -0.007820   -2.521562    2.238056
 H   -1.549274   -4.342441    2.812320
 H   -3.009339   -5.326494    1.079798
 H   -2.901414   -4.464269   -1.236775
 H   -1.380046   -2.659367   -1.804732
 H    5.477216   -2.023186   -0.811227
 H    4.512309   -0.833244   -1.718664
 H    7.240855   -1.291952    0.710774
 H    8.894872    0.441578    1.281620
 H    8.613856    2.742427    0.433798
 H    6.673111    3.294882   -0.987446
 H    5.028761    1.563976   -1.558072
 H   -0.892339   -0.984953   -3.168504
 H   -3.362139    2.134100   -1.648343
 H   -1.456903    3.698268   -1.809750
 H    0.787953    2.855326   -2.363626
 H   -3.451520    0.134358   -0.269068
 H   -6.303438   -4.192560   -0.486769
 H   -5.939878   -3.600344    2.076426
 H    0.864407    2.185495    0.834690
 H   -1.654345    0.057427    3.556591
 H    0.353943   -0.916670    4.631722
 H    2.589828   -0.439491    3.714933
 H   -0.848988    3.603959    1.586390
 H   -5.584620    4.273740   -0.457790
 H   -4.452346    6.672983   -0.299021
