92 
1bwa_ligand_dft.xyz
 O    2.394744    1.936915   -0.923067
 O    2.468490   -3.850978   -1.162315
 O    4.698094   -3.175147    0.221469
 N    2.090079   -0.188497   -1.674130
 N    3.310062    0.245552    0.307387
 C    2.588148    0.730317   -0.773899
 C    1.480310    0.394328   -2.877889
 C    1.634789   -1.534848   -1.276805
 C    2.835096   -2.481091   -1.116223
 C    3.662225   -2.223898    0.139992
 C    4.298701   -0.830971    0.198692
 C    3.295946    1.106031    1.495585
 C    0.651651   -1.489122   -0.081112
 C   -0.054313   -2.790406    0.222084
 C    0.316331   -3.563467    1.328171
 C   -0.329496   -4.766427    1.608712
 C   -1.368045   -5.205390    0.793952
 C   -1.760326   -4.432888   -0.296954
 C   -1.106842   -3.239773   -0.581850
 C    5.326138   -0.564490   -0.919005
 C    6.234307    0.586552   -0.559242
 C    7.453185    0.343051    0.078845
 C    8.276928    1.393718    0.471261
 C    7.889969    2.709555    0.232362
 C    6.675982    2.964077   -0.399638
 C    5.855102    1.911232   -0.794004
 C    0.089499    0.957732   -2.655028
 C   -1.002832    0.101816   -2.551034
 C   -2.265212    0.577889   -2.201653
 C   -2.465574    1.952788   -2.079297
 C   -1.393115    2.824424   -2.241757
 C   -0.118130    2.329366   -2.495154
 C   -3.338187   -0.444739   -1.959156
 O   -3.335414   -1.523376   -2.519833
 N   -4.265944   -0.057816   -1.009688
 N   -6.070270   -1.576292   -1.365017
 C   -5.324666   -0.852204   -0.592412
 C   -7.035312   -2.216697   -0.625159
 S   -5.745567   -0.894201    1.110560
 C   -7.042023   -1.965867    0.709382
 C    2.043394    0.783140    2.285117
 C    0.809908    1.278880    1.853076
 C   -0.378134    0.737038    2.344243
 C   -0.343208   -0.276014    3.303857
 C    0.879266   -0.709205    3.799614
 C    2.065175   -0.189562    3.284330
 C   -1.714877    1.105293    1.779035
 O   -2.590123    0.286604    1.599425
 N   -1.862030    2.459882    1.498399
 N   -4.094694    2.470800    0.656161
 C   -3.005921    3.071441    1.023313
 C   -5.028855    3.388327    0.225971
 S   -3.036964    4.816063    0.872499
 C   -4.653731    4.689262    0.259068
 H    1.763158   -4.003740   -0.514504
 H    4.317927   -3.989951   -0.143138
 H    2.147876    1.178863   -3.238162
 H    1.452655   -0.394321   -3.636018
 H    1.087694   -1.924847   -2.140089
 H    3.480531   -2.339269   -1.989372
 H    3.003894   -2.313044    1.019751
 H    4.853400   -0.820061    1.141833
 H    4.195683    0.905261    2.080608
 H    3.325294    2.150953    1.182220
 H   -0.096830   -0.724511   -0.305801
 H    1.179186   -1.152728    0.810438
 H    1.103761   -3.207330    1.988854
 H   -0.026902   -5.351982    2.472161
 H   -1.877213   -6.138845    1.013898
 H   -2.586182   -4.748533   -0.926728
 H   -1.451154   -2.644591   -1.422457
 H    5.906184   -1.481336   -1.056773
 H    4.803668   -0.362223   -1.860498
 H    7.757645   -0.683927    0.268155
 H    9.223819    1.184574    0.960782
 H    8.532192    3.531270    0.535645
 H    6.365471    3.987476   -0.590057
 H    4.902742    2.123714   -1.272280
 H   -0.888090   -0.964615   -2.718491
 H   -3.456188    2.345888   -1.878239
 H   -1.552642    3.895342   -2.156027
 H    0.728151    3.004512   -2.559311
 H   -4.007365    0.694214   -0.369294
 H   -7.738263   -2.862857   -1.137115
 H   -7.723634   -2.336917    1.461119
 H    0.795809    1.997197    1.035938
 H   -1.273791   -0.719733    3.640839
 H    0.910636   -1.479615    4.563748
 H    3.019868   -0.577605    3.631871
 H   -1.088853    3.060626    1.743799
 H   -5.990185    3.023814   -0.114080
 H   -5.215705    5.566341   -0.025742
