46 
1bzc_ligand_xtb.xyz
 P    6.074699   -0.313718    0.871462
 O    7.645506   -0.051239    0.760174
 O    5.457842    0.213526    2.086967
 O    5.953149   -1.880058    0.656066
 C    5.359304    0.324268   -0.727362
 C    3.047634    0.890876   -0.060089
 C    3.892332    0.062957   -0.752458
 C    3.404542   -1.082515   -1.409084
 C    2.068367   -1.363462   -1.382317
 C   -0.217718   -0.781135   -0.660165
 C   -1.081618    0.057854    0.001483
 C   -0.575176    1.180018    0.691263
 C    0.763352    1.448874    0.681462
 C    1.666208    0.620479   -0.019179
 C    1.165433   -0.523408   -0.696019
 C   -2.535990   -0.272792   -0.028896
 O   -2.943126   -1.413539   -0.183721
 N   -3.368702    0.775412    0.125064
 C   -4.800835    0.661373    0.003954
 C   -5.344539    2.066125   -0.281844
 N   -6.648703    2.079807   -0.580904
 O   -4.632902    3.048612   -0.231417
 C   -5.440989    0.054630    1.272553
 C   -5.800297   -1.414099    1.064440
 C   -6.978741   -1.586299    0.151723
 O   -7.359508   -2.858629    0.054383
 O   -7.550555   -0.700914   -0.441892
 F    5.658836    1.659028   -0.732509
 F    6.016354   -0.194558   -1.788481
 H    7.889326    0.800732    1.124550
 H    5.909528   -2.340472    1.496229
 H    3.434559    1.758317    0.452634
 H    4.098210   -1.721680   -1.933183
 H    1.683393   -2.236288   -1.888124
 H   -0.615339   -1.649090   -1.165614
 H   -1.244608    1.817430    1.249447
 H    1.154440    2.303288    1.213530
 H   -3.038864    1.734198    0.121586
 H   -5.036784    0.020041   -0.854574
 H   -7.099807    2.953733   -0.793546
 H   -7.172089    1.214686   -0.631095
 H   -4.725760    0.138928    2.091073
 H   -6.336526    0.615349    1.545699
 H   -6.030336   -1.907982    2.009687
 H   -4.944555   -1.935340    0.621139
 H   -8.111005   -2.951385   -0.552848
