50 
1bzf_ligand_xtb.xyz
 N   -3.849268    0.964130   -1.878854
 C   -4.993124    1.199596   -1.280396
 N   -5.283655    0.889662   -0.002893
 C   -4.421882    0.161297    0.671533
 C   -2.967012    0.183596   -1.224777
 C   -3.236543   -0.369837    0.060742
 C   -2.343677   -1.315849    0.615859
 C   -1.137737   -1.560822   -0.020820
 C   -0.841894   -0.932334   -1.238898
 C   -1.740496   -0.104490   -1.847886
 C   -0.132383   -2.524627    0.587012
 N    1.199657   -2.467163    0.044604
 C    2.003348   -1.350592    0.138725
 C    1.662484   -0.261892    0.936604
 C    2.523760    0.820771    1.045711
 C    3.754728    0.817463    0.378885
 C    4.090284   -0.274425   -0.433370
 C    3.214556   -1.341344   -0.554394
 C   -2.711725   -2.114068    1.836566
 O    2.255674    1.939980    1.776842
 O    4.625110    1.874369    0.566599
 O    5.296016   -0.194485   -1.071743
 C    1.055433    1.995138    2.500895
 C    4.754147    2.735834   -0.543875
 C    5.736119   -1.300081   -1.816893
 N   -5.969777    1.829502   -1.979002
 N   -4.737712   -0.031684    1.986433
 H    0.106135   -1.129031   -1.716793
 H   -1.545561    0.335643   -2.812222
 H   -0.488789   -3.552374    0.452050
 H   -0.061798   -2.343796    1.665692
 H    1.371422   -3.047892   -0.760651
 H    0.715811   -0.252987    1.446506
 H    3.458077   -2.188426   -1.176558
 H   -2.282393   -1.681604    2.742840
 H   -3.790368   -2.173619    1.947637
 H   -2.329674   -3.128629    1.747811
 H    0.181031    1.936809    1.842157
 H    0.998663    1.198191    3.250615
 H    1.060946    2.960694    3.004993
 H    5.149570    2.207373   -1.416542
 H    3.791911    3.192838   -0.802749
 H    5.454189    3.512671   -0.241082
 H    5.800097   -2.202241   -1.199980
 H    5.085985   -1.493481   -2.677512
 H    6.731258   -1.037031   -2.173097
 H   -5.701357    2.269350   -2.841261
 H   -6.738233    2.210697   -1.456499
 H   -5.516366    0.530494    2.295281
 H   -3.989988   -0.153685    2.646431
