119 
1bzh_ligand_dft.xyz
 N   -3.355838   -1.521323   -1.070369
 C   -4.600726   -2.224438   -1.345645
 C   -4.642838   -3.570722   -0.588901
 O   -4.369865   -4.610172   -1.160746
 C   -4.793973   -2.488334   -2.837429
 C   -6.187036   -3.001388   -3.104401
 O   -7.096540   -2.968171   -2.306966
 O   -6.321726   -3.482043   -4.347128
 N   -5.016848   -3.556608    0.724199
 C   -5.295889   -2.415941    1.578942
 C   -4.034496   -1.585395    1.867360
 O   -4.084109   -0.359541    1.893223
 C   -5.933173   -2.893104    2.883563
 N   -2.916620   -2.308835    2.070675
 C   -1.596348   -1.766598    1.836914
 C   -0.837475   -2.861882    1.080849
 O   -1.195298   -4.030856    1.165710
 C   -0.866698   -1.308401    3.123356
 C   -1.109110    0.175451    3.250686
 O   -0.623052    0.969286    2.455902
 O   -1.938192    0.501364    4.216538
 N    0.207071   -2.488596    0.307355
 C    0.611985   -1.155640   -0.104418
 C    0.805011   -1.250326   -1.630815
 O    0.839615   -2.344857   -2.180861
 C    1.854014   -0.665613    0.654303
 C    3.012564   -1.650995    0.638952
 C    2.896166   -2.731940    1.678971
 O    3.624833   -3.834022    1.341843
 O    2.294876   -2.680620    2.720867
 N    0.916922   -0.109656   -2.352097
 C    0.874710    1.265164   -1.926304
 C    2.189738    1.995434   -2.312919
 C    3.462169    1.395284   -1.762275
 C    4.119763    1.985431   -0.679225
 C    5.325117    1.481595   -0.204706
 C    4.040124    0.263098   -2.341565
 C    5.252046   -0.250784   -1.888423
 C    5.897070    0.376368   -0.825482
 O    7.153710    0.009311   -0.373593
 C    7.483948   -1.317884   -0.272079
 C    6.407160   -2.102415    0.506400
 F    7.692126   -1.882337   -1.510966
 O    9.116539   -2.443700    1.084485
 O    9.617967   -0.397052    0.295282
 O    5.913256   -3.132511   -0.155968
 O    6.068045   -1.730438    1.603288
 C    8.825312   -1.451076    0.470352
 O   -0.765037    1.477549   -3.660853
 C   -0.293844    1.964301   -2.646742
 N   -0.686956    3.179682   -2.180066
 C   -0.297853    3.864115   -0.956720
 C   -1.538869    3.987670   -0.059769
 O   -2.262290    4.986084   -0.113190
 C    0.304593    5.237790   -1.247874
 C    0.885612    5.949013   -0.017623
 C    1.278676    7.381705   -0.385303
 C    2.084387    5.200098    0.573287
 N   -1.774095    2.933788    0.732565
 C   -3.009380    2.696402    1.457945
 C   -4.290168    2.962386    0.639536
 C   -2.994767    3.505757    2.768513
 N   -3.087386    4.841443    2.619958
 S   -4.255924    2.453666   -1.103543
 C   -4.468867    0.662091   -1.011257
 O   -2.075462    0.315239   -0.810100
 C   -3.188503   -0.168254   -0.965232
 O   -2.906475    2.975082    3.875231
 H   -2.493958   -2.047736   -1.165820
 H   -5.429204   -1.612568   -0.989241
 H   -4.063953   -3.217105   -3.197273
 H   -4.646595   -1.562086   -3.404958
 H   -7.241150   -3.782678   -4.431274
 H   -5.049043   -4.481654    1.133926
 H   -5.992174   -1.733798    1.080690
 H   -5.259691   -3.567368    3.423648
 H   -6.872364   -3.415077    2.679645
 H   -6.140650   -2.035082    3.527391
 H   -2.948383   -3.312229    1.910371
 H   -1.710317   -0.897957    1.184896
 H   -1.253734   -1.857935    3.982004
 H    0.208342   -1.491626    3.040675
 H   -2.228818    1.450741    4.112515
 H    0.542495   -3.222377   -0.311352
 H   -0.202099   -0.451545    0.070778
 H    2.202033    0.272687    0.221028
 H    1.566626   -0.440585    1.683992
 H    3.937788   -1.117159    0.881478
 H    3.159063   -2.100667   -0.348665
 H    3.560228   -4.452864    2.087829
 H    0.803619   -0.247904   -3.349956
 H    0.726053    1.295112   -0.846983
 H    2.234472    2.005502   -3.409042
 H    2.117742    3.042374   -2.000534
 H    3.689247    2.861753   -0.201632
 H    5.841275    1.943428    0.629596
 H    3.552942   -0.217801   -3.184124
 H    5.698301   -1.107316   -2.377368
 H   10.451338   -0.599069    0.751897
 H    5.199350   -3.525295    0.394827
 H   -1.473935    3.570264   -2.684500
 H    0.436353    3.243260   -0.440501
 H    1.087194    5.116593   -2.008514
 H   -0.482380    5.860094   -1.687528
 H    0.098264    6.001779    0.745453
 H    1.673765    7.917305    0.484431
 H    0.418263    7.941154   -0.766974
 H    2.054644    7.384661   -1.160936
 H    2.881128    5.101265   -0.176255
 H    2.500690    5.742966    1.428097
 H    1.820921    4.197180    0.929431
 H   -1.139990    2.146762    0.736407
 H   -3.002005    1.642779    1.735895
 H   -5.124198    2.471643    1.149776
 H   -4.511450    4.028653    0.585043
 H   -2.960785    5.250546    1.696327
 H   -2.962728    5.411527    3.443685
 H   -5.058496    0.418106   -0.121255
 H   -5.059410    0.384867   -1.889888
