47 
1bzs_ligand_dft.xyz
 C    5.103942   -2.463381   -1.447449
 C    3.997703   -1.676737   -1.735656
 C    3.510205   -0.755395   -0.805996
 C    2.294182    0.064794   -1.180847
 C    2.140851    0.646234    1.242258
 C    3.631214    0.355115    1.456820
 C   -0.749378    1.490041   -0.411523
 C   -3.215253    0.206259   -0.223960
 C   -2.674327    0.876944    0.879049
 C   -1.447109    1.518492    0.791949
 C   -4.531051   -0.473230   -0.125904
 C   -6.830958   -0.504777    0.638977
 C   -4.731145   -1.728000   -0.711339
 O    1.106647    2.597657   -1.889133
 C    4.140303   -0.633508    0.435201
 C    5.249256   -1.433960    0.719823
 C    5.735415   -2.340871   -0.211199
 N    1.960920    1.039424   -0.141739
 S    0.862812    2.236137   -0.504211
 C   -1.267365    0.836802   -1.525318
 C   -2.496695    0.200213   -1.425006
 C   -5.596960    0.129719    0.550426
 C   -7.018801   -1.753411    0.052777
 C   -5.964812   -2.363211   -0.622002
 O    0.952907    3.205211    0.576219
 C    1.274705   -0.550018    1.636683
 O    0.550603   -1.180267    0.907542
 O    1.418175   -0.832597    2.944640
 H    5.471413   -3.172462   -2.182993
 H    3.500436   -1.773705   -2.698070
 H    2.497459    0.623948   -2.096900
 H    1.448629   -0.611386   -1.366137
 H    1.852369    1.489058    1.875353
 H    4.162129    1.308556    1.360801
 H    3.797564   -0.017344    2.471609
 H   -3.214258    0.881282    1.821212
 H   -1.034209    2.046997    1.644777
 H   -7.650777   -0.018418    1.159210
 H   -3.905205   -2.219315   -1.218273
 H    5.733115   -1.339477    1.689036
 H    6.599129   -2.954427    0.026520
 H   -0.725890    0.855424   -2.465092
 H   -2.920747   -0.284172   -2.299371
 H   -5.464234    1.114659    0.989554
 H   -7.982477   -2.248857    0.121738
 H   -6.101154   -3.339992   -1.076471
 H    0.855082   -1.603260    3.122326
