34 
1c1u_ligand_xtb.xyz
 C    3.558163    0.440259    0.010453
 C    2.620805    1.485111   -0.010150
 C    1.263942    1.253383   -0.010708
 C    0.847394   -0.068707    0.012298
 C    1.781838   -1.142863    0.045626
 C    3.144450   -0.882291    0.046228
 C    4.991654    0.801769    0.013519
 C   -0.128959   -2.059359    0.058544
 C   -1.424234   -2.801081    0.069120
 N    5.324438    1.938296    0.468354
 N    5.861356   -0.154931   -0.444720
 N   -0.363103   -0.700455    0.022626
 N    1.131090   -2.355987    0.073098
 C   -3.763190    2.608454   -0.073385
 C   -4.989078    1.941289   -0.063378
 C   -5.064640    0.564597   -0.032150
 C   -3.875010   -0.151808   -0.009805
 C   -2.630603    0.541343   -0.019772
 C   -2.564687    1.924134   -0.052120
 C   -2.389566   -1.662733    0.034527
 N   -3.674998   -1.513455    0.023736
 N   -1.706114   -0.465088    0.008811
 H    3.004882    2.491969   -0.016562
 H    0.559941    2.070269   -0.026662
 H    3.838271   -1.705248    0.105822
 H   -1.541391   -3.413857    0.965038
 H   -1.530467   -3.459080   -0.795564
 H    6.324399    2.123738    0.447894
 H    6.824814    0.107303   -0.575509
 H    5.521583   -0.906282   -1.018953
 H   -3.751431    3.687628   -0.097940
 H   -5.898456    2.522862   -0.080378
 H   -6.008602    0.044859   -0.024130
 H   -1.621900    2.448199   -0.059475
