34 
1c1u_ligand_dft.xyz
 C    3.558349    0.377864    0.041514
 C    2.626398    1.432041    0.141990
 C    1.258847    1.210619    0.114529
 C    0.842068   -0.111411   -0.007524
 C    1.757141   -1.193212   -0.086700
 C    3.125286   -0.939405   -0.065511
 C    5.027250    0.645460    0.067366
 C   -0.155127   -2.101289   -0.163052
 C   -1.472069   -2.829470   -0.066240
 N    5.817467   -0.270214    0.482263
 N    5.393310    1.926455   -0.334676
 N   -0.375900   -0.739709   -0.123102
 N    1.100490   -2.420058   -0.165606
 C   -3.681799    2.661479   -0.040024
 C   -4.933050    2.021974    0.000076
 C   -5.035504    0.640926    0.049839
 C   -3.859111   -0.110790    0.054210
 C   -2.608082    0.555932    0.027728
 C   -2.495814    1.943139   -0.019904
 C   -2.423309   -1.668225    0.078030
 N   -3.708235   -1.495363    0.066346
 N   -1.712214   -0.487679    0.108812
 H    2.987321    2.446057    0.281805
 H    0.559195    2.032067    0.211315
 H    3.846144   -1.746918   -0.120203
 H   -1.489218   -3.502371    0.795982
 H   -1.697978   -3.418425   -0.959836
 H    6.793880    0.024347    0.416468
 H    6.383912    2.066330   -0.480665
 H    4.830804    2.337614   -1.067075
 H   -3.640216    3.745116   -0.087206
 H   -5.834953    2.625651   -0.010984
 H   -5.996634    0.138823    0.077547
 H   -1.535527    2.443884   -0.053360
