29 
1c29_ligand_xtb.xyz
 P   -3.960650    0.250453    0.167728
 O   -4.018413    1.163898    1.496234
 O   -4.542724   -1.057123    0.390004
 O   -4.785430    1.093506   -0.932894
 C   -2.230108    0.288185   -0.373850
 C   -1.622037   -0.870999   -0.562719
 C    0.583368   -1.730218    0.137880
 C   -0.199077   -1.039465   -0.974631
 S    2.340353   -1.981725   -0.320169
 O    3.275383   -0.461774    2.078712
 C    3.640099    2.376418   -0.153061
 C    3.636812    1.613206    0.997911
 C    3.263630    0.272608    0.948315
 C    2.876771   -0.272416   -0.278650
 C    2.900987    0.492043   -1.432119
 C    3.280374    1.820602   -1.371152
 H   -3.611376    2.028414    1.446218
 H   -4.425980    1.943227   -1.186380
 H   -1.726983    1.232856   -0.529873
 H   -2.190301   -1.773673   -0.382002
 H    0.194411   -2.729214    0.329491
 H    0.549037   -1.145930    1.057860
 H    0.251794   -0.067354   -1.190745
 H   -0.149995   -1.656876   -1.875328
 H    3.076044   -1.385649    1.845435
 H    3.934560    3.413697   -0.100659
 H    3.927312    2.028258    1.949777
 H    2.624040    0.037411   -2.371387
 H    3.296096    2.417800   -2.269626
