19 
1c3b_ligand_dft.xyz
 B    2.841760    0.223396    0.026917
 O    3.493763    1.329804   -0.429823
 O    3.619538   -0.773607    0.532819
 C    1.269528    0.132086   -0.022212
 C    0.385894    1.160418    0.099403
 C   -1.128135   -0.634974   -0.070240
 C   -0.995308    0.759856    0.076669
 C   -2.382837   -1.248471   -0.126450
 S    0.434266   -1.402265   -0.179025
 C   -2.152954    1.548781    0.177955
 C   -3.508084   -0.448771   -0.025047
 C   -3.394277    0.943680    0.127069
 H    2.897919    1.938809   -0.876126
 H    3.106543   -1.482725    0.932574
 H    0.693604    2.193500    0.234175
 H   -2.473219   -2.323732   -0.243647
 H   -2.065604    2.625259    0.294387
 H   -4.492663   -0.904687   -0.062622
 H   -4.293008    1.547630    0.204233
