64 
1c3i_ligand_xtb.xyz
 N    1.718378    2.018097    0.712294
 C    1.490866    2.460302   -0.697382
 C    1.179170    1.212430   -1.562093
 O    2.079766    0.612883   -2.115863
 C   -4.317739    0.035551    0.224765
 C   -4.290729   -1.282424   -0.230258
 C   -5.531538    0.718720    0.260019
 C   -5.456743   -1.897793   -0.645771
 C   -6.695905    0.093285   -0.144766
 C   -6.660972   -1.214161   -0.601522
 C   -0.651117    1.892039    1.378132
 C   -0.932870    0.582156    1.753774
 C   -1.609011    2.608578    0.664334
 C   -2.125079   -0.012984    1.396907
 C   -2.805427    2.012416    0.305948
 C   -3.073198    0.686460    0.648746
 C    0.689131    2.488958    1.691551
 C    2.747775    3.134832   -1.235891
 S    3.365335    4.358705   -0.000583
 N   -0.109972    0.868435   -1.602307
 C   -0.547150   -0.389826   -2.184776
 C   -0.144917   -1.516423   -1.215307
 O   -0.902572   -1.969172   -0.387044
 N    1.140085   -1.888531   -1.350764
 C    1.786174   -2.713413   -0.356111
 C    3.141958   -3.225698   -0.891826
 C    4.192075   -2.115602   -0.900389
 C    3.629099   -4.432795   -0.097916
 C    1.951202   -1.915578    0.929320
 O    1.917825   -0.697243    0.986629
 O    2.136191   -2.686093    1.972322
 C    2.310610   -2.075210    3.247902
 H    2.629410    2.419633    0.995681
 H    1.785381    0.973787    0.766128
 H    0.651032    3.158275   -0.710322
 H   -3.349641   -1.810361   -0.278522
 H   -5.567096    1.731191    0.635251
 H   -5.426232   -2.915774   -1.003912
 H   -7.633414    0.626654   -0.102579
 H   -7.570744   -1.699065   -0.920640
 H   -0.209603    0.027654    2.331318
 H   -1.429503    3.642721    0.403539
 H   -2.330438   -1.026282    1.699309
 H   -3.532948    2.575170   -0.258881
 H    0.659202    3.579849    1.651486
 H    1.021120    2.180709    2.684621
 H    2.525307    3.649373   -2.169662
 H    3.522375    2.388577   -1.415165
 H    4.610896    4.411532   -0.451832
 H   -0.792312    1.374152   -1.050305
 H   -1.629702   -0.366728   -2.296843
 H   -0.065406   -0.528404   -3.154542
 H    1.739675   -1.355231   -1.969448
 H    1.131720   -3.562409   -0.128517
 H    2.955571   -3.542060   -1.923395
 H    5.078402   -2.452644   -1.430877
 H    4.486586   -1.857147    0.115304
 H    3.824183   -1.218119   -1.393976
 H    3.796002   -4.175553    0.944541
 H    2.904038   -5.241002   -0.140403
 H    4.565648   -4.792143   -0.515733
 H    1.370679   -1.634626    3.584518
 H    3.080749   -1.302789    3.200834
 H    2.610598   -2.870139    3.925082
