33 
1c5c_ligand_xtb.xyz
 C   -1.115157   -0.581304    0.121513
 C   -1.451487    0.764091    0.123515
 C   -0.414660    1.729298    0.062741
 C    0.891724    1.346241    0.022567
 C    2.594895   -0.431601    0.043766
 C    2.947127   -1.747935    0.090903
 C    1.940865   -2.724460    0.142357
 C    0.618492   -2.370043    0.146372
 C    0.228322   -1.012961    0.103664
 C    1.251184   -0.017994    0.055348
 S   -2.495395   -1.709396    0.028811
 O   -3.091170   -1.282417   -1.417234
 O   -2.146745   -3.092241   -0.067670
 O   -3.488139   -1.334278    0.992481
 N   -2.772976    1.143227    0.199955
 C   -3.332559    2.387152   -0.000257
 O   -2.716547    3.375290   -0.313575
 C   -4.825308    2.352683    0.209331
 S    3.846261    0.843144   -0.004805
 O    5.205496   -0.030830   -0.088708
 O    3.771051    1.574773   -1.235018
 O    3.843876    1.561859    1.225263
 H   -0.689112    2.770844    0.040340
 H    1.678332    2.081621   -0.026999
 H    3.987396   -2.028371    0.097235
 H    2.218566   -3.766210    0.183055
 H   -0.144961   -3.128000    0.187727
 H   -2.942132   -1.973138   -2.065017
 H   -3.410334    0.388561    0.445738
 H   -5.050747    2.011903    1.217273
 H   -5.235479    3.347374    0.060071
 H   -5.281093    1.661825   -0.496465
 H    5.643332    0.154812   -0.921975
