17 
1c5o_ligand_dft.xyz
 C   -0.213873   -0.035415   -0.021911
 C    0.520500   -1.211185    0.152731
 C    1.908593   -1.174058    0.176700
 C    2.580632    0.036863    0.019598
 C    1.856278    1.209414   -0.168632
 C    0.464813    1.174334   -0.189244
 C   -1.705484   -0.111031   -0.035865
 N   -2.266856   -1.212606   -0.364325
 N   -2.353760    1.078391    0.275751
 H   -0.019283   -2.145326    0.264717
 H    2.469766   -2.092932    0.318454
 H    3.666207    0.064419    0.038010
 H    2.373423    2.154008   -0.308778
 H   -0.091426    2.089243   -0.371767
 H   -3.284919   -1.140663   -0.308055
 H   -3.348042    1.001668    0.440835
 H   -1.890177    1.675554    0.946332
