17 
1c5o_ligand_xtb.xyz
 C   -0.214488   -0.030855   -0.016746
 C    0.517136   -1.199814    0.173419
 C    1.898185   -1.164925    0.193706
 C    2.565820    0.036634    0.018508
 C    1.845203    1.200833   -0.186971
 C    0.462027    1.170740   -0.203883
 C   -1.690560   -0.106789   -0.031683
 N   -2.233795   -1.187730   -0.410048
 N   -2.360874    1.036864    0.330019
 H   -0.022423   -2.124910    0.298522
 H    2.458062   -2.076065    0.345482
 H    3.645542    0.065363    0.034514
 H    2.362681    2.137346   -0.337884
 H   -0.086968    2.082345   -0.392544
 H   -3.251139   -1.175321   -0.401822
 H   -3.357075    0.972624    0.466281
 H   -1.885930    1.739745    0.869554
