20 
1c5s_ligand_xtb.xyz
 C   -2.744726    0.326858    0.002895
 C   -1.278411    0.205766   -0.001502
 N   -3.395415    1.422072   -0.012980
 N   -3.442691   -0.841535   -0.026535
 S   -0.499774   -1.367261   -0.010227
 C    1.073977   -0.631728   -0.002480
 C    0.981159    0.773453    0.006241
 C   -0.369662    1.217146    0.007563
 C    2.299114   -1.281177   -0.006175
 C    3.444447   -0.512381   -0.003086
 C    3.372825    0.881419    0.004896
 C    2.157664    1.526952    0.010691
 H   -2.826493    2.258287   -0.058402
 H   -4.436653   -0.756083    0.099810
 H   -3.002532   -1.696315    0.265108
 H   -0.632999    2.260628    0.016441
 H    2.347617   -2.359105   -0.012328
 H    4.410088   -0.995095   -0.007971
 H    4.286181    1.457148    0.006026
 H    2.099595    2.605112    0.017294
