17 
1c5z_ligand_xtb.xyz
 C    0.214495   -0.031226   -0.016396
 C   -0.461619    1.170231   -0.205259
 C   -1.844764    1.200748   -0.188618
 C   -2.565649    0.036928    0.017909
 C   -1.898338   -1.164486    0.195303
 C   -0.517274   -1.199743    0.175631
 C    1.690530   -0.106859   -0.031970
 N    2.360499    1.035726    0.333744
 N    2.233717   -1.186248   -0.414519
 H    0.087823    2.081312   -0.394925
 H   -2.362250    2.137089   -0.340518
 H   -3.645397    0.065816    0.033165
 H   -2.458634   -2.075194    0.348366
 H    0.021977   -2.124765    0.302727
 H    3.356630    0.971669    0.470425
 H    1.884945    1.737782    0.873743
 H    3.251104   -1.173608   -0.407159
