52 
1c7f_ligand_xtb.xyz
 N   -1.012515    1.053168   -1.085210
 C   -1.763478    2.171528   -1.185765
 O   -2.866462    2.177052   -1.709650
 N   -1.240874    3.375673   -0.725750
 C   -0.024416    3.574163   -0.128370
 O    0.317996    4.640869    0.318569
 C    0.820751    2.351605   -0.151113
 N    2.052350    2.433252    0.231685
 C    2.826156    1.330969    0.150565
 C    4.186405    1.444275    0.473757
 C    5.038733    0.370965    0.385681
 C    6.487132    0.515476    0.727951
 C    4.524174   -0.871486   -0.047407
 C    5.431152   -2.051723   -0.179353
 C    3.184313   -1.002628   -0.352862
 C    2.299189    0.076014   -0.255559
 N    0.960391   -0.008452   -0.554182
 C    0.200456    1.125991   -0.611771
 C    0.305634   -1.274053   -0.823407
 C    0.027875   -2.071092    0.465871
 O    1.210457   -2.619206    1.036453
 C   -0.863474   -3.300901    0.192638
 O   -0.216820   -4.165211   -0.719124
 C   -2.270168   -3.045973   -0.384167
 O   -2.222695   -2.509485   -1.678395
 C   -3.164220   -2.169846    0.496281
 O   -2.532304   -0.951949    0.840787
 P   -3.402190    0.385460    0.890980
 O   -2.593673    1.555281    1.236569
 O   -4.504068   -0.006473    1.989685
 O   -4.257876    0.426081   -0.429030
 H   -1.881266    4.162163   -0.737691
 H    4.534807    2.416877    0.782499
 H    7.109716    0.286885   -0.136116
 H    6.702545    1.529398    1.051780
 H    6.764238   -0.171680    1.526225
 H    6.233146   -1.838012   -0.884541
 H    4.886976   -2.926149   -0.524879
 H    5.892234   -2.285807    0.779277
 H    2.829496   -1.967022   -0.677739
 H    0.904461   -1.870457   -1.513944
 H   -0.656431   -1.025698   -1.277400
 H   -0.476856   -1.419196    1.182078
 H    1.672412   -1.940190    1.536971
 H   -0.989158   -3.810576    1.161016
 H    0.667870   -4.325509   -0.368125
 H   -2.752485   -4.039025   -0.425104
 H   -1.631473   -3.070810   -2.196902
 H   -3.412186   -2.706823    1.416621
 H   -4.080066   -1.962345   -0.061500
 H   -4.935840    0.784193    2.307762
 H   -3.818456    1.007037   -1.095504
