22 
1c85_ligand_dft.xyz
 C   -2.142458   -2.394690    0.118485
 C   -0.834353   -1.935636    0.064453
 C   -0.572390   -0.560753    0.027254
 C   -1.655582    0.351090    0.005046
 C   -2.961827   -0.147641    0.085050
 C   -3.215120   -1.508002    0.143975
 C   -1.417022    1.823528   -0.068178
 O   -2.423442    2.590008   -0.511783
 O   -0.373627    2.360614    0.247713
 N    0.733104   -0.053962    0.022555
 C    1.911432   -0.749304   -0.082611
 O    2.037185   -1.946646   -0.206295
 C    3.157435    0.166615   -0.029499
 O    4.114221   -0.038302   -0.714851
 O    3.102604    1.203941    0.830066
 H   -2.321443   -3.464723    0.154203
 H   -0.004784   -2.628013    0.052443
 H   -3.802603    0.538640    0.150111
 H   -4.234434   -1.871324    0.215232
 H   -3.124893    2.047017   -0.894544
 H    0.766534    0.964993    0.032381
 H    2.313683    1.162984    1.389646
