27 
1c87_ligand_dft.xyz
 O   -4.236924   -1.249164   -0.378980
 C   -3.091004   -1.981326   -0.021640
 C   -1.873536   -1.093471   -0.026770
 C   -1.942197    0.263576   -0.027750
 C   -3.274518    0.960381   -0.046463
 C   -4.359927   -0.040843    0.350121
 S   -0.245423   -1.686697    0.006220
 C    0.365260   -0.062546    0.023476
 C   -0.644231    0.874045    0.016165
 C   -0.452849    2.345870   -0.012189
 O    0.638642    2.819958    0.651849
 O   -1.182811    3.105159   -0.590135
 N    1.732547    0.212800   -0.034139
 C    2.722531   -0.701683    0.035026
 C    4.119955   -0.079785   -0.112710
 O    4.289568    1.101393   -0.270310
 O    5.075892   -0.989864   -0.042139
 O    2.593734   -1.905808    0.197407
 H   -3.000543   -2.788491   -0.754631
 H   -3.220186   -2.441398    0.973206
 H   -3.466736    1.360009   -1.047573
 H   -3.281134    1.815954    0.636840
 H   -4.306716   -0.247223    1.431549
 H   -5.354689    0.348166    0.123564
 H    0.920493    2.181761    1.322743
 H    2.030635    1.164035   -0.238105
 H    4.636114   -1.853956    0.086742
