27 
1c87_ligand_xtb.xyz
 O   -4.161818   -1.364011   -0.322139
 C   -2.962642   -2.038540   -0.033012
 C   -1.795638   -1.105754   -0.047635
 C   -1.926558    0.248957   -0.023755
 C   -3.278582    0.885887   -0.010040
 C   -4.306329   -0.167985    0.416551
 S   -0.144730   -1.625744   -0.058645
 C    0.378002    0.027830   -0.060852
 C   -0.670760    0.922237   -0.052544
 C   -0.536616    2.394121   -0.012172
 O    0.481925    2.907918   -0.743413
 O   -1.252732    3.112557    0.624383
 N    1.730052    0.310562   -0.002744
 C    2.672556   -0.648586    0.017224
 C    4.103348   -0.108606    0.128159
 O    4.337639    1.067821    0.178307
 O    4.991630   -1.081971    0.152549
 O    2.469956   -1.850504   -0.059079
 H   -2.858487   -2.817405   -0.793416
 H   -3.026924   -2.528886    0.955416
 H   -3.517804    1.248327   -1.013616
 H   -3.289288    1.737776    0.669531
 H   -4.198674   -0.376803    1.490581
 H   -5.322061    0.177653    0.220414
 H    0.853262    2.279899   -1.375817
 H    2.050907    1.266783    0.135422
 H    4.520891   -1.941222    0.092605
