29 
1c88_ligand_xtb.xyz
 N   -4.135587   -1.299410   -0.346418
 C   -2.894420   -2.003481    0.081249
 C   -1.747198   -1.047236    0.041795
 C   -1.865428    0.309849   -0.008784
 C   -3.220664    0.967659   -0.027577
 C   -4.298105   -0.025250    0.403899
 S   -0.098548   -1.618946    0.084671
 C    0.431466    0.015189    0.048271
 C   -0.587818    0.952549   -0.019560
 C   -0.223818    2.382728   -0.071260
 O    0.911609    2.746089    0.135180
 O   -1.164492    3.279477   -0.361124
 N    1.770747    0.285867    0.066826
 C    2.646850   -0.758396    0.045378
 C    4.130201   -0.370392   -0.109943
 O    4.774840   -0.796964   -1.012803
 O    4.601311    0.483106    0.795599
 O    2.236192   -1.901282    0.083432
 H   -4.062390   -1.082661   -1.348344
 H   -4.950194   -1.907109   -0.209080
 H   -2.703777   -2.855359   -0.575944
 H   -3.045169   -2.387949    1.095470
 H   -3.452816    1.337975   -1.033109
 H   -3.250611    1.810492    0.666275
 H   -4.203366   -0.247673    1.468158
 H   -5.291187    0.385727    0.215461
 H   -2.008496    2.906763   -0.636273
 H    2.001799    1.287430    0.028610
 H    3.994779    0.727575    1.508103
