50 
1c8l_ligand_xtb.xyz
 C    0.737022   -1.145246    0.398215
 C    1.820202   -1.992279    0.190562
 C    2.576434   -2.461927    1.254271
 C    2.257335   -2.084669    2.545269
 C    1.182911   -1.240586    2.771407
 C    0.435673   -0.778681    1.704688
 C   -0.091348   -0.574846   -0.736434
 C    0.178102    0.912184   -0.811832
 C   -2.414745    0.222242   -0.244670
 C   -0.726773    1.864636   -0.557532
 C   -1.559285   -0.798535   -0.494412
 C   -2.090989   -2.146827   -0.472439
 C   -3.848806   -0.119035    0.099097
 C   -0.389550    3.321362   -0.664051
 C   -3.006053    2.735516    1.668148
 C   -3.016411    2.539687    0.152526
 C    1.605878    1.190627   -1.146161
 C    3.657325    1.961758   -0.235236
 C    4.389818    0.669561    0.107932
 C    4.020332    3.099725    0.707039
 N   -2.055662    1.534038   -0.260484
 O   -1.179693   -3.099451   -0.716259
 O   -3.258455   -2.413481   -0.256050
 O   -4.618452   -0.176878   -0.987583
 O   -4.258460   -0.203409    1.224403
 O    2.129384    0.896710   -2.188609
 O    2.239034    1.753244   -0.112981
Cl    2.269904   -2.483628   -1.405500
 H    3.410841   -3.118408    1.062442
 H    2.848052   -2.450736    3.371412
 H    0.928206   -0.942665    3.777136
 H   -0.404125   -0.121925    1.877540
 H    0.216993   -1.053217   -1.673214
 H    0.665347    3.435425   -0.888166
 H   -0.956898    3.789795   -1.468042
 H   -0.597377    3.845777    0.266290
 H   -3.321087    1.820334    2.163250
 H   -2.009380    2.995131    2.017640
 H   -3.691304    3.533232    1.942029
 H   -4.010710    2.220418   -0.166873
 H   -2.797086    3.479057   -0.353801
 H    3.869063    2.237257   -1.276842
 H    4.119014   -0.109786   -0.599640
 H    5.463165    0.828904    0.059720
 H    4.117699    0.342975    1.109480
 H    3.777092    2.821070    1.728989
 H    5.083433    3.310325    0.637720
 H    3.465267    3.998289    0.449678
 H   -1.604604   -3.970037   -0.687957
 H   -5.499621   -0.509674   -0.753594
