71 
1ca8_ligand_xtb.xyz
 C    4.223386    0.819609    0.662173
 C    5.324821    0.244937   -0.148752
 C    6.020700   -0.873353    0.295244
 C    7.002259   -1.447191   -0.492638
 C    7.295213   -0.914159   -1.736435
 C    6.597434    0.192388   -2.190926
 C    5.616827    0.767681   -1.403566
 S    2.675342    0.002953    0.119555
 O    2.751348   -1.379305    0.505292
 O    2.472469    0.343538   -1.254801
 N    1.602702    0.796322    1.139254
 C    0.765718   -0.104505    1.887807
 C   -0.156118    0.615828    2.880833
 C   -1.308155   -0.306186    3.307388
 C   -0.037270   -1.004232    0.960335
 C   -0.973414   -1.774091    3.030625
 O   -0.013687   -0.893197   -0.255596
 N   -0.754075   -1.938670    1.610527
 C   -1.318301   -3.070904    0.903202
 C   -2.673479   -2.773330    0.251148
 O   -3.692437   -3.371189    0.557604
 C   -3.981153    2.681386    0.693255
 C   -3.313065    3.822083   -0.077529
 N   -2.607956   -1.812862   -0.674142
 C   -3.762736   -1.340510   -1.419234
 C   -4.216821   -2.401648   -2.444135
 O   -5.128489   -3.310595   -1.894694
 C   -3.416382   -0.002153   -2.067256
 C   -0.931047    3.213919   -0.094806
 N   -2.130484    3.336179   -0.764099
 C   -4.328070    1.537736   -0.258308
 C   -3.090906    1.088886   -1.042700
 C   -2.483548    2.318134   -1.735484
 N    0.041772    2.440090   -0.372131
 N   -0.758779    4.039242    1.010088
 H    4.311376    0.604024    1.721649
 H    4.063066    1.877699    0.485381
 H    5.783965   -1.297118    1.259763
 H    7.538474   -2.314817   -0.136705
 H    8.061818   -1.362445   -2.351314
 H    6.816921    0.606536   -3.163994
 H    5.061379    1.620543   -1.762680
 H    1.054775    1.491176    0.591266
 H    1.446100   -0.773551    2.429565
 H   -0.542453    1.516943    2.403745
 H    0.433915    0.926000    3.743151
 H   -2.210707   -0.061056    2.743454
 H   -1.531225   -0.176494    4.366235
 H   -0.085248   -2.076495    3.599400
 H   -1.808765   -2.411782    3.325289
 H   -1.437456   -3.903339    1.598393
 H   -0.614183   -3.354596    0.114291
 H   -3.288581    2.328454    1.461246
 H   -4.882141    3.046642    1.188135
 H   -3.060532    4.635694    0.600417
 H   -3.999369    4.210403   -0.837277
 H   -1.689229   -1.428594   -0.894714
 H   -4.593169   -1.217910   -0.711857
 H   -3.328723   -2.920771   -2.837624
 H   -4.734461   -1.923751   -3.280421
 H   -4.800425   -3.578869   -1.017943
 H   -2.554090   -0.150840   -2.721783
 H   -4.256331    0.321465   -2.684354
 H   -4.740764    0.704927    0.312412
 H   -5.094454    1.873225   -0.962014
 H   -2.343932    0.706255   -0.338369
 H   -3.212110    2.756414   -2.424944
 H   -1.600873    2.042661   -2.314941
 H   -0.077406    1.769246   -1.117976
 H    0.200943    4.003503    1.325805
 H   -1.092829    4.985309    0.906068
