27 
1cbx_ligand_dft.xyz
 C    2.049172    1.623576    0.346632
 C    0.968612    0.880651   -0.398051
 C    0.830875   -0.556777    0.084615
 C    2.103041   -1.326163   -0.210674
 C   -0.357187   -1.288620   -0.586261
 C   -1.685147   -0.637457   -0.281904
 C   -2.334349    0.152941   -1.231568
 C   -2.273150   -0.789523    0.976787
 C   -3.541986    0.779218   -0.934049
 C   -3.479401   -0.166765    1.278211
 C   -4.117632    0.620696    0.322499
 O    2.640547    1.217363    1.318918
 O    2.278693    2.836095   -0.187880
 O    2.208492   -2.430627    0.549892
 O    2.916011   -1.037604   -1.056379
 H    1.199446    0.913054   -1.467481
 H    0.026071    1.421361   -0.256882
 H    0.682595   -0.567638    1.168877
 H   -0.191490   -1.314058   -1.670055
 H   -0.362665   -2.326760   -0.237001
 H   -1.887871    0.279382   -2.215135
 H   -1.780407   -1.405893    1.725591
 H   -4.033373    1.389497   -1.686102
 H   -3.925053   -0.299138    2.259745
 H   -5.060367    1.106094    0.556294
 H    2.976558    3.242978    0.350134
 H    3.029515   -2.871357    0.278172
