17 
1ce5_ligand_xtb.xyz
 C    0.214446   -0.031986    0.018003
 C   -0.517199   -1.200046   -0.176698
 C   -1.898264   -1.164105   -0.198792
 C   -2.565424    0.037148   -0.019501
 C   -1.844494    1.200074    0.192034
 C   -0.461400    1.169225    0.209572
 C    1.690538   -0.106608    0.032597
 N    2.358337    1.034473   -0.341624
 N    2.235557   -1.182832    0.421284
 H    0.021674   -2.125221   -0.304425
 H   -2.458388   -2.074294   -0.355322
 H   -3.645075    0.066698   -0.037165
 H   -2.361640    2.136004    0.346948
 H    0.088756    2.079268    0.402022
 H    3.354421    0.970969   -0.479088
 H    1.880872    1.731762   -0.886130
 H    3.252903   -1.168893    0.412251
