23 
1cea_ligand_dft.xyz
 C   -2.787329    0.035798    0.097196
 O   -3.037597    1.145294    0.480334
 O   -3.752687   -0.894889    0.001921
 C   -1.380973   -0.417217   -0.290440
 C   -0.409145    0.760245   -0.255788
 C    1.036948    0.401762   -0.613629
 C    1.721904   -0.480262    0.437180
 C    3.169739   -0.826040    0.122439
 N    4.030772    0.425050    0.096775
 H   -3.405471   -1.732035   -0.333713
 H   -1.408424   -0.868296   -1.291734
 H   -1.086085   -1.214214    0.406122
 H   -0.445928    1.224817    0.735221
 H   -0.766871    1.523035   -0.952903
 H    1.578801    1.353345   -0.727947
 H    1.072630   -0.098177   -1.590984
 H    1.200189   -1.439260    0.522430
 H    1.657286   -0.014393    1.429957
 H    3.280056   -1.284784   -0.862835
 H    3.614120   -1.481346    0.873833
 H    5.012965    0.211014   -0.103117
 H    3.701689    1.081419   -0.618913
 H    3.995058    0.914584    0.997364
