23 
1cea_ligand_xtb.xyz
 C   -1.714665    0.412407    0.000482
 O   -0.896053    1.277472   -0.247745
 O   -2.892948    0.766257    0.469368
 C   -1.475016   -1.061229   -0.198634
 C   -0.115039   -1.423780   -0.809635
 C    0.989011   -1.712859    0.211980
 C    1.602668   -0.495944    0.910603
 C    2.399732    0.401209   -0.043945
 N    1.685890    1.683483   -0.282939
 H   -3.511038    0.037318    0.624721
 H   -2.272555   -1.420740   -0.855996
 H   -1.603739   -1.566023    0.763437
 H    0.188230   -0.638181   -1.503822
 H   -0.250475   -2.331944   -1.397215
 H    1.790974   -2.251636   -0.294939
 H    0.591926   -2.384216    0.974329
 H    2.264768   -0.865500    1.692970
 H    0.824427    0.088415    1.402351
 H    2.528803   -0.101690   -1.003117
 H    3.389745    0.619004    0.357828
 H    2.040451    2.176921   -1.105976
 H    0.638523    1.482516   -0.400411
 H    1.770606    2.302709    0.528321
