27 
1ceb_ligand_xtb.xyz
 C   -1.296936    0.081079    0.445779
 C   -0.705323    1.212521   -0.406660
 C    0.747432    1.492436   -0.030965
 C    1.588751    0.224331   -0.205465
 C    1.035900   -0.867181    0.714076
 C   -0.418380   -1.168023    0.359763
 C    3.058671    0.525285    0.087761
 C   -2.675455   -0.247811   -0.138655
 N    3.915943   -0.638143   -0.297483
 O   -2.807199   -0.965601   -1.085297
 O   -3.720490    0.347360    0.438172
 H   -1.383115    0.407523    1.487822
 H   -1.293587    2.122619   -0.282389
 H   -0.762227    0.921035   -1.457209
 H    0.803452    1.826755    1.006416
 H    1.133564    2.291593   -0.664794
 H    1.492846   -0.101708   -1.247063
 H    1.094976   -0.530745    1.751503
 H    1.604375   -1.798672    0.627344
 H   -0.484895   -1.559937   -0.656638
 H   -0.807794   -1.933166    1.032141
 H    3.199079    0.719143    1.152380
 H    3.389522    1.400419   -0.473299
 H    4.898906   -0.491275   -0.039300
 H    3.558056   -1.478455    0.180714
 H    3.856787   -0.796739   -1.311844
 H   -3.498003    0.898719    1.199795
