45 
1ch8_ligand_xtb.xyz
 P    4.830465   -0.027857   -0.001293
 N    0.391926    0.523999   -1.386935
 C   -0.485132   -0.060758   -2.262500
 N   -1.673248    0.457363   -2.226320
 C   -1.605220    1.446688   -1.280905
 C   -2.636980    2.299584   -0.771918
 O   -3.800195    2.396530   -1.085201
 N   -2.115929    3.124958    0.249831
 C   -0.834807    3.108323    0.710754
 N   -0.525349    3.934150    1.737037
 N    0.096566    2.328715    0.235691
 C   -0.322838    1.487953   -0.737337
 O    6.161655    0.372585    0.407437
 O    4.797649   -0.833337   -1.381888
 O    3.976840   -0.924593    1.030315
 P   -1.579648   -0.924719    1.628490
 O   -1.501034    0.320119    2.601507
 O   -2.000477   -2.191655    2.228348
 O   -2.591681   -0.397362    0.517297
 O   -0.128775   -0.877349    1.002168
 P   -3.118392   -1.567881   -0.529597
 O   -4.165546   -2.360159    0.331250
 O   -1.976334   -2.341647   -1.014176
 O   -4.026414   -0.803906   -1.522397
 C    0.499455   -2.092928    0.587063
 C    1.900666   -1.771249    0.058421
 O    1.886036   -1.278557   -1.267522
 C    1.778491    0.112248   -1.255836
 C    2.433801    0.604231    0.050418
 O    3.718585    1.120329   -0.183180
 C    2.599708   -0.687479    0.895371
 H   -0.195786   -0.877343   -2.891396
 H   -2.798196    3.726742    0.695728
 H    0.446415    4.000566    1.983355
 H   -1.129843    4.700931    1.971817
 H    5.688932   -1.017084   -1.677047
 H   -2.050700    0.170008    3.370368
 H   -3.709061   -2.811465    1.050759
 H   -3.503389   -0.198502   -2.076529
 H   -0.095393   -2.556784   -0.204981
 H    0.556866   -2.769475    1.442760
 H    2.490769   -2.691892    0.035478
 H    2.336895    0.487427   -2.126263
 H    1.825606    1.375472    0.530157
 H    2.167442   -0.603701    1.893839
