86 
1cj1_ligand_dft.xyz
 N    6.137034    0.113813    0.251111
 C    5.795078    1.403495    0.746207
 C    6.673554    2.130526    1.549215
 C    6.279615    3.363141    2.058083
 C    5.018535    3.876584    1.772408
 C    4.138995    3.151472    0.969976
 C    4.530592    1.915140    0.463477
 C    2.770950    3.693127    0.640638
 O    1.834531    2.620367    0.729066
 C    0.805824    2.625281   -0.146031
 O    0.550008    3.521778   -0.919270
 N    0.098879    1.460984   -0.000090
 C   -0.870174    1.074766   -1.013958
 C   -0.239967    0.741306   -2.381100
 C    1.033391   -0.059272   -2.258135
 C    2.267149    0.537687   -2.520661
 C    3.456289   -0.165705   -2.356041
 C    1.022510   -1.389857   -1.825454
 C    2.202971   -2.101687   -1.642978
 C    3.420287   -1.477154   -1.899622
 C   -1.744842   -0.068844   -0.487349
 O   -2.274052   -0.862700   -1.268132
 O    4.632587   -2.132291   -1.774570
 P    5.115375   -2.932037   -0.443893
 O    4.575770   -2.075162    0.767984
 O    4.170170   -4.227784   -0.346274
 O    6.555621   -3.215247   -0.546085
 N   -1.890163   -0.102367    0.853518
 C   -2.755096   -0.993923    1.643991
 C   -2.520171   -2.470218    1.267473
 C   -3.266710   -3.417693    2.208752
 C   -2.844727   -3.203308    3.662854
 C   -3.054683   -1.746403    4.078350
 C   -2.363630   -0.777204    3.115554
 C   -4.227411   -0.544338    1.422685
 O   -4.884931   -0.002505    2.303318
 N   -4.708987   -0.769787    0.174384
 C   -5.944665   -0.155303   -0.288007
 C   -6.599382   -1.065788   -1.296593
 C   -6.648338   -0.805237   -2.602110
 C   -6.052641    0.424122   -3.231828
 C   -5.099444    1.152852   -2.283928
 C   -5.718594    1.259826   -0.889332
 C   -4.863761    2.119297    0.035868
 N   -5.533363    2.725412    1.061061
 O   -3.665458    2.285410   -0.138914
 H    5.979746    0.032283   -0.750204
 H    7.102598   -0.141822    0.434217
 H    7.659539    1.733575    1.776785
 H    6.962910    3.924961    2.687527
 H    4.714941    4.835131    2.184112
 H    3.836912    1.328206   -0.132327
 H    2.478337    4.478830    1.344564
 H    2.732172    4.114818   -0.368581
 H    0.642086    0.707908    0.404354
 H   -1.563440    1.913504   -1.139020
 H   -0.988561    0.205144   -2.970308
 H   -0.026915    1.688067   -2.883873
 H    2.300066    1.570916   -2.857181
 H    4.412272    0.294039   -2.588815
 H    0.070586   -1.878675   -1.636835
 H    2.183487   -3.131753   -1.305234
 H    5.089405   -1.214750    0.787596
 H    4.690330   -5.016700   -0.549541
 H   -1.547180    0.719595    1.335522
 H   -1.439558   -2.651806    1.342072
 H   -2.797288   -2.658442    0.229695
 H   -4.348956   -3.256115    2.108853
 H   -3.075142   -4.451480    1.901091
 H   -3.407089   -3.869689    4.326503
 H   -1.783215   -3.468266    3.770111
 H   -2.667046   -1.578713    5.089446
 H   -4.124340   -1.516310    4.101108
 H   -1.275115   -0.909618    3.180342
 H   -2.596247    0.254411    3.400402
 H   -4.040466   -1.054241   -0.538497
 H   -6.585173   -0.071770    0.595574
 H   -7.020765   -1.986992   -0.901157
 H   -7.145764   -1.510712   -3.264822
 H   -6.866071    1.096038   -3.544049
 H   -5.526400    0.144752   -4.152305
 H   -4.149352    0.611991   -2.214850
 H   -4.863317    2.149942   -2.667205
 H   -6.709572    1.727444   -0.974121
 H   -4.938926    3.072405    1.801595
 H   -6.386904    2.292994    1.384545
