53 
1clu_ligand_dft.xyz
 C    6.972321   -0.963987   -0.190248
 N    5.982359    0.046149    0.166797
 P    4.545961    0.215150   -0.608735
 O    4.582023    1.594873   -1.392862
 O    4.214945   -1.004170   -1.408106
 N    3.428585    0.527340    0.634470
 P    1.951432    1.254242    0.344797
 O    1.481382    1.676639    1.771347
 O    2.063375    2.250902   -0.746600
 O    0.911837    0.069577   -0.122057
 P    1.137185   -1.525552    0.089030
 O    1.815503   -2.044898   -1.229235
 O    1.771376   -1.856754    1.382269
 O   -0.378609   -2.005672   -0.081323
 C   -0.765795   -3.273092    0.462711
 C   -2.279666   -3.319734    0.545851
 O   -2.753303   -2.299568    1.436733
 C   -3.221106   -1.579404   -0.787297
 O   -4.371584   -1.247847   -1.515922
 C   -3.027363   -3.096361   -0.770002
 O   -4.273098   -3.741099   -0.680366
 C   -3.341686   -1.259736    0.721387
 N   -2.653699   -0.006665    1.042683
 C   -2.883944    1.193540    0.430683
 N   -3.822531    1.424885   -0.531603
 C   -3.804365    2.662120   -0.966896
 N   -4.714775    3.063624   -1.901009
 N   -2.938663    3.609823   -0.500728
 C   -1.918481    3.426040    0.485712
 O   -1.209518    4.353281    0.802283
 C   -1.949308    2.065288    0.949434
 N   -1.148703    1.411725    1.857420
 C   -1.593527    0.178314    1.881038
 H    7.727304   -0.574033   -0.882118
 H    7.467167   -1.329390    0.713969
 H    6.458428   -1.798499   -0.668766
 H    6.337103    0.877947    0.619769
 H    3.695317    2.040191   -1.391833
 H    3.415425   -0.177717    1.371056
 H    0.476269    1.691762    1.916964
 H    2.766182   -1.731545   -1.342827
 H   -0.335021   -3.388234    1.461529
 H   -0.398192   -4.077713   -0.183985
 H   -2.571178   -4.285630    0.968672
 H   -2.326862   -1.090636   -1.188138
 H   -4.481828   -0.285197   -1.404302
 H   -2.450558   -3.447013   -1.636508
 H   -4.894031   -3.196015   -1.187388
 H   -4.394015   -1.151895    1.006586
 H   -4.470563    3.820364   -2.521876
 H   -5.241680    2.316809   -2.328971
 H   -3.005526    4.562204   -0.837523
 H   -1.177548   -0.631565    2.459579
