36 
1cs4_ligand_dft.xyz
 P   -3.500124   -0.929142    0.441045
 O   -2.785092   -1.079860    1.731853
 O   -4.471027    0.320943    0.329510
 O   -4.485059   -2.090069   -0.014259
 O   -2.471278    1.711477    1.606528
 C   -1.353927    2.044868    0.797547
 C   -1.428778    1.400285   -0.589057
 O   -0.379972    1.936503   -1.405394
 C   -1.250533   -0.136146   -0.617825
 O   -2.479809   -0.837756   -0.805718
 C   -0.347399   -0.353956   -1.824080
 C    0.494003    0.911712   -1.799855
 N    1.597690    0.831320   -0.828044
 C    2.093325    1.905307   -0.115804
 N    3.138444    1.626545    0.613910
 C    3.367287    0.290588    0.356452
 C    4.348599   -0.605284    0.822509
 N    5.290958   -0.230913    1.710913
 N    4.339144   -1.868269    0.375881
 C    3.383911   -2.221138   -0.493315
 N    2.402808   -1.482816   -1.004139
 C    2.438274   -0.225166   -0.541170
 H   -4.034147    1.079259    0.780723
 H   -4.094757   -2.962951    0.125387
 H   -2.317053    0.844552    2.026726
 H   -0.415843    1.761292    1.291251
 H   -1.357733    3.131279    0.678494
 H   -2.384562    1.657234   -1.060905
 H   -0.776618   -0.496790    0.301462
 H   -0.958908   -0.345435   -2.731305
 H    0.240983   -1.270134   -1.780165
 H    0.907335    1.184470   -2.773143
 H    1.615109    2.871994   -0.181364
 H    6.019968   -0.882873    1.950488
 H    5.363470    0.733341    1.991159
 H    3.420641   -3.255493   -0.826712
