32 
1cw2_ligand_dft.xyz
 O    4.226511    1.894584    0.763620
 O    2.501415    1.212166   -1.035581
 O   -1.818277   -2.366370   -0.876850
 C   -2.584460    1.452670   -1.001914
 C   -2.474762    0.175635   -0.454456
 C   -3.294963   -0.229889    0.613644
 C   -4.207047    0.693835    1.135497
 C   -4.293625    1.971124    0.601571
 C   -3.488328    2.361733   -0.470163
 O   -3.223675   -1.451971    1.165611
 S   -1.275753   -0.963598   -1.133450
 C    0.026561   -0.698546    0.116771
 C    1.183015   -1.660518   -0.127100
 C    2.227073   -1.641447    0.996395
 C    2.778925   -0.257485    1.372906
 P    3.436047    0.705167   -0.001068
 O    4.583528   -0.278160   -0.576864
 H    4.080310    2.731494    0.301025
 H   -1.950823    1.729628   -1.841051
 H   -4.840094    0.378568    1.958339
 H   -5.009841    2.672400    1.019811
 H   -3.573240    3.358176   -0.890227
 H   -2.744555   -2.050381    0.536410
 H    0.339239    0.344742    0.008839
 H   -0.435762   -0.852124    1.098850
 H    1.654918   -1.413687   -1.085034
 H    0.786812   -2.678021   -0.214223
 H    1.788137   -2.076656    1.901908
 H    3.060809   -2.289460    0.707525
 H    2.006235    0.367898    1.834393
 H    3.580168   -0.360015    2.112516
 H    4.738682   -0.107162   -1.516262
