14 
1cze_ligand_dft.xyz
 C   -1.560861   -0.098046   -0.014052
 O   -1.279726   -1.197256   -0.433233
 O   -2.794515    0.131902    0.452616
 C   -0.601033    1.078527    0.021044
 C    0.714970    0.833278   -0.728544
 C    1.720355   -0.030165    0.035515
 O    2.751175    0.416872    0.469277
 O    1.391942   -1.315345    0.198897
 H   -2.884936    1.047597    0.749802
 H   -0.407295    1.338373    1.070352
 H   -1.110387    1.943492   -0.422446
 H    1.207122    1.790880   -0.902453
 H    0.498110    0.377132   -1.700856
 H    0.505804   -1.488415   -0.178637
