54 
1czo_ligand_dft.xyz
 N   -0.650024    1.289389   -0.593008
 C   -1.333254    2.477964   -0.548687
 O   -2.545492    2.577545   -0.744227
 N   -0.571740    3.578316   -0.283964
 C    0.820643    3.617613   -0.121202
 O    1.402859    4.666542    0.111108
 C    1.454291    2.342254   -0.273754
 N    2.858238    2.309492   -0.261698
 C    3.465692    1.077830   -0.023818
 C    4.802086    0.993200    0.342943
 C    5.452312   -0.230569    0.514869
 C    6.908226   -0.269099    0.900812
 C    4.728519   -1.407952    0.319673
 C    5.378326   -2.758597    0.480604
 C    3.375227   -1.323129   -0.031182
 C    2.727484   -0.106438   -0.205389
 N    1.345055   -0.023095   -0.575870
 C    0.730331    1.209379   -0.475177
 C    0.610822   -1.192405   -1.037243
 C   -0.119143   -1.948447    0.090509
 O    0.767166   -2.731945    0.876938
 C   -1.154361   -2.937620   -0.468529
 O   -0.720993   -3.549103   -1.667255
 C   -2.515648   -2.291236   -0.712345
 O   -2.335473   -0.997479   -1.272383
 C   -3.284576   -2.230772    0.611612
 O   -4.482453   -1.469070    0.483487
 P   -4.427750    0.114692    0.801280
 O   -3.346547    0.496098    1.730579
 O   -5.930612    0.403994    1.266454
 O   -4.410838    0.772546   -0.641630
 H   -1.229642    0.456087   -0.729418
 H   -1.064504    4.459959   -0.225664
 H    3.269352    3.126828    0.169946
 H    5.356444    1.919194    0.477765
 H    7.053174   -0.774129    1.863530
 H    7.503962   -0.816660    0.160855
 H    7.325030    0.738092    0.987048
 H    4.653407   -3.566008    0.342151
 H    5.824520   -2.877988    1.475268
 H    6.184009   -2.906307   -0.249249
 H    2.829701   -2.250413   -0.160817
 H   -0.105489   -0.891390   -1.803105
 H    1.313097   -1.862592   -1.534158
 H   -0.630662   -1.216877    0.733126
 H    1.354776   -2.137581    1.361481
 H   -1.293094   -3.702035    0.311442
 H    0.059876   -4.075364   -1.453094
 H   -3.064294   -2.918654   -1.424737
 H   -3.206401   -0.606533   -1.457001
 H   -3.587975   -3.240417    0.901198
 H   -2.666552   -1.802442    1.406948
 H   -6.063646    0.150705    2.189581
 H   -3.732355    1.510552   -0.687261
