52 
1czr_ligand_xtb.xyz
 N   -1.012514    1.053139   -1.085216
 C   -1.763466    2.171469   -1.185846
 O   -2.866496    2.176918   -1.709700
 N   -1.240911    3.375623   -0.725867
 C   -0.024505    3.574134   -0.128363
 O    0.317861    4.640806    0.318641
 C    0.820724    2.351615   -0.151126
 N    2.052321    2.433275    0.231671
 C    2.826114    1.330978    0.150584
 C    4.186374    1.444316    0.473743
 C    5.038734    0.371029    0.385679
 C    6.487136    0.515553    0.727946
 C    4.524200   -0.871441   -0.047404
 C    5.431240   -2.051645   -0.179351
 C    3.184340   -1.002601   -0.352854
 C    2.299185    0.076025   -0.255559
 N    0.960397   -0.008453   -0.554180
 C    0.200449    1.125986   -0.611777
 C    0.305657   -1.274059   -0.823395
 C    0.027908   -2.071094    0.465887
 O    1.210496   -2.619189    1.036474
 C   -0.863428   -3.300922    0.192652
 O   -0.216764   -4.165212   -0.719161
 C   -2.270128   -3.046002   -0.384138
 O   -2.222651   -2.509533   -1.678381
 C   -3.164183   -2.169860    0.496299
 O   -2.532310   -0.951915    0.840801
 P   -3.402183    0.385472    0.890991
 O   -2.593733    1.555321    1.236565
 O   -4.504059   -0.006514    1.989692
 O   -4.257912    0.426107   -0.429008
 H   -1.881290    4.162108   -0.737718
 H    4.534786    2.416931    0.782482
 H    7.109722    0.286963   -0.136119
 H    6.702537    1.529480    1.051768
 H    6.764250   -0.171595    1.526225
 H    6.233293   -1.837913   -0.884459
 H    4.887034   -2.926083   -0.524856
 H    5.892273   -2.285736    0.779297
 H    2.829527   -1.966997   -0.677724
 H    0.904490   -1.870461   -1.513928
 H   -0.656411   -1.025718   -1.277388
 H   -0.476830   -1.419197    1.182092
 H    1.672444   -1.940163    1.536987
 H   -0.989102   -3.810585    1.161044
 H    0.667908   -4.325506   -0.368104
 H   -2.752550   -4.039009   -0.425044
 H   -1.631460   -3.070838   -2.196960
 H   -3.412179   -2.706769    1.416661
 H   -4.080034   -1.962395   -0.061481
 H   -4.935838    0.784148    2.307763
 H   -3.818457    1.006986   -1.095510
