35 
1d1p_ligand_dft.xyz
 N   -0.117796    0.741846    0.498923
 C   -0.647263    1.237297   -0.754646
 C   -2.133624    1.515452   -0.626245
 N   -2.856530    0.261561   -0.229364
 C   -2.287669   -0.220422    1.077628
 C   -0.797738   -0.466061    0.919950
 C   -4.331497    0.544907   -0.135448
 C   -5.091924   -0.731072    0.120740
 O   -4.581606   -1.723574   -0.765456
 C    1.324124    0.702175    0.589079
 C    2.005347   -0.320862   -0.340591
 S    3.787384   -0.263707   -0.251855
 O    3.995270   -0.725530    1.297007
 O    4.328351   -1.290577   -1.111822
 O    4.246644    1.111988   -0.340870
 H   -3.484354    2.203036    1.786480
 H   -0.474566    0.530007   -1.596080
 H   -0.145026    2.175066   -1.012942
 H   -2.555285    1.851129   -1.577293
 H   -2.387449    2.216238    0.199508
 H   -2.725178   -0.473706   -0.931859
 H   -2.797717   -1.149866    1.336439
 H   -2.546926    0.608051    1.777467
 H   -0.401575   -0.781585    1.890732
 H   -0.634598   -1.308312    0.211079
 H   -4.613969    0.976996   -1.099624
 H   -4.368358    1.313911    0.704395
 H   -6.156514   -0.535570   -0.062129
 H   -4.986312   -1.046097    1.167734
 H   -5.022086   -2.561552   -0.585681
 H    1.596069    0.472988    1.624683
 H    1.712884    1.699657    0.360970
 H    1.781110   -0.132813   -1.395196
 H    1.726757   -1.352569   -0.109975
 H    4.557417   -0.056492    1.720376
