35 
1d1p_ligand_xtb.xyz
 N   -0.121076   -0.114638   -1.370188
 C   -0.032267    3.399935   -0.487897
 C   -0.936888    2.942001    0.353168
 N   -2.822816    0.010957   -0.271932
 C   -1.972121   -1.138965   -0.023855
 C   -0.963862   -1.278680   -1.174649
 C   -3.747302    0.341340    0.790422
 C   -4.882477   -0.672928    1.002606
 O   -5.599831   -0.781650   -0.209837
 C    0.974371    0.022034   -0.426492
 C    2.183842   -0.783335   -0.872120
 S    3.533872   -0.319750    0.211892
 O    2.957531   -0.861105    1.629889
 O    4.708567   -1.095542   -0.057229
 O    3.653758    1.098348    0.278756
 H   -0.715260    0.706760   -1.326846
 H   -0.119819    3.260546   -1.553628
 H    0.839590    3.938147   -0.153734
 H   -1.806358    2.395569    0.025411
 H   -0.842748    3.086409    1.417287
 H   -3.355552   -0.135769   -1.125416
 H   -2.525140   -2.087486    0.074033
 H   -1.442402   -0.959050    0.917392
 H   -0.332533   -2.152955   -1.004394
 H   -1.516874   -1.435366   -2.106216
 H   -4.201235    1.303182    0.536369
 H   -3.188172    0.448902    1.723964
 H   -5.532706   -0.317387    1.813059
 H   -4.470968   -1.649722    1.294048
 H   -6.352989   -1.366181   -0.083270
 H    0.713538   -0.278618    0.598648
 H    1.279165    1.069659   -0.393326
 H    2.476609   -0.529503   -1.885545
 H    2.063704   -1.856010   -0.771714
 H    3.595449   -1.468188    2.008708
