51 
1d2s_ligand_xtb.xyz
 C    2.521090   -1.507425   -0.450446
 C    4.014464   -1.460240   -0.115338
 C    4.608799   -0.100762   -0.382724
 O    5.618127    0.063216   -1.021850
 C    3.825257    1.034695    0.224302
 C    2.338400    0.940871   -0.139067
 C    1.564478    2.123566    0.436828
 C    0.133847    2.108015   -0.085290
 C   -0.563664    0.791021    0.252854
 C    0.247322   -0.410493   -0.276078
 C    1.707336   -0.410931    0.260085
 C   -0.492201   -1.731658   -0.014276
 C   -1.923493   -1.735211   -0.559398
 C   -2.710187   -0.548244   -0.011880
 C   -1.948718    0.732273   -0.381531
 C   -2.949689    1.850329   -0.081500
 C   -4.314104    1.228814   -0.438180
 C   -4.055214   -0.273895   -0.712129
 O   -5.074456   -1.120150   -0.237584
 C   -2.969733   -0.720695    1.485434
 C    1.742580   -0.656248    1.772100
 H    2.402547   -1.396045   -1.531029
 H    2.146730   -2.494038   -0.175354
 H    4.162084   -1.688464    0.942479
 H    4.554354   -2.208245   -0.698974
 H    4.235996    1.981299   -0.132901
 H    3.952147    1.005844    1.308570
 H    2.273703    1.010356   -1.232356
 H    1.567586    2.080713    1.526820
 H    2.051743    3.055692    0.142009
 H    0.146110    2.239640   -1.170349
 H   -0.426259    2.940023    0.344505
 H   -0.667952    0.724958    1.337636
 H    0.314135   -0.288010   -1.365117
 H    0.048095   -2.549525   -0.492361
 H   -0.518623   -1.934779    1.054872
 H   -1.893748   -1.674559   -1.650484
 H   -2.415140   -2.671501   -0.290755
 H   -1.805835    0.712348   -1.469940
 H   -2.907408    2.130379    0.970926
 H   -2.749649    2.742679   -0.672944
 H   -5.019695    1.321713    0.387977
 H   -4.755840    1.710696   -1.310736
 H   -3.926886   -0.431070   -1.795941
 H   -5.895054   -0.892189   -0.685607
 H   -3.596472   -1.597106    1.627481
 H   -3.495668    0.135821    1.893610
 H   -2.049163   -0.857878    2.042411
 H    1.030888   -0.026957    2.296501
 H    2.727144   -0.454893    2.183814
 H    1.501346   -1.694136    1.988112
