83 
1d4j_ligand_xtb.xyz
 C   -1.433214   -2.740910   -2.012268
 O   -2.394800   -3.597017   -2.583701
 C   -1.897144   -1.284874   -2.207796
 O   -2.690949   -0.788563   -1.153674
 C   -4.056954   -1.194206   -1.192171
 C   -4.697137   -0.631033    0.046343
 C   -4.975051   -1.438634    1.140554
 C   -5.494064   -0.890133    2.301283
 C   -5.732228    0.471127    2.381051
 C   -5.455568    1.283846    1.294288
 C   -4.940858    0.734873    0.133836
 C   -0.714836   -0.331223   -2.434946
 O    0.215754   -0.607201   -3.160178
 N   -0.849205    0.850196   -1.804223
 C    0.026820    1.972029   -2.036679
 C   -0.496819    3.245291   -1.436938
 C   -1.800942    3.693240   -1.371009
 C   -2.057037    4.900594   -0.736051
 C   -1.023790    5.640337   -0.185024
 C    0.287660    5.191493   -0.258539
 C    0.544671    3.988916   -0.885867
 C    1.854091    3.284237   -1.083212
 C    1.435158    1.832770   -1.383352
 O    1.386401    1.066244   -0.204721
 C   -1.256546   -3.133873   -0.526995
 O   -1.038906   -4.515523   -0.442442
 C   -0.148127   -2.297265    0.131991
 O   -0.076197   -2.499985    1.532698
 C   -1.001292   -1.736843    2.281433
 C   -0.661045   -0.266242    2.296489
 C    0.557317    0.151781    2.820421
 C    0.884203    1.495954    2.849197
 C   -0.003863    2.437286    2.347542
 C   -1.214296    2.025462    1.810920
 C   -1.539889    0.678466    1.782052
 C    1.231243   -2.692078   -0.416162
 O    1.551905   -3.852738   -0.617816
 N    2.031984   -1.647608   -0.616375
 C    3.425316   -1.753671   -0.994132
 C    4.215125   -0.790260   -0.152392
 C    4.833565    0.324423   -0.705832
 C    5.509872    1.264085    0.049452
 C    5.569830    1.096043    1.421252
 C    4.960794    0.005857    2.016025
 C    4.289129   -0.922512    1.234811
Cl    3.523766   -2.268297    1.997240
 F    4.773223    0.508448   -2.040805
 H   -0.471208   -2.858755   -2.537950
 H   -2.229034   -4.474342   -2.202723
 H   -2.472085   -1.275879   -3.149046
 H   -4.133328   -2.285968   -1.222413
 H   -4.529286   -0.789590   -2.100037
 H   -4.788499   -2.501426    1.082689
 H   -5.709257   -1.527116    3.146192
 H   -6.133608    0.898485    3.287714
 H   -5.641009    2.346432    1.351738
 H   -4.722787    1.367223   -0.714846
 H   -1.622380    0.955243   -1.162418
 H    0.164499    2.074700   -3.122150
 H   -2.605580    3.119091   -1.806142
 H   -3.070991    5.266092   -0.670344
 H   -1.240911    6.576213    0.307653
 H    1.091236    5.770809    0.171351
 H    2.392086    3.709070   -1.932519
 H    2.503299    3.328474   -0.207675
 H    2.130785    1.311389   -2.041740
 H    0.777689    1.485425    0.420039
 H   -2.204523   -2.946631   -0.006561
 H   -0.072917   -4.659196   -0.513095
 H   -0.337724   -1.236575   -0.079008
 H   -2.024862   -1.877746    1.911430
 H   -0.934077   -2.146285    3.293806
 H    1.244384   -0.586224    3.204743
 H    1.829836    1.811104    3.264250
 H    0.242718    3.488716    2.373696
 H   -1.905669    2.756636    1.418127
 H   -2.484713    0.359857    1.367075
 H    1.696706   -0.705777   -0.446762
 H    3.738557   -2.788374   -0.822013
 H    3.543204   -1.518149   -2.056391
 H    5.972220    2.106063   -0.440291
 H    6.092589    1.818133    2.028877
 H    5.001915   -0.132075    3.084311
