46 
1d5j_ligand_dft.xyz
 C    1.505140   -1.091444   -0.246413
 C    2.370981   -1.779587    0.606027
 C    3.707289   -1.428524    0.645571
 C    4.187847   -0.395680   -0.171953
 C    3.317173    0.278317   -1.035045
 C    1.973471   -0.073100   -1.067593
 O    5.504628   -0.129398   -0.057174
 C    6.057326    0.892892   -0.862261
 S   -0.217413   -1.488936   -0.252466
 O   -0.768990   -1.303602   -1.584219
 O   -0.362082   -2.778659    0.421345
 N   -0.929779   -0.340312    0.720390
 C   -2.100196    0.438724    0.331670
 C   -1.872030    1.762773   -0.469864
 S   -0.263095    2.536891    0.015583
 C   -0.173981    2.345281    1.827491
 C    0.449265    1.030752    2.302331
 C   -0.430695   -0.200022    2.090281
 C   -1.774538    1.594648   -1.990953
 C   -3.020698    2.725815   -0.133850
 C   -3.248955   -0.441091   -0.193879
 N   -3.343131   -1.676122    0.362133
 O   -4.375601   -2.469204   -0.120916
 O   -4.151301   -0.033392   -0.919030
 H    1.992039   -2.589741    1.219911
 H    4.406004   -1.945724    1.293731
 H    3.667982    1.073044   -1.681744
 H    1.294065    0.453375   -1.727093
 H    5.596578    1.864431   -0.646375
 H    5.945660    0.665103   -1.929120
 H    7.117020    0.931155   -0.610087
 H   -2.497045    0.774801    1.298495
 H    0.447641    3.181258    2.161033
 H   -1.164955    2.505444    2.269465
 H    1.408931    0.888130    1.794155
 H    0.660503    1.108288    3.377248
 H    0.118494   -1.107101    2.357224
 H   -1.301084   -0.167915    2.757951
 H   -2.728420    1.230196   -2.377441
 H   -1.560559    2.564105   -2.453809
 H   -1.000129    0.882335   -2.275325
 H   -3.054080    2.957575    0.937613
 H   -2.890723    3.666766   -0.674694
 H   -3.975711    2.278349   -0.422260
 H   -2.536881   -2.244346    0.596676
 H   -4.804460   -1.866244   -0.762505
