14 
1d7i_ligand_dft.xyz
 S    1.146321    0.107318   -0.502389
 O    0.907495    1.538106   -0.115310
 C    2.543953   -0.480031    0.504015
 C   -0.121506   -0.916722    0.348682
 S   -1.780417   -0.648309   -0.311144
 C   -2.207864    0.912939    0.518689
 H    3.427861    0.072690    0.178438
 H    2.700491   -1.550637    0.343775
 H    2.353079   -0.267272    1.559715
 H    0.135321   -1.968313    0.188064
 H   -0.084957   -0.691647    1.420519
 H   -1.457650    1.674715    0.303275
 H   -3.176535    1.221672    0.119064
 H   -2.299540    0.762680    1.597854
