14 
1d7j_ligand_dft.xyz
 C    1.088756    1.333848    0.292460
 C    1.006950   -0.150932    0.010263
 O    1.886883   -0.739768   -0.577582
 C   -0.215518   -0.904544    0.526404
 C   -1.518825   -0.124338    0.478852
 O   -1.735376    0.270393   -0.862404
 H    2.066146    1.709812   -0.013060
 H    0.301949    1.846803   -0.271550
 H    0.924767    1.542510    1.356334
 H   -0.011324   -1.186574    1.568920
 H   -0.299370   -1.827556   -0.053388
 H   -1.462663    0.750442    1.145739
 H   -2.335238   -0.764196    0.845005
 H   -2.564500    0.759555   -0.905988
