40 
1d7x_ligand_dft.xyz
 C   -1.867732   -0.688533    0.070508
 C   -2.694606   -0.649537   -1.042699
 C   -3.952243   -0.060024   -0.949851
 C   -4.369208    0.486365    0.266381
 C   -3.523749    0.440186    1.387258
 C   -2.278756   -0.145847    1.291879
 S   -0.279991   -1.452981   -0.060003
 O   -0.112071   -1.917206   -1.429749
 O   -0.078525   -2.385571    1.048836
 O   -5.561812    1.080898    0.467440
 C   -6.467005    1.158759   -0.615907
 N    0.734343   -0.172056    0.276606
 C    2.022408   -0.444460    0.949495
 C    2.636505    0.959855    1.031761
 C    1.996277    1.701765   -0.113079
 C    2.909694   -1.373161    0.115547
 O    3.643167   -0.977542   -0.786002
 N    2.848195   -2.683070    0.447517
 O    3.488137   -3.559345   -0.415752
 C    0.933801    0.850183   -0.760219
 N    2.239006    2.878984   -0.522260
 O    3.247506    3.461701    0.231894
 C    3.546177    4.737000   -0.303707
 H   -2.354240   -1.080303   -1.978097
 H   -4.589393   -0.035585   -1.825529
 H   -3.875132    0.871916    2.317777
 H   -1.620634   -0.185169    2.153440
 H   -6.047930    1.742027   -1.444704
 H   -6.746629    0.160875   -0.974620
 H   -7.351349    1.664282   -0.228444
 H    1.823063   -0.886829    1.926727
 H    2.380090    1.445858    1.978455
 H    3.723693    0.950131    0.933642
 H    1.982752   -3.073423    0.810100
 H    3.834750   -2.951171   -1.100062
 H    0.004518    1.394837   -0.944758
 H    1.296273    0.413644   -1.699765
 H    2.660371    5.381528   -0.302999
 H    4.311807    5.156123    0.352077
 H    3.936463    4.653157   -1.323788
