54 
1d8f_ligand_xtb.xyz
 S    2.197404    1.607610    0.600327
 O    2.195711    2.227459    1.890432
 O    3.092442    2.104924   -0.411666
 C    0.529101    1.615037   -0.036667
 C    0.279551    1.416172   -1.384063
 C   -1.017501    1.464730   -1.846174
 C   -2.076520    1.729209   -0.968533
 C   -1.810870    1.917680    0.387491
 C   -0.506747    1.854920    0.844370
 O   -3.303464    1.794784   -1.530206
 C   -4.389792    2.240649   -0.747517
 N    2.662271    0.029481    0.834019
 C    2.989314   -0.748210   -0.349522
 C    2.211748   -2.068197   -0.349147
 N    0.885863   -1.847993    0.179876
 C    0.805107   -1.415684    1.561292
 C    2.113982   -0.702837    1.944428
 C   -0.167011   -1.813653   -0.670448
 O   -0.089806   -2.021565   -1.857910
 O   -1.327381   -1.557472   -0.026986
 C   -2.487703   -1.641772   -0.847547
 C   -3.717136   -1.258074   -0.076801
 C   -3.663007   -0.888867    1.259037
 C   -4.822382   -0.547516    1.937018
 C   -6.043928   -0.573365    1.287005
 C   -6.102848   -0.940684   -0.048348
 C   -4.946860   -1.280146   -0.726410
 C    4.507341   -0.974102   -0.349850
 N    5.181833    0.150949   -0.587900
 O    6.573788    0.129518   -0.504686
 O    5.056618   -2.044990   -0.150670
 H    1.097933    1.254587   -2.066451
 H   -1.240287    1.317718   -2.890855
 H   -2.607858    2.115485    1.085585
 H   -0.273129    2.020481    1.884530
 H   -4.200718    3.239918   -0.344428
 H   -5.239850    2.278829   -1.425990
 H   -4.612168    1.548785    0.068170
 H    2.731245   -0.147225   -1.224533
 H    2.740161   -2.804689    0.262994
 H    2.113181   -2.453243   -1.364288
 H   -0.044426   -0.737159    1.659004
 H    0.640764   -2.278704    2.218419
 H    2.863660   -1.425991    2.278989
 H    1.946251    0.021149    2.741765
 H   -2.582458   -2.669819   -1.222802
 H   -2.361730   -0.988638   -1.720306
 H   -2.711067   -0.875173    1.765712
 H   -4.769564   -0.264476    2.978092
 H   -6.946964   -0.309957    1.816985
 H   -7.053050   -0.963927   -0.560557
 H   -4.991662   -1.566582   -1.766782
 H    4.767255    1.078235   -0.610475
 H    6.779964   -0.811412   -0.334105
