50 
1d8m_ligand_dft.xyz
 C    1.030849   -1.841358   -0.311166
 C    1.981418   -2.288905   -1.228844
 C    3.285308   -1.839997   -1.125140
 C    3.641121   -0.944638   -0.108393
 C    2.682168   -0.508885    0.813365
 C    1.374259   -0.955540    0.705821
 O    4.930511   -0.552359   -0.101659
 C    5.350263    0.355005    0.898656
 S   -0.639120   -2.398601   -0.449814
 O   -0.777971   -3.115969   -1.708659
 O   -1.077304   -3.046036    0.786822
 N   -1.447960   -0.936697   -0.489074
 C   -2.776513   -0.841567    0.151301
 C   -3.719745    0.002763   -0.714001
 C   -3.091132    1.319439   -1.150014
 N   -1.787514    1.165224   -1.556211
 C   -1.256597   -0.161050   -1.719940
 O   -3.672720    2.385053   -1.137533
 C   -2.570656   -0.193446    1.524049
 N   -2.118600   -1.016251    2.486858
 O   -1.651994   -0.414164    3.647767
 O   -2.791937    0.992821    1.763682
 C   -0.944208    2.313941   -1.837880
 C    0.947991    2.663631    1.442774
 C   -0.075764    2.447091    0.528049
 C    0.190136    2.466357   -0.844578
 C    1.497158    2.674336   -1.280532
 C    2.523572    2.897237   -0.364181
 C    2.248528    2.902259    0.998969
 H    1.688563   -2.974580   -2.016445
 H    4.047991   -2.162207   -1.825268
 H    2.932300    0.196541    1.594284
 H    0.625760   -0.594090    1.403980
 H    6.408498    0.536302    0.710821
 H    5.227064   -0.073008    1.900833
 H    4.798516    1.300027    0.832860
 H   -3.202286   -1.840399    0.285943
 H   -4.629315    0.238315   -0.161337
 H   -3.999093   -0.577331   -1.601981
 H   -0.182422   -0.083427   -1.906928
 H   -1.720178   -0.673423   -2.574760
 H   -1.651250   -1.893731    2.277712
 H   -1.992616    0.496845    3.537546
 H   -1.606391    3.182934   -1.800524
 H   -0.548330    2.243494   -2.858623
 H    0.727221    2.658784    2.506457
 H   -1.089427    2.271169    0.878218
 H    1.714993    2.679803   -2.346156
 H    3.534801    3.072831   -0.720759
 H    3.042435    3.092031    1.716878
