50 
1d8m_ligand_xtb.xyz
 C    1.171174   -1.600525   -0.451373
 C    1.970475   -1.512470   -1.579181
 C    3.235100   -0.977745   -1.473867
 C    3.714126   -0.534740   -0.234628
 C    2.897379   -0.634496    0.892386
 C    1.624356   -1.161385    0.775790
 O    4.967095   -0.035405   -0.237199
 C    5.529053    0.417237    0.975608
 S   -0.466685   -2.274286   -0.580885
 O   -0.638907   -2.901911   -1.858510
 O   -0.777744   -3.041847    0.596630
 N   -1.392608   -0.874305   -0.492710
 C   -2.691308   -0.950473    0.175718
 C   -3.762648   -0.164428   -0.584118
 C   -3.243302    1.208989   -0.973875
 N   -2.015268    1.146260   -1.560407
 C   -1.392739   -0.130424   -1.736267
 O   -3.850761    2.241081   -0.817748
 C   -2.472181   -0.365639    1.576504
 N   -1.773675   -1.179681    2.373166
 O   -1.368383   -0.692243    3.619148
 O   -2.855459    0.726964    1.954648
 C   -1.218248    2.346075   -1.739202
 C    0.663131    2.404923    1.534553
 C   -0.364167    2.376405    0.610437
 C   -0.082265    2.386959   -0.750849
 C    1.239944    2.413553   -1.170264
 C    2.268335    2.460888   -0.244381
 C    1.980121    2.458497    1.108739
 H    1.589581   -1.882270   -2.518048
 H    3.883227   -0.895929   -2.331513
 H    3.240998   -0.307003    1.859413
 H    0.985670   -1.243820    1.639413
 H    6.532186    0.756661    0.723433
 H    5.593969   -0.388531    1.712128
 H    4.958036    1.250993    1.392989
 H   -2.983726   -2.003308    0.272181
 H   -4.638852   -0.032112    0.050289
 H   -4.053228   -0.708421   -1.485091
 H   -0.348766    0.006839   -2.028706
 H   -1.903904   -0.707835   -2.526871
 H   -1.333896   -2.046656    2.078404
 H   -1.827051    0.171706    3.676747
 H   -1.900748    3.184898   -1.573516
 H   -0.844885    2.383558   -2.767376
 H    0.436170    2.400004    2.590175
 H   -1.391924    2.352683    0.940046
 H    1.469690    2.417173   -2.226776
 H    3.292533    2.503335   -0.585465
 H    2.777982    2.510384    1.835825
