43 
1dar_ligand_dft.xyz
 P   -2.802767    1.467219   -0.577741
 O   -2.833255    0.368527   -1.563872
 O   -4.191938    1.898602    0.063251
 O   -2.164008    2.843668   -0.957280
 O   -1.892829    1.018383    0.737168
 P   -2.202675   -0.390966    1.455112
 O   -3.647210   -0.695243    1.478421
 O   -1.434267   -0.224126    2.843661
 O   -1.235693   -1.456639    0.790648
 C   -1.700590   -2.416114   -0.179046
 C   -0.489427   -3.069901   -0.821805
 O    0.137908   -2.183030   -1.757867
 C    0.624605   -3.492075    0.139897
 O    1.329310   -4.559713   -0.442761
 C    1.506519   -2.240611    0.188018
 O    2.834469   -2.588596    0.471264
 C    1.318600   -1.663245   -1.234197
 N    1.210753   -0.202045   -1.204756
 C    0.203403    0.554059   -1.732922
 N    0.330136    1.829102   -1.449679
 C    1.485189    1.912944   -0.705171
 C    2.117646    3.043209   -0.082616
 O    1.807865    4.213346   -0.057546
 N    3.295686    2.608464    0.605931
 C    3.763314    1.328382    0.696862
 N    4.878591    1.129943    1.461544
 N    3.174640    0.304417    0.129766
 C    2.041888    0.657732   -0.545034
 H   -4.626066    1.105189    0.425636
 H   -1.213880    2.710509   -1.252097
 H   -1.823958    0.478045    3.382546
 H   -2.298246   -1.907938   -0.940187
 H   -2.308534   -3.165932    0.335515
 H   -0.835985   -3.937745   -1.390094
 H    0.236007   -3.755022    1.132797
 H    2.247334   -4.470555   -0.145592
 H    1.108369   -1.534907    0.923132
 H    3.321336   -1.744920    0.482680
 H    2.166249   -1.936529   -1.871984
 H   -0.621993    0.108987   -2.266956
 H    3.757338    3.350496    1.116803
 H    5.541369    1.884918    1.553724
 H    5.293943    0.214734    1.369253
