43 
1dar_ligand_xtb.xyz
 P   -3.050196    0.155398   -0.505477
 O   -2.634545   -1.000260   -1.300707
 O   -4.398259   -0.003627    0.283033
 O   -3.211342    1.543951   -1.171175
 O   -1.935520    0.425723    0.689576
 P   -1.562613   -0.899495    1.502256
 O   -2.728054   -1.734092    1.795828
 O   -0.784981   -0.305059    2.746140
 O   -0.347048   -1.560029    0.747617
 C   -0.482228   -2.753220   -0.028277
 C    0.869725   -3.056611   -0.685194
 O    1.142945   -2.170807   -1.762229
 C    2.062658   -2.891582    0.273786
 O    3.127089   -3.702302   -0.133204
 C    2.383499   -1.395532    0.121105
 O    3.746427   -1.128777    0.291904
 C    1.885592   -1.082662   -1.316271
 N    1.096135    0.132378   -1.318708
 C   -0.089839    0.363411   -1.947755
 N   -0.572034    1.546858   -1.702984
 C    0.333600    2.146571   -0.867350
 C    0.328765    3.437482   -0.247258
 O   -0.469252    4.341439   -0.293635
 N    1.505597    3.592907    0.532139
 C    2.498291    2.675912    0.691821
 N    3.523523    3.000512    1.515689
 N    2.491709    1.498745    0.125962
 C    1.384887    1.265366   -0.624898
 H   -4.368893   -0.830385    0.779711
 H   -2.351453    1.828858   -1.555264
 H   -1.389367   -0.091314    3.456120
 H   -1.240513   -2.597971   -0.800334
 H   -0.785672   -3.573246    0.626225
 H    0.847148   -4.063065   -1.110532
 H    1.776083   -3.129920    1.306417
 H    3.940657   -3.195291   -0.000625
 H    1.785027   -0.829672    0.841067
 H    3.822777   -0.161543    0.294599
 H    2.742985   -0.940561   -1.995407
 H   -0.558266   -0.372137   -2.567946
 H    1.565098    4.477003    1.023674
 H    3.669524    3.956879    1.785335
 H    4.313115    2.379912    1.537158
