74 
1db1_ligand_xtb.xyz
 O   -8.403807    0.649284   -0.019871
 O    6.521493   -1.509421   -1.724083
 C   -5.760693   -1.924383    0.756081
 C   -7.170210   -1.385871    0.514425
 C   -7.120012    0.120126    0.243990
 C   -6.247574    0.398073   -0.982314
 C   -4.870659   -0.173816   -0.801729
 C   -3.767812    0.576033   -0.960890
 C   -2.415799    0.131910   -0.742082
 C   -1.294781    0.815737   -1.004584
 C   -1.223769    2.185899   -1.617618
 C   -4.860900   -1.589909   -0.414625
 C   -0.432754    3.145365   -0.720633
 C    0.942924    2.591648   -0.345200
 C    0.827885    1.202487    0.288610
 C    0.081467    0.297381   -0.724256
 C    0.287013   -1.105065   -0.166625
 C    1.720019   -1.062746    0.391117
 C    2.158469    0.422617    0.428916
 C    0.071505    1.272091    1.616829
 C   -4.135908   -2.522627   -1.021293
 C    3.049983    0.721857    1.644808
 C    3.493037    2.183996    1.708732
 C    4.284831   -0.198731    1.677783
 C    5.234474   -0.052274    0.490782
 C    6.451434   -0.963667    0.643139
 C    7.310419   -1.054128   -0.634695
 C    7.855370    0.313232   -1.046944
 C    8.473955   -2.025189   -0.391842
 O   -5.278991   -1.336520    1.955154
 H   -8.973448    0.468513    0.735177
 H    6.195247   -2.391912   -1.516183
 H   -5.804703   -3.019739    0.883002
 H   -7.778461   -1.585794    1.399685
 H   -7.613327   -1.897396   -0.342084
 H   -6.678474    0.617825    1.121188
 H   -6.205355    1.473300   -1.157269
 H   -6.732705   -0.065632   -1.846799
 H   -3.908113    1.610285   -1.244089
 H   -2.323305   -0.860505   -0.323657
 H   -2.214258    2.598624   -1.802055
 H   -0.714186    2.106536   -2.583495
 H   -1.007549    3.341129    0.185816
 H   -0.306236    4.098162   -1.240257
 H    1.559096    2.522965   -1.245888
 H    1.425955    3.294690    0.332584
 H    0.643431    0.357870   -1.666167
 H   -0.425800   -1.312519    0.630474
 H    0.165603   -1.869321   -0.933743
 H    1.746213   -1.493302    1.392406
 H    2.397981   -1.642741   -0.234226
 H    2.743858    0.639437   -0.470001
 H    0.460905    2.075409    2.237960
 H    0.165586    0.341409    2.167994
 H   -0.987006    1.451824    1.445157
 H   -3.513020   -2.291324   -1.867993
 H   -4.163018   -3.553745   -0.707310
 H    2.478910    0.503988    2.554030
 H    4.298481    2.297688    2.431770
 H    3.847685    2.528276    0.740995
 H    2.676034    2.826233    2.023679
 H    4.841077    0.019890    2.593920
 H    3.960416   -1.238893    1.743306
 H    4.724654   -0.315544   -0.436662
 H    5.566740    0.982039    0.415372
 H    7.077561   -0.616680    1.466895
 H    6.106485   -1.972255    0.894474
 H    7.041313    0.948653   -1.380748
 H    8.366908    0.785254   -0.213323
 H    8.551321    0.194242   -1.872898
 H    8.102977   -2.998142   -0.071857
 H    9.041266   -2.157038   -1.310363
 H    9.136819   -1.638346    0.377015
 H   -4.334611   -1.510432    2.025294
