49 
1dbk_ligand_xtb.xyz
 C    2.679958   -1.499130    0.541022
 C    3.111634   -1.507880   -0.924900
 C    3.782245   -0.201145   -1.264449
 O    4.871422   -0.126672   -1.775442
 C    2.955750    1.005604   -0.903422
 C    2.462470    0.977452    0.552561
 C    1.587141    2.201306    0.833646
 C    0.240173    2.118268    0.125394
 C   -0.497608    0.826217    0.475017
 C    0.380058   -0.408062    0.172987
 C    1.738734   -0.338666    0.915230
 C   -0.383916   -1.715996    0.437296
 C   -1.720978   -1.790687   -0.307206
 C   -2.569047   -0.569360    0.027200
 C   -1.776074    0.689561   -0.345475
 C   -2.827018    1.800960   -0.314482
 C   -4.047511    1.122268   -0.949117
 C   -3.845110   -0.375449   -0.776604
 O   -4.574537   -1.235047   -1.190564
 C   -3.054594   -0.621600    1.484975
 C    1.555934   -0.415651    2.438985
 H    2.218682   -2.455683    0.788020
 H    3.578915   -1.410874    1.156860
 H    3.803862   -2.330679   -1.111489
 H    2.244979   -1.638601   -1.575903
 H    2.106704    1.032144   -1.588531
 H    3.549973    1.906441   -1.069965
 H    3.353348    1.048583    1.188286
 H    1.423538    2.286971    1.908812
 H    2.114008    3.102663    0.512936
 H   -0.370466    2.974833    0.416969
 H    0.381215    2.174599   -0.955948
 H   -0.755343    0.853908    1.535636
 H    0.589782   -0.378454   -0.901713
 H   -0.564492   -1.831440    1.504991
 H    0.224105   -2.561323    0.113730
 H   -1.542453   -1.817922   -1.385066
 H   -2.244366   -2.708959   -0.037100
 H   -1.475712    0.570589   -1.395870
 H   -3.033477    2.112408    0.709607
 H   -2.516211    2.679688   -0.877363
 H   -4.997401    1.426705   -0.509422
 H   -4.109132    1.330207   -2.018889
 H   -3.685946    0.229773    1.723964
 H   -3.642555   -1.526558    1.625140
 H   -2.224660   -0.640333    2.183990
 H    0.822370    0.295880    2.802423
 H    2.500600   -0.205850    2.936546
 H    1.241611   -1.413036    2.735453
