38 
1det_ligand_dft.xyz
 P    0.624847    2.659558   -0.035156
 O    1.886726    2.868267   -0.773586
 O    0.757063    2.282992    1.502974
 O   -0.370409    3.915192   -0.015020
 O   -4.761502   -2.208627    0.540994
 C   -4.075530   -1.502866   -0.461845
 C   -3.348397   -0.297641    0.103180
 O   -2.445869   -0.744647    1.145006
 C   -2.479122    0.475057   -0.880012
 O   -3.238915    1.458131   -1.524802
 C   -1.413257    1.017067    0.058778
 O   -0.300426    1.502414   -0.672364
 C   -1.172989   -0.182179    1.001875
 N   -0.250604   -1.196824    0.478123
 C   -0.569021   -2.493503    0.103645
 N    0.463300   -3.193882   -0.266899
 C    1.527599   -2.334678   -0.125912
 C    2.922567   -2.528711   -0.428083
 O    3.523810   -3.499321   -0.829231
 N    3.635533   -1.301454   -0.220025
 C    3.120185   -0.123080    0.230886
 N    3.931735    0.968045    0.304861
 N    1.865852   -0.004921    0.609064
 C    1.108434   -1.104053    0.345770
 H    1.271549    1.427447    1.500271
 H    0.111317    4.743904   -0.137094
 H   -4.117530   -2.417471    1.230442
 H   -3.361070   -2.144997   -1.001664
 H   -4.820166   -1.156394   -1.183975
 H   -4.073537    0.385772    0.559576
 H   -2.001685   -0.208594   -1.600032
 H   -2.648447    1.946619   -2.112379
 H   -1.862503    1.819720    0.654745
 H   -0.804945    0.131323    1.981798
 H   -1.583204   -2.855975    0.156042
 H    4.608274   -1.355088   -0.494485
 H    3.434402    1.839061    0.112940
 H    4.827497    0.906869   -0.156171
