55 
1dhi_ligand_xtb.xyz
 N    6.008473    2.254151   -0.264909
 C    7.274374    2.070422    0.059383
 N    8.068543    3.155444    0.083736
 N    7.875213    0.903095    0.385875
 C    7.131685   -0.180167    0.393180
 N    7.672792   -1.362024    0.722522
 C    5.736125   -0.116204    0.057486
 N    4.970602   -1.213441    0.059499
 C    3.705507   -1.055515   -0.275139
 C    3.197481    0.218843   -0.602869
 N    3.924556    1.303472   -0.601214
 C    5.226792    1.169338   -0.272613
 C    2.818568   -2.275639   -0.263007
 N    1.658975   -2.092862    0.584261
 C    1.990282   -1.848251    1.969063
 C   -2.065700   -0.816288   -0.894488
 C   -1.633635   -0.440922    0.374486
 C   -0.400375   -0.836413    0.848164
 C    0.462232   -1.629806    0.077535
 C    0.023183   -1.990572   -1.205677
 C   -1.203382   -1.586031   -1.675351
 C   -3.368231   -0.429623   -1.483053
 O   -3.585351   -0.454993   -2.682658
 N   -4.341058   -0.096570   -0.593316
 C   -5.607513    0.425036   -1.032376
 C   -5.830958    1.829347   -0.487200
 O   -4.687712    2.489133   -0.324664
 O   -6.908015    2.310745   -0.248415
 C   -6.791340   -0.493263   -0.689834
 C   -6.736301   -1.013640    0.755671
 C   -6.605103    0.142889    1.712031
 O   -7.775215    0.530263    2.202712
 O   -5.561811    0.679359    1.997266
 H    7.684578    4.036922   -0.201709
 H    9.047436    3.043570    0.269177
 H    7.088918   -2.178278    0.679174
 H    8.654457   -1.425319    0.921221
 H    2.154773    0.341435   -0.870669
 H    2.504904   -2.495088   -1.283344
 H    3.403673   -3.124856    0.106351
 H    1.158764   -2.151921    2.604248
 H    2.235119   -0.798894    2.175418
 H    2.857856   -2.455449    2.225753
 H   -2.238890    0.197719    1.001752
 H   -0.098662   -0.500242    1.826616
 H    0.636526   -2.610100   -1.841452
 H   -1.528972   -1.868410   -2.665205
 H   -4.133689    0.010275    0.388071
 H   -5.531308    0.513727   -2.127840
 H   -4.851155    3.380017    0.022479
 H   -7.710559    0.074303   -0.840458
 H   -6.786950   -1.349129   -1.364150
 H   -5.873708   -1.670445    0.873237
 H   -7.652590   -1.558323    0.978350
 H   -7.684493    1.332326    2.741517
