55 
1dhj_ligand_dft.xyz
 N    3.544186    2.956011    0.372996
 C    2.412335    3.411860   -0.138227
 N    2.181466    4.744322   -0.044541
 N    1.418952    2.705579   -0.762345
 C    1.636114    1.411218   -0.957745
 N    0.732615    0.651525   -1.577780
 C    2.835467    0.797936   -0.438183
 N    2.950564   -0.533059   -0.495113
 C    3.934866   -1.082128    0.179173
 C    4.878790   -0.255800    0.840386
 N    4.807858    1.057156    0.874940
 C    3.732043    1.623213    0.263839
 C    3.931952   -2.599535    0.318150
 N    2.782860   -3.241525   -0.296328
 C    2.962068   -3.630132   -1.684069
 C   -1.007666   -1.725651    0.801289
 C   -0.821424   -2.359496   -0.426602
 C    0.409595   -2.900299   -0.779382
 C    1.511558   -2.818772    0.092566
 C    1.283614   -2.269054    1.370565
 C    0.056540   -1.730878    1.707280
 C   -2.275731   -1.047349    1.201625
 O   -2.566759   -0.839964    2.374122
 N   -3.076997   -0.644734    0.170848
 C   -4.373217   -0.063569    0.382978
 C   -5.418723   -0.863880   -0.378694
 O   -5.188306   -1.659233   -1.255796
 O   -6.665028   -0.542077    0.011922
 C   -4.461154    1.419572   -0.040621
 C   -3.336174    2.268488    0.546783
 C   -2.076713    2.282194   -0.291546
 O   -1.943526    1.674635   -1.342821
 O   -1.134902    3.039609    0.244592
 H    1.268594    5.103304   -0.269081
 H    2.784241    5.278989    0.559372
 H   -0.199152    1.028262   -1.747401
 H    0.852694   -0.352056   -1.515051
 H    5.720215   -0.709401    1.364981
 H    4.836133   -3.028863   -0.124154
 H    3.982433   -2.852611    1.384607
 H    2.748522   -2.807717   -2.383446
 H    3.994116   -3.953831   -1.832302
 H    2.318221   -4.480150   -1.927701
 H   -1.646004   -2.456129   -1.128621
 H    0.506267   -3.361518   -1.754188
 H    2.088262   -2.217436    2.095219
 H   -0.094586   -1.282649    2.683971
 H   -2.736362   -0.676897   -0.777090
 H   -4.575649   -0.140331    1.455140
 H   -7.270654   -1.062265   -0.540350
 H   -4.433692    1.491082   -1.133444
 H   -5.430170    1.804731    0.288875
 H   -3.654114    3.310742    0.662043
 H   -3.058396    1.922985    1.550054
 H   -0.288114    2.983439   -0.283719
