56 
1dis_ligand_xtb.xyz
 N   -1.996408    3.622237   -0.149030
 C   -1.597473    3.951507    1.081474
 N   -2.535014    4.424375    1.932248
 N   -0.348354    3.875647    1.530897
 C    0.582706    3.425282    0.696829
 N    1.851746    3.382840    1.171476
 C    0.269950    3.060843   -0.635471
 C   -1.051669    3.187645   -0.984477
 C    1.302621    2.511713   -1.577696
 C    1.932868    1.254314   -1.031182
 C    1.121842    0.251224   -0.516900
 C    1.692991   -0.892352    0.033826
 O    1.043757   -1.915761    0.624851
 C    3.083660   -1.010198    0.022577
Br    3.871853   -2.563162    0.760242
 C    3.908983   -0.024495   -0.507550
 O    5.240989   -0.269860   -0.455289
 C    3.316450    1.121782   -1.027052
 C    6.128111    0.682475   -0.984350
 C   -0.369469   -1.978283    0.646034
 C   -0.929147   -2.593178   -0.641472
 C   -2.298199   -3.238770   -0.431710
 C   -3.394801   -2.215358   -0.121946
 C   -3.882481   -1.491302   -1.393687
 C   -4.558350   -0.163612   -1.066118
 C   -4.612710   -2.836923    0.519179
 O   -4.784542   -4.124255    0.198982
 O   -5.394750   -2.243276    1.216333
 C   -3.548811    0.898032   -0.678362
 O   -2.379585    0.669381   -0.460537
 O   -4.081104    2.099277   -0.615466
 H   -3.502930    4.322303    1.684905
 H   -2.279843    4.528296    2.897367
 H    1.950380    3.523428    2.163282
 H    2.510865    2.770650    0.719929
 H   -1.395369    2.923980   -1.976824
 H    2.076125    3.262073   -1.763996
 H    0.817012    2.286577   -2.530967
 H    0.051260    0.379842   -0.538920
 H    3.925545    1.909824   -1.442058
 H    5.952537    0.845956   -2.052469
 H    7.123041    0.264493   -0.842331
 H    6.058171    1.637186   -0.452285
 H   -0.590883   -2.633797    1.493855
 H   -0.800472   -0.991616    0.836428
 H   -0.227553   -3.362419   -0.972260
 H   -0.980076   -1.827488   -1.416197
 H   -2.226312   -3.950313    0.393083
 H   -2.576048   -3.800975   -1.324730
 H   -3.012452   -1.463107    0.570030
 H   -4.571272   -2.138810   -1.940149
 H   -3.020735   -1.297828   -2.033123
 H   -5.125287    0.213395   -1.918723
 H   -5.256162   -0.284049   -0.233793
 H   -5.596044   -4.466118    0.607043
 H   -3.362663    2.797362   -0.417367
