76 
1dmp_ligand_xtb.xyz
 C    0.211643   -0.191537   -1.148979
 O    0.237413   -0.150742   -2.367254
 N    1.353817   -0.102158   -0.393992
 C    2.583979    0.207782   -1.118790
 C    1.545392   -0.799429    0.862952
 C    0.856632   -0.117079    2.052730
 O    1.343064   -0.728489    3.224571
 C   -0.668301   -0.217066    2.001592
 O   -1.147839    0.418431    3.173834
 C   -1.270525    0.427998    0.742140
 N   -0.980828   -0.332513   -0.459333
 C   -2.144555   -0.615235   -1.299020
 C    3.369478    1.245663   -0.366541
 C    4.530625    0.907113    0.315979
 C    5.210778    1.871081    1.041637
 C    4.743393    3.168214    1.098768
 C    3.580437    3.526606    0.415119
 N    3.066508    4.803584    0.518597
 C    2.907636    2.551202   -0.317579
 C    1.188051   -2.295349    0.761109
 C    2.148691   -2.988651   -0.160025
 C    3.413826   -3.345752    0.293487
 C    4.328702   -3.933107   -0.560986
 C    3.990457   -4.169625   -1.883410
 C    2.732524   -3.820220   -2.342907
 C    1.816770   -3.234660   -1.485822
 C   -0.897009    1.920174    0.621766
 C   -1.828331    2.611690   -0.330579
 C   -3.092757    3.006482    0.092569
 C   -3.981230    3.594574   -0.789248
 C   -3.616716    3.795417   -2.110199
 C   -2.359243    3.408169   -2.540677
 C   -1.470693    2.821142   -1.656555
 C   -3.151406   -1.425035   -0.533269
 C   -4.361809   -0.862694   -0.161204
 C   -5.292593   -1.586594    0.584250
 N   -6.461171   -0.987433    1.013757
 C   -4.983243   -2.894591    0.956801
 C   -3.777292   -3.456303    0.584887
 C   -2.861478   -2.731295   -0.156673
 H    3.180520   -0.699798   -1.262494
 H    2.284320    0.579124   -2.101264
 H    2.613715   -0.732640    1.092251
 H    1.137302    0.947587    2.055150
 H    0.809054   -0.391812    3.955077
 H   -0.956801   -1.278751    2.019864
 H   -2.106990    0.334153    3.202190
 H   -2.359434    0.373230    0.873442
 H   -2.597852    0.314949   -1.663139
 H   -1.778043   -1.171112   -2.164783
 H    4.907172   -0.104363    0.269672
 H    6.115449    1.607025    1.569316
 H    5.274679    3.916746    1.669065
 H    2.411939    5.079727   -0.195358
 H    3.713193    5.524407    0.794791
 H    2.014469    2.823988   -0.862871
 H    1.257171   -2.712953    1.766685
 H    0.168572   -2.403815    0.392150
 H    3.677654   -3.157421    1.324831
 H    5.308716   -4.205966   -0.196396
 H    4.705827   -4.624972   -2.552547
 H    2.463346   -3.999661   -3.373373
 H    0.842013   -2.952039   -1.855744
 H    0.133010    2.010462    0.279836
 H   -0.977125    2.363217    1.617018
 H   -3.380303    2.852283    1.123821
 H   -4.960163    3.897623   -0.445619
 H   -4.310603    4.252265   -2.800534
 H   -2.069911    3.558371   -3.570235
 H   -0.499998    2.502345   -2.006528
 H   -4.596341    0.151766   -0.457310
 H   -7.205225   -1.611811    1.281182
 H   -6.765312   -0.184850    0.485994
 H   -5.697025   -3.464282    1.534423
 H   -3.552272   -4.472816    0.872448
 H   -1.925125   -3.178672   -0.453377
