35 
1dqx_ligand_dft.xyz
 P    0.653485    2.551089   -0.631901
 O    0.386600    3.085098    0.845328
 O   -0.449252    2.469271   -1.595501
 O    1.878755    3.501481   -1.040871
 O    1.312202    1.092073   -0.404453
 C    2.373078    0.877527    0.518576
 C    2.401826   -0.598236    0.864982
 O    1.165044   -0.992481    1.505464
 C    2.543213   -1.547657   -0.315970
 O    3.164692   -2.717435    0.143087
 C    1.089490   -1.841033   -0.719507
 O    1.054887   -3.127541   -1.261350
 C    0.321885   -1.703518    0.623713
 N   -0.996887   -1.016027    0.473727
 C   -1.880594   -1.701756   -0.357665
 O   -1.572431   -2.765279   -0.886248
 N   -3.099473   -1.129277   -0.547465
 C   -3.592624    0.067724    0.017801
 O   -4.710442    0.449033   -0.256410
 C   -2.649470    0.680255    0.916961
 C   -1.428353    0.140403    1.124857
 O   -0.595734    0.740111    1.990127
 H   -0.151710    2.450463    1.359761
 H    1.749494    3.834350   -1.939122
 H    2.220742    1.476319    1.423470
 H    3.327241    1.172669    0.068481
 H    3.198708   -0.784602    1.588707
 H    3.100940   -1.087835   -1.143158
 H    2.760048   -3.443878   -0.358734
 H    0.724758   -1.081138   -1.418916
 H    0.111851   -3.351951   -1.350767
 H    0.124947   -2.689744    1.051524
 H   -3.721197   -1.626166   -1.172912
 H   -2.933579    1.579434    1.444542
 H    0.214731    0.185973    2.085936
