74 
1drv_ligand_dft.xyz
 P    0.862337   -1.337706    1.153106
 O    0.303881   -2.406036    2.183733
 O    0.759636    0.093330    1.461456
 O    2.354044   -1.795046    0.891250
 C    2.743045   -3.078229    0.392535
 C    4.150416   -2.930621   -0.159567
 O    4.142352   -1.990296   -1.241466
 C    5.190168   -2.403798    0.832552
 O    6.457051   -2.844754    0.414713
 C    5.076315   -0.886853    0.661237
 O    6.298215   -0.273485    0.957957
 C    4.680445   -0.770066   -0.830031
 N    3.688014    0.288484   -1.028523
 C    2.518490    0.242551   -1.741473
 N    1.854353    1.372327   -1.745081
 C    2.631443    2.212127   -0.976687
 C    2.508735    3.550208   -0.587906
 N    1.418506    4.321003   -0.943807
 N    3.448597    4.103503    0.179284
 C    4.491178    3.351929    0.553750
 N    4.739845    2.081485    0.243889
 C    3.775525    1.556728   -0.524414
 O    0.124408   -1.751718   -0.258189
 P   -1.503183   -1.753088   -0.317719
 O   -2.086330   -2.364137    0.898461
 O   -1.727478   -2.422478   -1.716853
 O   -1.896772   -0.219047   -0.417409
 C   -1.401599    0.627446   -1.467146
 C   -1.771159    2.056783   -1.129108
 O   -3.185195    2.263033   -1.212340
 C   -1.359658    2.503047    0.278733
 O   -1.162945    3.903396    0.332807
 C   -2.622975    2.216811    1.111491
 O   -2.787837    3.102487    2.178872
 C   -3.762512    2.320121    0.057532
 N   -4.754078    1.241815    0.211966
 C   -4.722961    0.134998   -0.548596
 C   -5.390692   -1.020481   -0.254596
 C   -5.099972   -2.152933   -1.096676
 O   -4.286820   -2.101698   -2.044476
 C   -5.773424   -3.466446   -0.778435
 C   -6.289825   -1.117377    0.963473
 C   -6.203004    0.149495    1.778920
 C   -5.486514    1.211091    1.412556
 H   -0.668980   -2.530132    2.057785
 H    2.062490   -3.384180   -0.407060
 H    2.708327   -3.811388    1.204167
 H    4.477519   -3.893860   -0.561294
 H    4.972536   -2.716199    1.863224
 H    7.080429   -2.145155    0.663870
 H    4.265470   -0.499227    1.283967
 H    6.134173    0.685856    0.885071
 H    5.561398   -0.530454   -1.435689
 H    2.204555   -0.670331   -2.226294
 H    0.988743    4.054969   -1.821960
 H    1.596828    5.315849   -0.866502
 H    5.226197    3.846239    1.182309
 H   -2.705822   -2.422608   -1.953921
 H   -0.313786    0.547990   -1.535925
 H   -1.862914    0.327094   -2.413295
 H   -1.309512    2.700948   -1.884165
 H   -0.489433    1.953331    0.653050
 H   -0.227542    4.083432    0.128524
 H   -2.589283    1.198891    1.505754
 H   -2.298899    3.901444    1.917976
 H   -4.293603    3.271193    0.180563
 H   -4.116103    0.189339   -1.439574
 H   -5.365661   -3.861758    0.160774
 H   -5.579094   -4.182382   -1.578220
 H   -6.852626   -3.344248   -0.637901
 H   -7.338210   -1.302444    0.677892
 H   -6.006330   -1.972528    1.595122
 H   -6.748252    0.194576    2.715848
 H   -5.405064    2.109734    2.014013
