40 
1dtq_ligand_dft.xyz
 C   -1.315014    2.070529    0.090977
 N   -0.372090    1.130414    0.073124
 C    0.900957    1.515252    0.094966
 C    1.300627    2.849980    0.116679
 C    0.302377    3.836590    0.145080
 C   -1.018138    3.447966    0.139686
 C    2.694638    3.173272    0.104311
 N    3.830186    3.408632    0.082895
 N   -2.651363    1.685088    0.053683
 C   -3.131929    0.432078   -0.381872
 S   -4.177466    0.365638   -1.679865
 N   -2.754489   -0.642243    0.313952
 C   -2.204039   -0.703081    1.661131
 C   -1.581054   -2.084005    1.896093
 C   -0.550343   -2.389154    0.842071
 N   -0.934174   -3.131859   -0.206235
 C   -0.057608   -3.311151   -1.191074
 C    1.224136   -2.767100   -1.214418
 C    1.628761   -1.986849   -0.132626
 C    0.712018   -1.831057    0.909569
 O    2.800056   -1.341435   -0.000646
 C    3.701142   -1.336157   -1.107673
 C    4.860915   -0.434365   -0.741953
 F    1.052936   -1.069474    1.961678
 H    1.647370    0.725721    0.101601
 H    0.570665    4.887431    0.170133
 H   -1.814887    4.184044    0.165290
 H   -3.260464    2.416727   -0.289543
 H   -3.048872   -1.521038   -0.095084
 H   -2.998297   -0.518399    2.395206
 H   -1.434783    0.059005    1.775917
 H   -2.350071   -2.861585    1.853170
 H   -1.142551   -2.095363    2.897823
 H   -0.396643   -3.918078   -2.026717
 H    1.873808   -2.942831   -2.063081
 H    3.177049   -0.967429   -1.999099
 H    4.040312   -2.361356   -1.304207
 H    4.520530    0.588513   -0.556620
 H    5.362947   -0.801809    0.157041
 H    5.585314   -0.413734   -1.561544
