40 
1dtq_ligand_xtb.xyz
 C   -1.150559    2.106360    0.049580
 N   -0.283762    1.128634    0.305186
 C    0.998102    1.422129    0.384667
 C    1.506014    2.707574    0.200785
 C    0.594266    3.745363   -0.042578
 C   -0.742814    3.444581   -0.113196
 C    2.897520    2.920006    0.240669
 N    4.036536    3.056943    0.253485
 N   -2.484611    1.808100   -0.079322
 C   -3.089864    0.577247   -0.312029
 S   -4.180794    0.504024   -1.551820
 N   -2.859136   -0.486232    0.454659
 C   -2.210540   -0.593124    1.740183
 C   -1.665434   -2.016108    1.904900
 C   -0.706290   -2.283414    0.782305
 N   -1.195894   -2.815781   -0.331081
 C   -0.392581   -2.956277   -1.367573
 C    0.932913   -2.554542   -1.386105
 C    1.474762   -1.987971   -0.233556
 C    0.616176   -1.887682    0.869665
 O    2.720247   -1.504766   -0.084860
 C    3.587753   -1.456695   -1.206006
 C    4.844403   -0.715146   -0.780436
 F    1.085288   -1.367940    2.025057
 H    1.665446    0.602746    0.605874
 H    0.946765    4.757438   -0.176898
 H   -1.476930    4.212128   -0.303537
 H   -3.020533    2.551569   -0.515358
 H   -3.301041   -1.335142    0.123063
 H   -2.933327   -0.377155    2.538177
 H   -1.389818    0.123803    1.793663
 H   -2.482841   -2.735810    1.855039
 H   -1.163103   -2.099430    2.868025
 H   -0.840903   -3.402938   -2.244172
 H    1.522184   -2.676354   -2.279799
 H    3.094302   -0.930658   -2.034074
 H    3.832169   -2.477262   -1.529449
 H    4.601446    0.300578   -0.478148
 H    5.307845   -1.224257    0.059962
 H    5.546580   -0.679525   -1.608027
