94 
1dub_ligand_dft.xyz
 N    5.030727   -1.208257   -3.618414
 C    4.032829   -0.650825   -2.923754
 N    4.039303   -0.224874   -1.662273
 C    5.225686   -0.420979   -1.075079
 C    6.350206   -0.984896   -1.663489
 C    6.211009   -1.383285   -3.007343
 N    7.232220   -1.922895   -3.703051
 N    7.406663   -1.052297   -0.775129
 C    6.918084   -0.539837    0.318634
 N    5.607006   -0.122988    0.215432
 C    4.803328    0.427214    1.291560
 C    4.220555    1.819036    1.002183
 O    4.229224    2.517265    2.221227
 C    2.788885    1.488210    0.567628
 O    1.879658    2.528978    0.934433
 P    1.309990    3.485779   -0.218971
 O    0.217888    4.321819    0.514611
 O    2.547640    4.494683   -0.394729
 O    0.935948    2.799472   -1.483215
 C    2.473340    0.214257    1.351053
 O    3.723123   -0.426381    1.581363
 C    1.585713   -0.740081    0.574490
 O    0.346347   -0.045128    0.367061
 P   -0.437566   -0.124338   -1.015247
 O   -1.702359    0.631649   -0.926817
 O    0.570673    0.253987   -2.165656
 O   -0.591403   -1.709448   -1.299705
 P   -1.718219   -2.611116   -0.539178
 O   -1.092851   -4.063263   -0.577646
 O   -2.055348   -2.123290    0.812388
 O   -2.847555   -2.603561   -1.638040
 C   -5.030434   -1.501327   -1.205637
 C   -4.248829   -2.814258   -1.356338
 C   -4.662146   -0.772789    0.095451
 C   -6.518761   -1.876274   -1.152325
 C   -4.732707   -0.623172   -2.464105
 O   -5.376462   -1.127144   -3.608318
 C   -5.183537    0.820922   -2.251732
 O   -6.352490    1.129647   -2.480578
 N   -4.237870    1.674915   -1.812468
 C   -4.548790    3.016125   -1.373097
 C   -4.549027    3.128654    0.157556
 C   -3.149509    3.024404    0.731336
 O   -2.299151    3.854588    0.385066
 N   -2.925381    2.059098    1.638729
 C   -1.626778    1.831379    2.249828
 C   -1.757689    1.263446    3.658846
 S   -2.410224   -0.439859    3.723968
 C   -0.895651   -1.335207    3.432298
 O    0.169854   -0.778706    3.302933
 C   -1.061088   -2.850956    3.440717
 C    0.195735   -3.556076    2.945000
 O    0.232795   -4.105946    1.858190
 C    1.402163   -3.544254    3.842170
 H    3.091895   -0.535366   -3.455261
 H    8.084735   -2.170575   -3.227774
 H    7.045941   -2.293218   -4.621093
 H    7.458591   -0.428007    1.250099
 H    5.462257    0.496175    2.162003
 H    4.786236    2.347309    0.224966
 H    3.528901    3.183170    2.168193
 H    2.753705    1.294592   -0.505752
 H   -0.746509    4.023361    0.437299
 H    2.494214    4.980413   -1.229008
 H    2.003393    0.474399    2.304702
 H    2.064313   -0.988790   -0.376330
 H    1.380078   -1.648347    1.142796
 H    0.771543    1.226520   -2.091092
 H   -0.634155   -4.223877    0.279879
 H   -4.361713   -3.433269   -0.459549
 H   -4.616127   -3.366814   -2.222633
 H   -3.648901   -0.366693    0.072968
 H   -4.721414   -1.458947    0.945999
 H   -5.373082    0.043709    0.268603
 H   -7.132647   -0.971328   -1.119313
 H   -6.816510   -2.455781   -2.030232
 H   -6.732542   -2.468200   -0.254782
 H   -3.654846   -0.645728   -2.649332
 H   -6.218601   -0.642967   -3.647342
 H   -3.300516    1.317455   -1.636920
 H   -5.537466    3.264939   -1.762122
 H   -3.819386    3.718824   -1.785752
 H   -4.921353    4.119592    0.440586
 H   -5.224217    2.381503    0.585452
 H   -3.591732    1.298866    1.680846
 H   -1.120062    2.797504    2.316980
 H   -1.017483    1.172876    1.626812
 H   -0.775169    1.250375    4.135164
 H   -2.437022    1.868387    4.265634
 H   -1.905803   -3.114531    2.803283
 H   -1.269494   -3.153803    4.474896
 H    2.164314   -4.220359    3.452939
 H    1.134170   -3.818432    4.867684
 H    1.794540   -2.521351    3.868506
