38 
1dud_ligand_dft.xyz
 N   -3.250553    0.422612   -0.022601
 C   -2.758103   -0.857163    0.168609
 N   -3.690138   -1.857102    0.079961
 C   -5.071635   -1.751280   -0.180632
 C   -5.490923   -0.374390   -0.387623
 C   -4.588879    0.617153   -0.312196
 O   -1.582065   -1.090823    0.417023
 O   -5.766557   -2.742529   -0.215880
 C   -2.344616    1.574190   -0.044254
 C   -1.514215    1.836302    1.209042
 C   -0.414937    2.716970    0.629698
 C   -0.207340    2.095650   -0.772868
 O   -1.424738    1.420476   -1.095351
 O   -0.942055    4.028947    0.540548
 C    0.970280    1.145328   -0.877436
 O    1.093396    0.401046    0.343641
 P    1.721205   -1.061296    0.370232
 O    2.127709   -1.431916    1.743327
 O    0.758966   -2.003633   -0.445875
 O    2.980967   -1.018041   -0.642074
 P    4.393704   -0.277971   -0.237701
 O    4.735995   -0.875851    1.180813
 O    4.320414    1.181102   -0.422233
 O    5.433026   -1.021961   -1.190165
 H   -3.336770   -2.793336    0.237245
 H   -6.530947   -0.178734   -0.607617
 H   -4.866181    1.652266   -0.473499
 H   -2.991158    2.438572   -0.238589
 H   -2.077050    2.354717    1.987056
 H   -1.092307    0.908051    1.592982
 H    0.501897    2.689953    1.228118
 H   -0.059575    2.892029   -1.513672
 H   -0.249376    4.615125    0.213376
 H    1.906512    1.694024   -1.016980
 H    0.813874    0.472182   -1.725797
 H   -0.180495   -1.854194   -0.181478
 H    3.925355   -1.132601    1.685736
 H    5.739160   -0.418700   -1.880597
