38 
1dud_ligand_xtb.xyz
 N   -3.179564    0.490742   -0.016579
 C   -2.698200   -0.802406    0.046792
 N   -3.653088   -1.778754    0.051252
 C   -5.044948   -1.639218   -0.000570
 C   -5.448972   -0.249424   -0.075883
 C   -4.525451    0.724184   -0.089674
 O   -1.515160   -1.077911    0.102898
 O   -5.757875   -2.610795    0.016069
 C   -2.252931    1.609730   -0.073589
 C   -1.368312    1.794643    1.160947
 C   -0.237949    2.636461    0.573235
 C   -0.129149    2.077231   -0.866916
 O   -1.376168    1.455399   -1.162045
 O   -0.632966    3.987822    0.591638
 C    1.030595    1.089586   -1.017378
 O    1.151262    0.322919    0.173800
 P    1.649636   -1.179261    0.126614
 O    1.818823   -1.696575    1.485570
 O    0.776354   -1.979896   -0.895704
 O    3.029316   -1.144576   -0.695756
 P    4.234181   -0.267712   -0.026686
 O    4.311069   -0.751950    1.456833
 O    4.080797    1.162764   -0.282486
 O    5.501901   -0.914976   -0.709250
 H   -3.303349   -2.730191    0.107626
 H   -6.501269   -0.032018   -0.126548
 H   -4.807305    1.765244   -0.153389
 H   -2.863806    2.514947   -0.223781
 H   -1.880677    2.315020    1.965335
 H   -0.975804    0.836904    1.495169
 H    0.702265    2.491133    1.111994
 H    0.011258    2.893019   -1.589062
 H    0.111065    4.542557    0.334481
 H    1.971826    1.626867   -1.165418
 H    0.838192    0.436359   -1.871918
 H   -0.150990   -1.895733   -0.619135
 H    3.485285   -1.200817    1.735143
 H    5.887679   -0.305111   -1.336460
