39 
1dy4_ligand_dft.xyz
 C   -0.814070   -0.739197   -0.644141
 C   -1.127289   -1.958065   -1.177130
 C   -2.445229   -2.454284   -1.047903
 C   -3.398186   -1.717681   -0.394766
 C   -4.054084    0.327098    0.852609
 C   -3.725777    1.544949    1.389096
 C   -2.408791    2.045919    1.267576
 C   -1.445984    1.321858    0.612129
 C   -1.763207    0.060274    0.045709
 C   -3.085624   -0.450840    0.166394
 O    0.492124   -0.260369   -0.750269
 C    0.756840    0.548942   -1.893939
 C    1.982673    1.417167   -1.610057
 O    1.718551    2.469704   -0.699840
 C    3.111509    0.626783   -0.947038
 N    2.740378    0.389564    0.485933
 C    3.628000   -0.533096    1.212569
 C    3.353355   -1.998925    1.063637
 C    3.046049   -1.298390    2.360845
 H   -0.364879   -2.534633   -1.691877
 H   -2.693084   -3.421921   -1.470761
 H   -4.410807   -2.097362   -0.295711
 H   -5.064257   -0.060917    0.946710
 H   -4.475597    2.130070    1.911365
 H   -2.162725    3.010748    1.700361
 H   -0.434842    1.707423    0.520045
 H    0.944914   -0.094938   -2.762553
 H   -0.109760    1.183405   -2.116076
 H    2.355397    1.804211   -2.567677
 H    1.080997    3.087256   -1.080007
 H    3.258763   -0.348611   -1.413822
 H    4.048972    1.185341   -0.958971
 H    2.676232    1.300466    0.951564
 H    1.768892    0.021696    0.451376
 H    4.647407   -0.165677    1.257682
 H    2.509029   -2.292852    0.445166
 H    4.206762   -2.665486    1.012594
 H    2.000670   -1.136105    2.609239
 H    3.688751   -1.468817    3.217156
