24 
1dzp_ligand_xtb.xyz
 C    3.601049    0.241225    0.515930
 C    3.681104   -0.973252   -0.146816
 C    2.560368   -1.498997   -0.769816
 C    1.354360   -0.824413   -0.718284
 C    1.265248    0.392537   -0.045918
 C    2.402093    0.926750    0.556929
 C    0.000168    1.170597    0.000506
 C   -1.355013   -0.824460    0.719452
 C   -1.264801    0.392083    0.046431
 C   -2.400970    0.926533   -0.557498
 C   -3.600133    0.241356   -0.517861
 C   -3.681430   -0.972531    0.145718
 C   -2.561669   -1.498038    0.770647
 O   -0.000155    2.385276    0.000482
 H    4.475915    0.654627    0.995606
 H    4.619010   -1.507630   -0.184670
 H    2.627372   -2.438622   -1.298371
 H    0.486162   -1.228003   -1.218921
 H    2.322437    1.878951    1.060120
 H   -0.487490   -1.228523    1.221037
 H   -2.320268    1.878787   -1.060381
 H   -4.474314    0.654900   -0.998537
 H   -4.619667   -1.506348    0.182999
 H   -2.630149   -2.436674    1.300739
