34 
1e2k_ligand_xtb.xyz
 O    2.861805    2.308482    0.024238
 O    3.497735   -1.125559   -1.528733
 O    0.125108    1.524815   -0.235279
 O   -4.385644    1.441289   -0.267023
 N   -0.874396   -0.503106    0.120214
 N   -2.124871    1.412559   -0.241230
 C    2.562206   -0.065563    0.477009
 C    2.404027   -0.402597   -1.002976
 C    1.154826   -1.297134   -1.102364
 C    0.391940   -1.224355    0.234612
 C    1.348505   -0.563427    1.207385
 C    2.668319   -1.255331    1.384900
 C    3.259365    1.232898    0.828675
 C   -0.877641    0.851434   -0.127447
 C   -3.369534    0.797579   -0.143544
 C   -3.272978   -0.633488    0.111707
 C   -2.053703   -1.191876    0.223567
 C   -4.547890   -1.401298    0.237167
 H    1.893954    2.298156   -0.032892
 H    4.278998   -0.564164   -1.491899
 H   -2.131664    2.411145   -0.421820
 H    2.264126    0.529623   -1.566091
 H    0.517502   -0.994516   -1.931222
 H    1.497548   -2.313453   -1.293705
 H    0.129578   -2.229314    0.580005
 H    0.916196   -0.021901    2.036641
 H    3.179484   -1.123571    2.326620
 H    2.811850   -2.225928    0.936402
 H    3.080990    1.453719    1.893549
 H    4.341742    1.131522    0.683715
 H   -1.948976   -2.251613    0.410420
 H   -5.136033   -1.288433   -0.671901
 H   -5.141634   -0.995706    1.054687
 H   -4.355485   -2.455002    0.416844
