39 
1e37_ligand_xtb.xyz
 C    1.827168   -1.531656   -1.226113
 C    3.111397   -0.962128   -0.672379
 C    2.826985   -0.365722    0.728422
 C    2.950274   -1.441160    1.795189
 C    3.751831    0.065325   -1.613902
 C    4.166578   -0.574007   -2.934505
 O    1.018209   -0.918275   -1.872106
 O    3.033848   -0.913828    3.014523
 O    2.954159   -2.623395    1.587406
 O    0.039952    2.722445    1.611487
 O   -0.146388    3.270007   -0.795254
 S   -0.093597    2.300846    0.251575
 N    1.173738    1.280415   -0.091724
 C    1.422609    0.252143    0.885167
 C   -1.523850    1.216319    0.116547
 C   -2.104460    0.715103    1.266833
 C   -1.966835    0.857573   -1.143740
 C   -3.163897   -0.168385    1.160328
 C   -3.025051   -0.025165   -1.261423
 C   -3.610446   -0.530333   -0.105512
 N   -4.719076   -1.457158   -0.222012
 O   -5.099859   -1.735408   -1.335835
 O   -5.190796   -1.893445    0.803676
 H    1.655215   -2.590386   -0.965200
 H    3.807275   -1.796778   -0.533328
 H    3.561898    0.415067    0.940933
 H    3.059934    0.884947   -1.803578
 H    4.634279    0.480178   -1.122958
 H    3.299953   -0.959946   -3.465647
 H    4.654853    0.161167   -3.568673
 H    4.860202   -1.394897   -2.764245
 H    3.094209   -1.607143    3.692326
 H    1.089118    0.921308   -1.036476
 H    1.351667    0.740418    1.859958
 H    0.667385   -0.549911    0.837735
 H   -1.725271    1.037450    2.223525
 H   -1.487638    1.281921   -2.011107
 H   -3.650402   -0.580671    2.031361
 H   -3.404574   -0.331303   -2.224327
