39 
1e37_ligand_dft.xyz
 C    2.791442   -0.670270   -1.912291
 C    3.568053   -0.455431   -0.623157
 C    2.730980   -0.855204    0.620173
 C    2.728810   -2.366357    0.763249
 C    4.132806    0.975974   -0.532450
 C    5.079866    1.307513   -1.685111
 O    1.850930    0.021133   -2.247546
 O    2.339471   -2.755338    1.988114
 O    2.999992   -3.148066   -0.117682
 O   -0.039060    1.656054    2.467624
 O   -0.112815    3.161643    0.413003
 S   -0.140464    1.851583    1.033144
 N    1.089163    0.996099    0.327899
 C    1.247932   -0.414429    0.649919
 C   -1.648071    1.034691    0.507229
 C   -2.240892    0.098671    1.349558
 C   -2.170197    1.316987   -0.753378
 C   -3.376241   -0.578901    0.922432
 C   -3.304225    0.642987   -1.185250
 C   -3.881369   -0.295166   -0.338471
 N   -5.082287   -1.014745   -0.795827
 O   -5.521918   -0.733261   -1.898452
 O   -5.560099   -1.848486   -0.043759
 H    3.119312   -1.501491   -2.561580
 H    4.419360   -1.144480   -0.655389
 H    3.213843   -0.425352    1.504544
 H    3.322932    1.707260   -0.489154
 H    4.670304    1.057792    0.419783
 H    4.554522    1.316600   -2.646450
 H    5.524261    2.297057   -1.544930
 H    5.896598    0.579296   -1.751835
 H    2.327639   -3.726446    1.984824
 H    1.154788    1.172759   -0.675003
 H    0.875410   -0.580798    1.663036
 H    0.656446   -1.036582   -0.035422
 H   -1.825057   -0.078081    2.335264
 H   -1.702047    2.067737   -1.381107
 H   -3.870354   -1.310311    1.549336
 H   -3.744025    0.834422   -2.155847
