39 
1e55_ligand_dft.xyz
 C    1.098049    0.859951   -0.285886
 C    2.426654    1.123336    0.416951
 C    3.411432    0.032943    0.022918
 C    2.826142   -1.349076    0.287424
 C    1.465600   -1.467796   -0.397585
 C    0.728613   -2.759081   -0.082401
 O    0.199322    1.830783    0.144925
 O    2.993726    2.356466    0.037868
 O    4.620388    0.125011    0.743715
 O    3.669366   -2.357349   -0.215577
 O    0.620539   -0.413596    0.056463
 O   -0.519645   -2.805435   -0.729117
 N   -1.925874    4.357595   -0.220673
 C   -1.507933    3.293321   -0.394045
 C   -2.024641    0.879275   -0.277741
 C   -2.434146   -0.047952   -1.228455
 C   -2.527118    0.789114    1.022609
 C   -3.417780   -0.211782    1.368217
 C   -3.330555   -1.059829   -0.895137
 C   -3.821550   -1.145183    0.408128
 O   -4.688035   -2.106644    0.806006
 C   -0.992321    1.929501   -0.625633
 H    1.233317    0.929372   -1.382740
 H    2.245876    1.075926    1.500763
 H    3.603786    0.120602   -1.059563
 H    2.681765   -1.459449    1.374722
 H    1.599833   -1.391087   -1.488362
 H    1.318863   -3.605187   -0.440060
 H    0.624105   -2.849013    1.010524
 H    2.385834    3.053294    0.317165
 H    4.967529    1.015161    0.598906
 H    4.555464   -2.162262    0.118824
 H   -1.012030   -2.024468   -0.438464
 H   -2.038146   -0.004693   -2.239751
 H   -2.205498    1.505191    1.773293
 H   -3.811331   -0.294751    2.375385
 H   -3.630447   -1.787742   -1.644496
 H   -4.861310   -2.710045    0.073098
 H   -0.744456    1.851646   -1.694983
