13 
1e5a_ligand_xtb.xyz
 O   -2.592644    0.136798   -0.000543
 C   -1.259063    0.040981    0.000195
 C   -0.560301   -1.168459    0.000680
 C    0.821675   -1.220945    0.001201
 C    1.533980   -0.033864   -0.000152
 C    0.883442    1.189721   -0.001230
 C   -0.497940    1.215397   -0.000290
Br   -1.568321   -2.793505   -0.000057
Br    3.431154   -0.085202   -0.000042
Br   -1.421536    2.866351    0.000279
 H   -3.006537   -0.740651   -0.003608
 H    1.331316   -2.171456    0.002263
 H    1.440229    2.113231   -0.003041
