13 
1e5a_ligand_dft.xyz
 O   -2.604459    0.160533    0.000534
 C   -1.267109    0.053654    0.000584
 C   -0.583936   -1.168162    0.000103
 C    0.801496   -1.241563    0.000027
 C    1.531383   -0.062041    0.000107
 C    0.891267    1.171054   -0.000196
 C   -0.494918    1.221740    0.000045
Br   -1.604798   -2.766074   -0.000109
Br    3.420706   -0.134162    0.000024
Br   -1.364532    2.891929   -0.000083
 H   -2.993337   -0.727951   -0.001470
 H    1.297867   -2.204243    0.000016
 H    1.463891    2.090603   -0.000951
