90 
1e5j_ligand_xtb.xyz
 C    6.347772    0.238054    1.204195
 C    7.244890    0.092750   -0.029965
 C    7.912155    1.449995   -0.271356
 C    6.837316    2.535553   -0.411928
 C    5.892593    2.510640    0.797346
 C    4.691075    3.442305    0.573466
 O    8.253034   -0.865617    0.154009
 O    8.684576    1.448437   -1.447154
 O    7.416702    3.807940   -0.502222
 O    5.370342    1.208824    1.006896
 O    3.791067    3.430107    1.638249
 C    1.889779   -1.550044   -0.934021
 C    3.043450   -2.319362   -1.599687
 O    2.739998   -3.646036   -1.932944
 C    4.237638   -2.375709   -0.612935
 O    5.460913   -2.211460   -1.282494
 C    4.106340   -1.292466    0.452518
 C    2.813090   -1.482028    1.245973
 O    1.734931   -1.892716    0.409206
 C    2.446237   -0.212498    2.038223
 O    2.337747    0.941329    1.248719
 S    5.511352   -1.334558    1.618862
 C   -3.416199    0.205720   -0.519305
 C   -2.153281    1.033592   -0.253929
 O   -2.275526    2.349098   -0.720281
 C   -0.975498    0.388223   -0.994772
 O    0.219367    1.058999   -0.673573
 C   -0.847991   -1.085914   -0.620079
 C   -2.189298   -1.821186   -0.691770
 O   -3.219202   -1.101507   -0.028087
 C   -2.108716   -3.180054    0.025729
 O   -1.810245   -3.029202    1.381702
 S    0.300645   -1.933457   -1.760992
 C   -8.598996    0.526432    0.549048
 C   -7.834090   -0.770330    0.836853
 C   -6.325148   -0.515978    0.988742
 C   -5.781570    0.353872   -0.152099
 C   -6.667877    1.596730   -0.325777
 C   -6.257466    2.423871   -1.552238
 C  -10.792181    1.277238    0.173503
 O   -9.886564    0.190905    0.198455
 O   -8.346141   -1.316877    2.018360
 O   -5.710520   -1.779472    1.047273
 O   -4.461616    0.806053    0.155270
 O   -8.012613    1.236770   -0.528624
 O   -6.957550    3.631032   -1.615128
 H    6.972625    0.454602    2.085191
 H    6.621111   -0.166651   -0.898604
 H    8.552635    1.681930    0.595857
 H    6.258178    2.314288   -1.324860
 H    6.448098    2.833022    1.690124
 H    5.068284    4.461538    0.472506
 H    4.196831    3.146110   -0.362510
 H    7.822786   -1.712041    0.334695
 H    9.225547    0.649484   -1.428369
 H    8.133794    3.745098   -1.146804
 H    3.391651    2.545869    1.678472
 H    2.051972   -0.472575   -1.065183
 H    3.347651   -1.758844   -2.500366
 H    1.867189   -3.686467   -2.343582
 H    4.197231   -3.359730   -0.121341
 H    5.560327   -2.936062   -1.910319
 H    4.140511   -0.299280    0.002283
 H    2.941208   -2.302241    1.963598
 H    3.244867   -0.017119    2.757199
 H    1.514592   -0.407677    2.584372
 H    1.562306    0.876333    0.668250
 H   -3.614357    0.159873   -1.609869
 H   -1.962404    1.015186    0.830322
 H   -3.039317    2.755548   -0.293096
 H   -1.169134    0.475470   -2.076456
 H    0.060169    2.005404   -0.792747
 H   -0.421621   -1.195200    0.380487
 H   -2.468990   -1.965015   -1.747344
 H   -3.061957   -3.705816   -0.116513
 H   -1.301167   -3.770938   -0.408944
 H   -2.511119   -2.510328    1.794649
 H   -8.577670    1.164289    1.457749
 H   -7.994931   -1.449450   -0.013460
 H   -6.155432    0.027827    1.933847
 H   -5.776930   -0.227277   -1.082956
 H   -6.573150    2.215243    0.582053
 H   -6.438878    1.817531   -2.451085
 H   -5.197799    2.678587   -1.495015
 H  -11.763910    0.848096   -0.057893
 H  -10.516135    2.004521   -0.594740
 H  -10.829307    1.774723    1.148746
 H   -7.837751   -2.116158    2.207430
 H   -4.774285   -1.673900    0.815667
 H   -7.898995    3.421155   -1.582833
