34 
1e9h_ligand_xtb.xyz
 C   -3.866658    0.028774    0.039601
 C   -3.214226   -1.216279   -0.017468
 C   -3.942417   -2.394488   -0.053876
 C   -5.325538   -2.309683   -0.032602
 C   -5.961638   -1.075323    0.023120
 C   -5.245706    0.113879    0.060080
 C   -1.771784   -0.971255   -0.030263
 O   -0.866080   -1.771985   -0.106786
 C   -1.663726    0.533561    0.037645
 C   -0.560226    1.341368    0.034141
 C   -0.700518    2.816158   -0.006804
 O   -1.723929    3.478032   -0.003236
 N    0.569948    3.325380   -0.067295
 N   -2.925219    1.033236    0.068981
 C    0.854697    1.070066    0.027665
 C    1.606649   -0.093430    0.095567
 C    2.981503    0.031364    0.062630
 C    3.628667    1.248401   -0.029478
 C    2.892689    2.425554   -0.077077
 C    1.515405    2.321013   -0.044058
 S    3.952955   -1.455120    0.124003
 O    3.561214   -2.129433   -1.291653
 O    3.464458   -2.327450    1.148258
 O    5.339864   -1.128387    0.087186
 H   -3.434115   -3.344959   -0.097415
 H   -5.918162   -3.210871   -0.060019
 H   -7.040628   -1.038092    0.037858
 H   -5.746772    1.068186    0.102949
 H    0.775111    4.311024   -0.107272
 H   -3.091611    2.033881    0.087651
 H    1.144689   -1.062302    0.179396
 H    4.705900    1.252144   -0.057216
 H    3.379510    3.386216   -0.136426
 H    2.898437   -2.807899   -1.148455
