15 
1ebg_ligand_xtb.xyz
 C    0.015833   -1.112729   -0.220060
 C    1.450025   -0.644624   -0.063634
 N    1.657579    0.676555   -0.111963
 O    2.968825    1.114201    0.084557
 O    2.379576   -1.431730    0.014621
 O   -2.096268    0.169041   -1.335516
 O   -0.923268    1.462766    0.538593
 O   -2.339279   -0.575168    1.058115
 P   -1.307200    0.131090    0.070441
 H   -0.118135   -1.953800    0.462912
 H   -0.097988   -1.498583   -1.235249
 H    0.960649    1.373785    0.124847
 H    3.483554    0.282404    0.150401
 H   -2.160284    1.071350   -1.648846
 H   -2.774673   -1.346163    0.692265
