15 
1ebg_ligand_dft.xyz
 C   -0.039743   -0.852971   -0.759677
 C    1.363171   -0.613742   -0.227895
 N    1.852778    0.639475   -0.413027
 O    3.059203    0.917290    0.217430
 O    2.056912   -1.489363    0.269536
 O   -0.978624    1.553371   -0.248826
 O   -1.510607   -0.222576    1.589588
 O   -2.652781   -0.323538   -0.735502
 P   -1.342609    0.019472    0.143473
 H   -0.241012   -1.923470   -0.685062
 H   -0.110040   -0.557699   -1.811963
 H    1.233528    1.440611   -0.403044
 H    3.288032    0.043293    0.595683
 H   -1.365879    2.171069    0.388380
 H   -3.368338   -0.623402   -0.157280
