56 
1eef_ligand_dft.xyz
 C    3.080313   -0.448618   -0.885857
 C    4.435164   -1.006670   -1.301873
 C    5.386257   -1.025353   -0.102800
 C    5.492804    0.377104    0.498055
 C    4.090555    0.940807    0.766807
 C    4.083650    2.418639    1.136659
 O    2.530589   -1.321175    0.072698
 O    4.276951   -2.285936   -1.851723
 O    6.649350   -1.506540   -0.511619
 O    6.250333    1.135368   -0.424478
 O    3.245096    0.852463   -0.380923
 O    4.542723    3.220776    0.057638
 C    1.219734   -1.189522    0.410447
 C    0.448689   -0.067686    0.128636
 C   -0.887834   -0.051847    0.526200
 C   -1.446934   -1.134604    1.204776
 C   -0.659145   -2.256145    1.482096
 C    0.664905   -2.282709    1.093302
 C   -1.692338    1.157089    0.215154
 O   -1.247080    2.128447   -0.388820
 N   -2.977274    1.136835    0.666288
 N   -3.526592    0.065213    1.382917
 C   -2.876269   -1.134701    1.570702
 O   -3.477416   -2.097500    2.017778
 C   -3.835956    2.298856    0.504589
 C   -4.589813    2.278808   -0.836410
 C   -5.333591    0.979584   -1.022076
 C   -4.739751   -0.082693   -1.708057
 C   -6.570989    0.770786   -0.405477
 C   -5.359799   -1.326910   -1.767540
 C   -7.195741   -0.472309   -0.465555
 C   -6.587956   -1.526012   -1.143081
 H    2.400080   -0.356667   -1.738469
 H    4.838230   -0.298836   -2.042370
 H    5.003973   -1.731620    0.640274
 H    6.021224    0.320547    1.463111
 H    3.649992    0.366806    1.593624
 H    4.761468    2.601757    1.974445
 H    3.070147    2.714890    1.434195
 H    5.166141   -2.668775   -1.866265
 H    7.089535   -0.748642   -0.928126
 H    5.950013    2.060311   -0.382189
 H    3.942111    3.042202   -0.680679
 H    0.853425    0.806310   -0.365782
 H   -1.114073   -3.097380    1.993894
 H    1.295994   -3.142722    1.289929
 H   -4.527821   -0.024667    1.247060
 H   -4.533845    2.307341    1.347907
 H   -3.200314    3.184203    0.566791
 H   -5.276171    3.133081   -0.857786
 H   -3.857269    2.421298   -1.636697
 H   -3.773928    0.065217   -2.184588
 H   -7.047882    1.590295    0.128567
 H   -4.879027   -2.145216   -2.294862
 H   -8.156219   -0.618401    0.019557
 H   -7.068833   -2.498275   -1.182574
