33 
1efy_ligand_dft.xyz
 C   40.662759   22.666949   21.799131
 N   39.967006   22.868159   20.619336
 C   38.735354   22.486991   20.863797
 N   38.574067   22.049515   22.152206
 C   39.800941   22.142934   22.779374
 C   40.224335   21.830869   24.068365
 C   42.013949   22.906934   22.107376
 C   37.637690   22.506182   19.888154
 C   42.434597   22.594591   23.392836
 C   41.561283   22.065814   24.355041
 C   43.025047   23.476882   21.148545
 N   42.554489   23.783526   19.914482
 O   44.190128   23.646590   21.479091
 C   37.965854   22.527611   18.527536
 C   36.303344   22.503353   20.290528
 C   36.953019   22.539539   17.572967
 O   37.162400   22.557726   16.235837
 C   35.611769   22.526236   17.977511
 C   35.297219   22.511231   19.325618
 C   38.495899   22.581742   15.772759
 H   37.744614   21.618435   22.526570
 H   39.546614   21.425517   24.813123
 H   43.476303   22.775855   23.635084
 H   41.940466   21.838408   25.346255
 H   41.579781   23.645584   19.672334
 H   43.203408   24.185282   19.256755
 H   39.013708   22.530023   18.254241
 H   36.037096   22.531891   21.343013
 H   34.840088   22.533116   17.215186
 H   34.255980   22.514351   19.632624
 H   38.434349   22.603068   14.684414
 H   39.026053   23.475714   16.124325
 H   39.046391   21.686384   16.087587
