58 
1em6_ligand_dft.xyz
 C   -5.329309   34.917263   71.925995
 C   -4.052544   34.303584   71.898301
 C   -5.374076   35.834812   70.830324
 C   -6.247122   34.557018   72.926637
 N   -3.370600   34.828552   70.836715
 C   -3.671551   33.343451   72.842287
 C   -4.161022   35.749003   70.193977
 C   -5.857406   33.609774   73.848773
 C   -4.586311   33.002174   73.818291
 C   -3.565843   36.407051   69.007673
Cl   -6.974781   33.132934   75.113248
 N   -4.340360   37.322636   68.368236
 O   -2.415838   36.131449   68.675828
 C   -3.982368   37.800457   67.048047
 C   -4.615934   36.942317   65.942297
 O   -4.400562   35.572103   66.128563
 C   -3.116775   35.124042   65.743082
 C   -2.943338   33.695387   66.192273
 O   -3.859632   32.880575   65.489468
 C   -3.676669   31.506281   65.680072
 C   -2.521156   30.937236   64.842697
 N   -2.625136   31.326609   63.450998
 C   -2.030965   32.463493   63.002271
 C   -2.442217   32.940675   61.661460
 O   -1.169271   33.077969   63.625530
 N   -1.831614   34.085307   61.211945
 C   -3.336195   32.497980   60.718741
 C   -2.314760   34.404210   59.974040
 C   -3.273313   33.419976   59.627723
 C   -2.002848   35.467513   59.119499
 C   -3.936361   33.506359   58.392240
 C   -2.664068   35.535971   57.909567
 C   -3.618802   34.559548   57.561903
Cl   -4.424804   34.702557   56.011141
 H   -6.206363   36.472535   70.566031
 H   -7.232527   35.007322   72.976090
 H   -2.430494   34.630450   70.528694
 H   -2.690846   32.879508   72.814185
 H   -4.334353   32.263435   74.570767
 H   -5.318687   37.348318   68.616234
 H   -4.305611   38.841101   66.935762
 H   -2.892694   37.781390   66.991440
 H   -5.703569   37.079711   65.952570
 H   -4.246708   37.284128   64.961686
 H   -3.002333   35.182259   64.650296
 H   -2.328544   35.720768   66.219441
 H   -1.907374   33.402657   65.979047
 H   -3.121667   33.626907   67.275895
 H   -3.510591   31.259996   66.741474
 H   -4.616671   31.032588   65.373586
 H   -1.555500   31.299562   65.199375
 H   -2.517378   29.844303   64.917164
 H   -3.432999   30.999588   62.941431
 H   -1.128203   34.559775   61.757893
 H   -3.966491   31.621320   60.777349
 H   -1.266090   36.216156   59.392472
 H   -4.675652   32.769929   58.096720
 H   -2.454106   36.342024   57.215559
