42 
1ero_ligand_xtb.xyz
 C    2.021602   -1.584187   -0.473419
 C    2.808285   -0.357880    0.049343
 C   -2.966379   -1.480296   -0.866253
 O   -4.092025   -1.614313   -0.451033
 O   -2.725624   -1.234086   -2.167575
 B    4.208973   -0.206657   -0.726457
 O    5.153648   -1.142670   -0.504345
 C    0.515526   -1.884309    1.518611
 C    0.658178   -1.666012    0.151991
 C   -0.739402   -1.942731    2.099210
 C   -0.478981   -1.506580   -0.622779
 C   -1.871985   -1.804548    1.320727
 C   -1.744372   -1.590813   -0.049100
 O    4.344265    0.829244   -1.586485
 C   -0.760592    2.248937    0.275476
 C   -1.649562    1.772687    1.232017
 C   -2.934748    1.410221    0.876168
 C   -3.347486    1.514361   -0.441947
 C   -2.458683    1.957250   -1.405401
 C   -1.170906    2.318296   -1.048599
 C    0.622552    2.672611    0.686574
 C    1.440107    1.429052    1.023923
 O    1.559829    1.007797    2.155727
 N    1.994369    0.838205   -0.050898
 H    2.604457   -2.476487   -0.240095
 H    1.922222   -1.512368   -1.558220
 H    2.977461   -0.500016    1.121438
 H   -3.569775   -1.173791   -2.640728
 H    5.987054   -1.067717   -0.972070
 H    1.394881   -2.002376    2.132967
 H   -0.830874   -2.101673    3.162953
 H   -0.395133   -1.328919   -1.684189
 H   -2.861321   -1.862111    1.747518
 H    5.178076    0.920019   -2.050470
 H   -1.323124    1.691092    2.257963
 H   -3.621699    1.048729    1.626228
 H   -4.358307    1.247107   -0.711805
 H   -2.768462    2.031371   -2.438073
 H   -0.487340    2.677425   -1.806117
 H    0.568186    3.286747    1.586464
 H    1.107051    3.238436   -0.109916
 H    1.891523    1.246249   -0.964855
