33 
1erq_ligand_xtb.xyz
 C   -1.149778   -0.765674    1.192898
 C   -1.991706   -0.434297   -0.070765
 N   -2.174133    0.998900   -0.169447
 C   -1.412347    1.770677   -0.977347
 C   -1.745283    3.246733   -0.893895
 O   -0.546618    1.317556   -1.694678
 C    3.584252   -0.775942   -0.494845
 O    3.670793   -1.941289   -0.783214
 O    4.561308    0.096452   -0.827187
 B   -3.380480   -1.242700   -0.073330
 O   -3.304691   -2.587614   -0.159675
 C    0.459773    1.081219    1.697770
 C    0.215545   -0.142078    1.097308
 C    1.688205    1.710981    1.582011
 C    1.233340   -0.755022    0.351225
 C    2.694693    1.106233    0.861418
 C    2.486885   -0.129198    0.252270
 O   -4.528875   -0.540554    0.041943
 O    1.048249   -1.926462   -0.279985
 H   -1.669402   -0.368245    2.066999
 H   -1.096797   -1.850788    1.308638
 H   -1.400583   -0.705608   -0.954042
 H   -2.918905    1.407206    0.369895
 H   -1.178496    3.783516   -1.648369
 H   -1.472571    3.625222    0.088876
 H   -2.808656    3.408615   -1.052604
 H    5.250710   -0.377461   -1.316913
 H   -4.119610   -3.092022   -0.165897
 H   -0.330234    1.549687    2.268382
 H    1.853775    2.667735    2.053069
 H    3.658938    1.577649    0.760350
 H   -5.355851   -1.024715    0.028354
 H    0.126201   -2.206097   -0.219868
