68 
1ets_ligand_xtb.xyz
 S    1.764725   -1.251107    1.819956
 O    1.673019   -0.102365    2.680168
 O    1.615997   -2.556566    2.382441
 C    3.723270    0.069899    0.483821
 C    3.270887   -1.157386    0.866054
 C    3.900998   -2.337888    0.458060
 C    5.006897   -2.263108   -0.343326
 C    6.644352   -0.901243   -1.598692
 C    7.103371    0.325806   -1.990146
 C    6.454094    1.499385   -1.572103
 C    5.353202    1.431291   -0.764480
 C    4.858661    0.178349   -0.344174
 C    5.510387   -1.012535   -0.766955
 N    0.564274   -1.047869    0.684525
 C    0.411585   -2.086392   -0.306142
 C   -0.865680   -1.849787   -1.116173
 O   -0.924389   -2.028344   -2.315068
 C   -3.106175   -0.883871   -0.919729
 C   -4.097182   -0.774041    0.243001
 O   -3.683521   -0.764318    1.390325
 N   -1.888198   -1.419242   -0.365193
 C   -2.859438    0.512157   -1.570533
 C   -1.678816    1.197426   -0.939809
 C   -1.754811    1.723662    0.345692
 C   -0.466948    1.258160   -1.617598
 C   -0.643675    2.282949    0.947968
 C    0.644996    1.828795   -1.023413
 C    0.570608    2.341832    0.269720
 C    1.770447    2.958458    0.899204
 N    1.894141    2.749122    2.238894
 N    2.629466    3.680972    0.291938
 N   -5.406842   -0.683358   -0.050579
 C   -6.023850   -0.659909   -1.357711
 C   -6.812147    0.639108   -1.549353
 C   -7.847967    0.795313   -0.439920
 C   -7.154640    0.727848    0.917806
 C   -6.367946   -0.575038    1.032897
 H    3.221852    0.961286    0.822900
 H    3.497829   -3.276943    0.802202
 H    5.511013   -3.162092   -0.666501
 H    7.143032   -1.804094   -1.920377
 H    7.972467    0.401575   -2.626847
 H    6.834161    2.457061   -1.894883
 H    4.842691    2.324963   -0.434445
 H    0.592058   -0.114405    0.297819
 H    1.256033   -2.141618   -1.007605
 H    0.344135   -3.031485    0.238677
 H   -3.460901   -1.586180   -1.680162
 H   -1.762403   -1.256861    0.628883
 H   -3.753608    1.127308   -1.457923
 H   -2.662639    0.369471   -2.633573
 H   -2.687272    1.678751    0.887800
 H   -0.389395    0.845215   -2.612677
 H   -0.712019    2.687664    1.945660
 H    1.584420    1.860774   -1.560008
 H    2.751127    3.101998    2.637216
 H    1.570620    1.866056    2.614735
 H    2.402107    3.869931   -0.679456
 H   -5.277779   -0.760065   -2.142610
 H   -6.714587   -1.510252   -1.426217
 H   -7.296580    0.622635   -2.526328
 H   -6.125111    1.487620   -1.526171
 H   -8.584180   -0.008494   -0.513598
 H   -8.374637    1.744433   -0.549676
 H   -7.886379    0.780440    1.724340
 H   -6.470107    1.571585    1.023797
 H   -7.052803   -1.429290    0.980366
 H   -5.814357   -0.619361    1.971557
