58 
1ett_ligand_xtb.xyz
 S    0.332769    2.373740   -0.093393
 O    1.155748    2.401471    1.088651
 O    0.213644    3.560075   -0.885460
 C   -1.297432    1.818467    0.372773
 C   -2.356741    2.060809   -0.480636
 C   -3.635005    1.710143   -0.090036
 C   -3.865064    1.111033    1.147207
 C   -2.779460    0.850387    1.974612
 C   -1.497338    1.208682    1.593685
 C   -5.261152    0.782683    1.571410
 C    1.619517    0.116847   -0.451382
 C    3.105091    0.420902   -0.691139
 O    3.417042    1.044496   -1.693229
 N    0.836541    1.137738   -1.109935
 C    1.264914   -1.270921   -1.022428
 C   -0.209780   -1.497727   -0.882526
 C   -0.744807   -1.970868    0.309063
 C   -1.072822   -1.174292   -1.920886
 C   -2.107356   -2.143252    0.453560
 C   -2.435859   -1.339124   -1.779010
 C   -2.970248   -1.835447   -0.594200
 C   -4.437047   -2.003657   -0.450854
 N   -5.328607   -1.268335   -0.986083
 N   -4.841861   -2.997045    0.397192
 N    4.012220   -0.019988    0.194657
 C    3.779998   -0.797315    1.388643
 C    4.507420   -2.141275    1.285858
 C    5.999068   -1.911225    1.059819
 C    6.200490   -1.041333   -0.177938
 C    5.418463    0.261947   -0.031020
 H   -2.161312    2.547806   -1.422332
 H   -4.474149    1.917594   -0.737949
 H   -2.941280    0.381990    2.934490
 H   -0.651649    1.051711    2.244658
 H   -5.721113    0.104842    0.852836
 H   -5.272662    0.316154    2.552487
 H   -5.863555    1.689068    1.606992
 H    1.364531    0.172729    0.607969
 H    1.352091    1.516121   -1.901132
 H    1.827370   -2.035068   -0.483134
 H    1.555096   -1.292384   -2.073790
 H   -0.086478   -2.214277    1.131661
 H   -0.669544   -0.792166   -2.845918
 H   -2.508389   -2.498113    1.391428
 H   -3.094184   -1.100933   -2.602646
 H   -4.956837   -0.503266   -1.538701
 H   -4.243981   -3.797491    0.511190
 H   -5.833287   -3.176679    0.390230
 H    2.716030   -0.955369    1.548382
 H    4.173925   -0.237105    2.245804
 H    4.097717   -2.710504    0.448404
 H    4.343024   -2.712814    2.200524
 H    6.512118   -2.866623    0.938364
 H    6.424704   -1.408961    1.931475
 H    7.257966   -0.815374   -0.317897
 H    5.845419   -1.573238   -1.062707
 H    5.802362    0.836012    0.819628
 H    5.493137    0.868785   -0.933979
