84 
1evh_ligand_xtb.xyz
 C    4.650390    0.561208    2.049302
 O    5.391102    1.413651    1.600591
 C    4.960602   -0.262654    3.280298
 N    3.465061    0.252911    1.485126
 C    2.993922    0.878462    0.278262
 C    1.700756    1.627962    0.569199
 O    1.039931    1.395145    1.582591
 C    2.743079   -0.212015   -0.789474
 C    4.056221   -0.816570   -1.191222
 C    4.549202   -1.923076   -0.511938
 C    4.828604   -0.242307   -2.191934
 C    5.792427   -2.442508   -0.824706
 C    6.069849   -0.763361   -2.508984
 C    6.556532   -1.862426   -1.822597
 N    1.295458    2.549278   -0.307033
 C   -0.043974    3.101276   -0.153697
 C   -1.032752    1.924298   -0.128992
 O   -0.779807    0.875169   -0.697592
 C   -0.248193    3.986118   -1.388595
 C    0.742807    3.406531   -2.396777
 C    1.930601    3.021469   -1.519028
 N   -2.157166    2.122579    0.564613
 C   -3.125031    1.043455    0.686965
 C   -3.665040    0.695860   -0.702910
 O   -3.682478    1.512262   -1.605043
 C   -4.225373    1.627618    1.580285
 C   -4.129357    3.124958    1.301067
 C   -2.624693    3.349110    1.176231
 N   -4.137454   -0.557040   -0.857242
 C   -4.357518   -1.542956    0.186703
 C   -3.144959   -2.072912    0.968014
 O   -3.279991   -2.304117    2.158654
 C   -5.088102   -2.694004   -0.525277
 C   -5.804507   -1.997922   -1.680502
 C   -4.804914   -0.926010   -2.098591
 N   -2.005796   -2.336909    0.314929
 C   -0.859188   -2.869753    1.026391
 C    0.068043   -1.742966    1.502547
 O    1.267373   -1.878343    1.584598
 C   -0.167723   -3.729577   -0.025510
 C   -0.353812   -2.892495   -1.292792
 C   -1.695209   -2.168922   -1.093918
 O   -0.576266   -0.644933    1.798221
 H    5.876360    0.099980    3.737606
 H    4.142711   -0.195391    3.993445
 H    5.090585   -1.304180    2.994309
 H    2.865074   -0.463461    1.874257
 H    3.778770    1.572051   -0.043583
 H    2.108010   -0.970725   -0.332607
 H    2.217871    0.203634   -1.649262
 H    3.950839   -2.375866    0.265433
 H    4.457325    0.620178   -2.728877
 H    6.168633   -3.300280   -0.286112
 H    6.661484   -0.306947   -3.289187
 H    7.529457   -2.264242   -2.064229
 H   -0.106478    3.652365    0.788939
 H    0.002641    5.022460   -1.157174
 H   -1.273526    3.938851   -1.751460
 H    0.316727    2.510810   -2.849191
 H    1.010642    4.111897   -3.180205
 H    2.547306    3.899355   -1.287296
 H    2.561818    2.262647   -1.974903
 H   -2.635851    0.176279    1.133729
 H   -5.209070    1.227545    1.341545
 H   -4.002908    1.412832    2.625552
 H   -4.578938    3.732814    2.083086
 H   -4.609853    3.351277    0.348805
 H   -2.390869    4.217117    0.558868
 H   -2.165455    3.473887    2.165165
 H   -5.017813   -1.123096    0.958857
 H   -5.768025   -3.207484    0.150907
 H   -4.372536   -3.423947   -0.905328
 H   -6.047057   -2.678085   -2.493808
 H   -6.725875   -1.535594   -1.324918
 H   -5.266594   -0.037733   -2.533795
 H   -4.074461   -1.313535   -2.816735
 H   -1.204009   -3.418062    1.909239
 H    0.879579   -3.891167    0.218955
 H   -0.670577   -4.692937   -0.112040
 H   -0.351945   -3.503399   -2.193573
 H    0.448615   -2.161095   -1.375491
 H   -1.604319   -1.108382   -1.340651
 H   -2.479715   -2.619359   -1.704739
 H    0.045655    0.127225    1.920646
