13 
1ew8_ligand_dft.xyz
 P   -1.118343   -0.091552    0.063868
 O   -0.945458   -0.244657   -1.539193
 O   -1.010697    1.464304    0.399143
 O   -2.299919   -0.757131    0.635259
 C    0.494401   -0.779032    0.586047
 C    1.687750    0.031099    0.105813
 O    2.824908   -0.636419   -0.109622
 O    1.662424    1.230742   -0.049277
 H   -1.802931   -0.199281   -1.985410
 H   -0.103632    1.783122    0.195599
 H    0.534929   -1.821800    0.258007
 H    0.496958   -0.773885    1.682469
 H    2.706853   -1.581983    0.049673
