13 
1ew8_ligand_xtb.xyz
 P   -1.027097    0.151080    0.047246
 O   -1.078834   -1.422210    0.406844
 O   -0.684007    0.139948   -1.517678
 O   -2.262937    0.864680    0.364939
 C    0.525630    0.664652    0.862346
 C    1.750999    0.113207    0.144595
 O    1.705173   -1.183683   -0.141924
 O    2.697967    0.791203   -0.124282
 H   -1.989371   -1.707979    0.496469
 H   -1.205818    0.790413   -1.986945
 H    0.504834    0.297716    1.890092
 H    0.572325    1.752528    0.886489
 H    0.845817   -1.585539    0.060364
