11 
1ew9_ligand_xtb.xyz
 S    2.150514    0.137749   -0.029925
 P   -0.774613    0.061482    0.136003
 O   -1.985666   -0.956619   -0.049037
 O   -0.785715    0.851386   -1.266355
 O   -0.882756    0.907249    1.313956
 C    0.731841   -0.998617    0.053156
 H    3.093088   -0.801480    0.079543
 H   -2.094309   -1.261569   -0.950378
 H   -0.458805    1.742063   -1.138743
 H    0.785172   -1.587827    0.966089
 H    0.727866   -1.641820   -0.825207
