49 
1f0t_ligand_xtb.xyz
 C   -4.279552    2.079264    0.227897
 C   -4.957209    1.132027   -0.513102
 C   -4.258223    0.174518   -1.239538
 C   -2.862320    0.206135   -1.259944
 C   -2.196021    1.168965   -0.522332
 C   -2.889475    2.092675    0.248934
 C   -2.177316    3.058668    1.110888
 N   -0.972693    2.614300    1.595425
 N   -2.697477    4.199166    1.309509
 C   -2.075971   -0.832251   -2.014323
 O   -4.906343   -0.803416   -1.941074
 C    4.085647    0.186187   -0.463782
 C    5.317379    0.260279   -1.096781
 C    5.641452    1.458585   -1.704888
 C    4.732151    2.517842   -1.652580
 N    3.563064    2.456555   -1.056201
 C    3.227245    1.313124   -0.468487
 C    2.007560    1.056007    0.228139
 C    1.963464   -0.202532    0.711945
 S    3.376847   -1.146053    0.395774
 N   -1.504240   -1.810710   -1.113619
 C   -0.201678   -1.915161   -0.857541
 C    0.012133   -3.058115    0.144659
 C   -1.396732   -3.634382    0.363486
 C   -2.344359   -2.587111   -0.231871
 N    0.609661   -2.541926    1.356448
 S    0.700451   -0.939711    1.719527
 O   -0.560790   -0.328241    1.417347
 O    1.171125   -0.884114    3.070528
 O    0.699473   -1.262606   -1.349542
 H   -4.813138    2.817042    0.804911
 H   -6.039658    1.117927   -0.518746
 H   -1.118764    1.184017   -0.559732
 H   -0.549976    3.151477    2.337235
 H   -0.826392    1.614570    1.639458
 H   -2.154084    4.804515    1.921399
 H   -2.727832   -1.350938   -2.723733
 H   -1.238541   -0.371502   -2.543590
 H   -5.858229   -0.662381   -1.872834
 H    5.990257   -0.583291   -1.110482
 H    6.584864    1.578775   -2.213581
 H    4.965251    3.466163   -2.117716
 H    1.220081    1.778111    0.336596
 H    0.692487   -3.790479   -0.302087
 H   -1.584075   -3.793521    1.422845
 H   -1.496210   -4.584767   -0.159943
 H   -3.167963   -3.029170   -0.798024
 H   -2.757602   -1.932388    0.543581
 H    1.337779   -3.084993    1.785939
