67 
1f1j_ligand_xtb.xyz
 C   -6.356545    0.062011   -0.362732
 O   -6.504094   -1.114410   -0.101903
 C   -7.453684    0.950251   -0.908763
 N   -5.182953    0.703711   -0.180890
 C   -3.997777    0.073919    0.346606
 C   -2.959011    1.181513    0.550410
 O   -3.069472    2.261585    0.000992
 C   -3.461322   -0.976737   -0.643990
 C   -2.371373   -1.862781   -0.101714
 O   -1.875133   -2.652203   -1.045621
 O   -1.984654   -1.892416    1.041386
 N   -1.966737    0.856821    1.395258
 C   -0.743345    1.625805    1.419846
 C    0.133105    1.176914    0.240176
 O   -0.174779    0.210983   -0.449256
 C   -0.064953    1.494570    2.788844
 C    0.582371    0.129580    3.029744
 C    2.036687    0.104487    2.603779
 O    2.585972   -1.082853    2.765151
 O    2.629784    1.060764    2.163676
 N    1.193466    1.950777   -0.013672
 C    2.105588    1.704130   -1.119043
 C    3.103663    0.608603   -0.692283
 O    4.270519    0.839663   -0.435592
 C    2.813333    2.998840   -1.533741
 C    1.798502    4.108401   -1.799732
 C    3.657062    2.752128   -2.782852
 N    2.502123   -0.588992   -0.625019
 C    3.012367   -1.894914   -0.235588
 C    4.509326   -1.904907    0.117715
 O    4.799012   -1.117741    1.244313
 C    2.706384   -2.891812   -1.376575
 C    1.206553   -3.016016   -1.456522
 O    0.551819   -3.727184   -0.729958
 O    0.671788   -2.203626   -2.353052
 H   -7.127160    1.434624   -1.825717
 H   -8.336193    0.349815   -1.108159
 H   -7.700546    1.717267   -0.178084
 H   -5.048794    1.669535   -0.455285
 H   -4.228838   -0.424565    1.295927
 H   -4.297773   -1.629156   -0.914765
 H   -3.100813   -0.494339   -1.554794
 H   -1.158294   -3.242710   -0.687950
 H   -1.894955   -0.121312    1.661230
 H   -1.025355    2.671161    1.242104
 H    0.704641    2.262463    2.889823
 H   -0.828991    1.679882    3.544566
 H    0.558929   -0.126416    4.090622
 H    0.061385   -0.671108    2.500745
 H    3.515489   -1.106585    2.392758
 H    1.532927    2.573977    0.703724
 H    1.501780    1.323040   -1.951846
 H    3.477531    3.293069   -0.714903
 H    1.120921    3.815656   -2.598970
 H    1.206154    4.332750   -0.916811
 H    2.314576    5.015474   -2.103596
 H    3.029830    2.418242   -3.607176
 H    4.155897    3.670562   -3.080834
 H    4.416030    2.000043   -2.590209
 H    1.501547   -0.578733   -0.817228
 H    2.455999   -2.226640    0.653256
 H    5.097987   -1.574665   -0.743892
 H    4.792884   -2.928917    0.373375
 H    4.797220   -0.187312    0.927089
 H    3.136843   -3.862061   -1.134636
 H    3.105433   -2.517514   -2.318066
 H   -0.305287   -2.196150   -2.304640
