61 
1f28_ligand_xtb.xyz
 C    1.585885    1.324226   -0.475879
 O    0.798569    0.479889   -0.915099
 N    1.109582    2.577496   -0.179068
 C    1.903178    3.625005    0.160616
 C    1.221198    4.921732    0.423261
 N    3.183692    3.526453    0.239042
 C    3.751192    2.298160    0.061751
 C    5.154224    2.211497    0.234598
 C    5.782442    1.008951    0.177050
 C    5.052810   -0.186269   -0.038481
 C    5.675812   -1.447307    0.020302
 C    4.946273   -2.598934   -0.088881
 C    3.560369   -2.544030   -0.315655
 C    2.950054   -1.323590   -0.458282
 C    3.658393   -0.122340   -0.282652
 C    3.007792    1.150347   -0.250561
 C    2.776327   -3.841814   -0.325657
 N    1.391637   -3.752822   -0.712769
 C    0.445243   -3.019663   -0.035270
 C   -0.776368   -2.763773   -0.676467
 C   -1.716479   -1.994631   -0.038173
 C   -1.470744   -1.459203    1.227470
 C   -0.291124   -1.751335    1.893793
 C    0.650738   -2.541092    1.267707
 C   -3.067964   -1.552361   -0.501952
 C   -2.593175   -0.592531    1.602290
 O   -2.768592    0.071535    2.605555
 N   -3.472351   -0.644168    0.549870
 C   -4.695869    0.114881    0.590866
 C   -5.752433   -0.383699   -0.373195
 O   -5.589028   -0.685380   -1.525147
 O   -6.957247   -0.386409    0.203645
 C   -4.468012    1.621429    0.306189
 C   -3.771394    1.896463   -1.032365
 C   -2.266927    1.821060   -0.876117
 O   -1.706781    0.859312   -1.557705
 O   -1.650587    2.615103   -0.190610
 H    0.079949    2.692964   -0.198102
 H    0.444872    4.785832    1.173621
 H    0.745806    5.282263   -0.487613
 H    1.946606    5.652282    0.765563
 H    5.686265    3.127789    0.434203
 H    6.850905    0.939498    0.324577
 H    6.742559   -1.490168    0.187693
 H    5.429255   -3.561624    0.002007
 H    1.897381   -1.261475   -0.667697
 H    2.829958   -4.273365    0.682374
 H    3.261381   -4.552723   -1.001677
 H    1.225726   -3.811025   -1.706161
 H   -0.951320   -3.145290   -1.672176
 H   -0.111397   -1.350022    2.879160
 H    1.579476   -2.752739    1.773252
 H   -3.034340   -1.058521   -1.475273
 H   -3.760098   -2.401181   -0.575368
 H   -5.099728    0.042949    1.610278
 H   -7.643177   -0.652730   -0.430541
 H   -5.438869    2.119225    0.331155
 H   -3.857631    2.021041    1.118170
 H   -4.011226    2.913224   -1.349475
 H   -4.098792    1.194706   -1.798904
 H   -0.720787    0.730903   -1.341553
