22 
1f3e_ligand_xtb.xyz
 N   -2.601814    0.129807   -0.005083
 C   -1.625504    1.082794   -0.012925
 O   -1.971990    2.262380   -0.048361
 C   -0.267396    0.573878    0.013537
 C    0.839518    1.463736    0.016776
 C    2.132406    0.939164    0.001551
 C    2.367770   -0.430317   -0.009373
 C    1.275628   -1.305078   -0.003498
 C   -0.013934   -0.812385    0.005634
 C   -1.116912   -1.788887    0.010980
 O   -0.990950   -2.999264    0.024342
 N   -2.360301   -1.235695   -0.000066
 N    3.642830   -0.923791   -0.086509
 N    0.637950    2.798290    0.078145
 H   -3.564257    0.432438   -0.054863
 H    2.970162    1.622716   -0.000343
 H    1.421581   -2.373730   -0.009508
 H   -3.165085   -1.846859    0.015984
 H    4.400479   -0.307975    0.154360
 H    3.774036   -1.895370    0.137342
 H   -0.318043    3.120208   -0.011783
 H    1.404538    3.425937   -0.080527
