17 
1f5k_ligand_xtb.xyz
 C   -0.214237   -0.007548   -0.000373
 C    0.514208   -1.196893   -0.002407
 C    1.894481   -1.182086   -0.002006
 C    2.576193    0.024522    0.000202
 C    1.864615    1.211154    0.002022
 C    0.480618    1.198752    0.001846
 C   -1.691084   -0.105493    0.000167
 N   -2.410237    1.056001   -0.002838
 N   -2.209658   -1.265779    0.004511
 H   -0.038634   -2.122176   -0.003978
 H    2.443058   -2.112581   -0.003307
 H    3.656210    0.041332    0.000676
 H    2.389019    2.156076    0.003786
 H   -0.035929    2.148106    0.004055
 H   -3.414166    1.011502   -0.003997
 H   -1.982452    1.961984   -0.010504
 H   -3.226608   -1.270239    0.004849
