42 
1f73_ligand_xtb.xyz
 C   -3.773666   -1.406343   -0.406860
 O   -3.186600   -2.142717    0.531822
 O   -4.341374   -1.878497   -1.359024
 C   -3.636783    0.091065   -0.204284
 O   -4.569445    0.751260   -1.013041
 C   -2.192534    0.523780   -0.549840
 C   -1.211996    0.233051    0.586316
 O   -1.647451    0.929929    1.727874
 C    0.212182    0.684610    0.196470
 N    0.241582    2.127466    0.225384
 C    1.144552    2.850771   -0.465696
 O    1.973632    2.334480   -1.191680
 C    1.023475    4.342993   -0.258553
 C    1.297302    0.106412    1.131422
 O    0.858504    0.177539    2.473377
 C    1.677205   -1.348139    0.815090
 O    2.610889   -1.727437    1.803270
 C    2.276019   -1.589136   -0.580929
 O    2.773784   -2.911899   -0.557670
 C    3.407135   -0.617482   -0.934889
 O    4.036131   -1.136701   -2.096568
 H   -3.296262   -3.089376    0.340497
 H   -3.833250    0.357184    0.839294
 H   -4.786858    0.161707   -1.752095
 H   -2.226826    1.599469   -0.724928
 H   -1.862675    0.031516   -1.465928
 H   -1.194069   -0.847047    0.788095
 H   -0.998641    0.749136    2.425617
 H    0.448157    0.369674   -0.823859
 H   -0.395635    2.556447    0.882189
 H   -0.006163    4.663440   -0.392629
 H    1.662833    4.858544   -0.968687
 H    1.339674    4.595263    0.751391
 H    2.201224    0.723060    1.020633
 H    1.462724   -0.378959    2.983320
 H    0.781269   -1.984823    0.907904
 H    3.042672   -2.525572    1.463927
 H    1.489110   -1.513205   -1.345403
 H    3.388105   -2.978847   -1.301414
 H    3.000930    0.379970   -1.119761
 H    4.128031   -0.577664   -0.106232
 H    4.562666   -0.439330   -2.495973
