76 
1f9e_ligand_xtb.xyz
 C    3.294853   -1.046352   -0.881430
 O    3.460754   -2.115336   -0.332445
 O    4.274038   -0.160207   -1.107918
 C    5.575136   -0.546924   -0.657327
 C    6.521084    0.600812   -0.864833
 C    7.733753    0.413754   -1.512789
 C    8.604850    1.475828   -1.684904
 C    8.265990    2.734669   -1.220038
 C    7.053790    2.928307   -0.578858
 C    6.187056    1.866035   -0.397956
 N    2.122404   -0.612738   -1.399971
 C    0.874752   -1.261159   -1.057807
 C   -0.200475   -0.814185   -2.054375
 O    0.968476    0.112404    0.910797
 C    0.467726   -0.867831    0.375204
 C   -1.400303   -1.721483   -2.127946
 O   -2.207543   -1.377180   -3.125854
 O   -1.644935   -2.639194   -1.386324
 N   -0.444454   -1.672988    0.917798
 C   -1.081127   -1.508157    2.218504
 C   -2.027702   -0.298799    2.130825
 O   -3.238008   -0.431817    2.123745
 C   -0.064736   -1.419528    3.361018
 C    0.652203   -2.760317    3.568628
 C    1.440759   -3.132426    2.326601
 O    1.122650   -3.999828    1.554592
 O    2.517960   -2.375036    2.186815
 N   -1.413077    0.891527    2.028987
 C   -2.201889    2.039524    1.625678
 C   -2.858111    1.683676    0.284792
 O   -2.215427    1.282702   -0.672075
 C   -1.357483    3.323240    1.553217
 C   -0.212011    3.228409    0.547949
 C   -0.827817    3.667051    2.944417
 N   -4.191727    1.821676    0.257924
 C   -5.025746    1.414009   -0.847549
 C   -6.466745    1.713645   -0.490733
 O   -6.800248    2.203233    0.551164
 C   -4.827191   -0.079024   -1.175284
 C   -5.501104   -0.500037   -2.450018
 O   -6.325726    0.122441   -3.059828
 O   -5.065499   -1.701728   -2.869428
 H    5.898515   -1.435414   -1.210547
 H    5.513282   -0.813695    0.406354
 H    7.999350   -0.566690   -1.880804
 H    9.548153    1.320239   -2.187176
 H    8.944656    3.563335   -1.357769
 H    6.785411    3.909323   -0.215440
 H    5.241269    2.011780    0.101531
 H    2.075608    0.373497   -1.611313
 H    1.033899   -2.344271   -1.103975
 H   -0.584708    0.174633   -1.779614
 H    0.228736   -0.738979   -3.055216
 H   -3.030524   -1.901787   -3.104071
 H   -0.806851   -2.417310    0.330441
 H   -1.712411   -2.389258    2.367083
 H   -0.593950   -1.147357    4.275780
 H    0.676627   -0.651458    3.142927
 H   -0.068541   -3.551378    3.776367
 H    1.346859   -2.667550    4.403569
 H    2.956158   -2.521683    1.315552
 H   -0.419630    0.899369    1.808569
 H   -2.992244    2.175883    2.374170
 H   -2.036405    4.121224    1.228805
 H    0.524855    2.489754    0.852518
 H   -0.587259    2.954141   -0.433996
 H    0.285575    4.192355    0.470591
 H   -1.645128    3.781236    3.652682
 H   -0.167082    2.882620    3.303865
 H   -0.269398    4.599069    2.910810
 H   -4.706525    2.042223    1.101709
 H   -4.770290    1.994217   -1.746179
 H   -7.185056    1.436284   -1.275562
 H   -5.184357   -0.701595   -0.351071
 H   -3.753750   -0.257011   -1.268784
 H   -5.545883   -1.968133   -3.670802
