20 
1f9g_ligand_xtb.xyz
 C   -1.886354   -0.870116   -0.116952
 C   -1.699126    0.570235    0.094331
 C   -0.492249    0.910577   -0.382532
 C    0.189421   -0.337112   -0.874206
 C    1.428667   -0.688033   -0.027607
 C    2.634533    0.177034   -0.413359
 O   -2.856270   -1.521262    0.167287
 O   -2.654549    1.355169    0.656995
 O    0.123016    2.105545   -0.443027
 O   -0.783611   -1.354763   -0.733448
 O    1.098923   -0.501956    1.322710
 O    3.693651   -0.214087    0.436148
 H    0.477628   -0.273517   -1.929727
 H    1.674309   -1.744536   -0.215909
 H    2.890043    0.007424   -1.466821
 H    2.384156    1.234274   -0.265608
 H   -3.390801    0.773630    0.897915
 H   -0.442950    2.762360   -0.014360
 H    1.918015   -0.601007    1.825858
 H    4.470969    0.316708    0.237280
