61 
1fax_ligand_xtb.xyz
 C    1.417842   -1.797944    0.722217
 C    2.556059   -1.937675   -0.027226
 C    2.451577   -2.410402   -1.350230
 C    1.238982   -2.735689   -1.886804
 C    0.057735   -2.618315   -1.126487
 C   -1.208730   -2.981915   -1.631126
 C   -2.327388   -2.893821   -0.853822
 C   -2.243757   -2.426653    0.475750
 C   -1.023053   -2.047082    0.979713
 C    0.151101   -2.139228    0.205824
 C   -3.463814   -2.398390    1.329391
 N   -3.492421   -2.648038    2.580097
 N   -4.629910   -2.161702    0.669722
 C    3.902269   -1.557201    0.520067
 C    5.525943    0.357281    0.683372
 O    6.449655    0.918589   -0.104636
 O    5.597892    0.374885    1.882204
 C    4.399616   -0.247172   -0.126174
 N   -3.326423    1.971740   -0.273986
 C   -1.915464    1.726225   -0.488957
 C   -1.204129    2.874427    0.250831
 C   -2.244218    3.994328    0.222439
 C   -3.561625    3.243835    0.381840
 C   -4.277966    1.043535   -0.552073
 N   -4.081623   -0.065021   -1.147892
 C   -5.676693    1.360838   -0.112533
 C    2.770462    1.181574   -1.406994
 C    1.672602    2.018018   -1.464327
 C    2.680692    1.222804    0.982853
 C    1.581055    2.056529    0.934130
 C    1.057201    2.444317   -0.293938
 O   -0.029767    3.285719   -0.407514
 C    3.271540    0.758085   -0.184996
 H    1.478603   -1.436045    1.739018
 H    3.351496   -2.521860   -1.938228
 H    1.168235   -3.101774   -2.901391
 H   -1.276090   -3.347466   -2.646279
 H   -3.289611   -3.195011   -1.237770
 H   -0.946461   -1.673854    1.993161
 H   -2.594550   -2.911799    2.973562
 H   -5.428789   -2.061875    1.276339
 H   -4.596151   -1.540891   -0.140017
 H    3.842539   -1.410933    1.599099
 H    4.629038   -2.348435    0.322000
 H    7.144329    1.339719    0.426761
 H    4.766365   -0.429296   -1.138739
 H   -1.617645    0.743191   -0.106000
 H   -1.662276    1.775796   -1.556873
 H   -0.996032    2.574118    1.285748
 H   -2.082151    4.735797    1.000756
 H   -2.188151    4.484211   -0.749712
 H   -3.796022    3.093216    1.444858
 H   -4.393765    3.777082   -0.082916
 H   -3.127386   -0.237836   -1.447564
 H   -5.710553    1.533204    0.961318
 H   -6.317903    0.522605   -0.365868
 H   -6.044877    2.250932   -0.618640
 H    3.228360    0.841590   -2.324069
 H    1.275804    2.346175   -2.412339
 H    3.090082    0.934273    1.939033
 H    1.136914    2.410912    1.852287
