57 
1fbm_ligand_dft.xyz
 C   -3.534187   -0.967505   -0.075626
 C   -4.771027   -0.385520   -0.790071
 C   -5.072623    1.066661   -0.422925
 C   -3.859075    1.953760   -0.693535
 C   -2.603327    1.452916    0.027766
 C   -2.314792   -0.024465   -0.335805
 C   -1.063910   -0.493727    0.353257
 C   -0.028002   -1.079261   -0.257809
 C    1.242338   -1.460136    0.377302
 C    2.250858   -1.879272   -0.407179
 C    3.681844   -2.124717   -0.027119
 C    4.643818   -1.149686   -0.747210
 C    4.159378    0.307550   -0.821351
 C    3.802911    0.910495    0.551423
 C    2.592235    1.837186    0.467565
 O    2.143488    2.286651    1.733746
 C   -3.244990   -2.351648   -0.671660
 C   -3.812911   -1.138840    1.426532
 C   -1.403734    2.352750   -0.279089
 C    1.340752   -1.275510    1.870264
 C    5.177369    1.176356   -1.565009
 H   -5.640240   -1.022059   -0.577899
 H   -4.601665   -0.442493   -1.875600
 H   -5.937492    1.421913   -0.995539
 H   -5.352019    1.139020    0.636385
 H   -3.658860    1.975417   -1.775760
 H   -4.066644    2.988551   -0.393748
 H   -2.792453    1.507407    1.110476
 H   -2.133299   -0.053457   -1.422716
 H   -1.014770   -0.298424    1.424395
 H   -0.089393   -1.248027   -1.334150
 H    2.044600   -1.969811   -1.475740
 H    3.817515   -2.043360    1.054697
 H    3.973065   -3.149439   -0.293335
 H    4.802920   -1.499913   -1.776058
 H    5.624623   -1.192586   -0.254000
 H    3.236590    0.298540   -1.417949
 H    3.562646    0.130719    1.278847
 H    4.667659    1.456927    0.957075
 H    2.800815    2.687614   -0.201867
 H    1.747368    1.287250    0.041638
 H    2.863250    2.779488    2.145142
 H   -3.029876   -2.280359   -1.745037
 H   -4.111958   -3.011428   -0.546550
 H   -2.384165   -2.823749   -0.188060
 H   -4.702511   -1.762266    1.574990
 H   -2.974852   -1.635803    1.927025
 H   -3.988452   -0.186891    1.937225
 H   -1.656904    3.404711   -0.105022
 H   -0.538431    2.110364    0.345068
 H   -1.100969    2.249330   -1.329118
 H    0.499804   -1.770019    2.369783
 H    2.259433   -1.694484    2.284771
 H    1.303472   -0.211570    2.137038
 H    5.353787    0.803118   -2.580093
 H    6.140116    1.184964   -1.038888
 H    4.831833    2.213284   -1.645723
