55 
1fcy_ligand_xtb.xyz
 C    7.518335    0.856938    0.161921
 C    6.149997    0.284594   -0.000312
 C    6.015217   -0.830099   -0.856858
 C    4.796210   -1.407371   -1.057776
 C    3.641762   -0.893725   -0.426533
 C    3.766088    0.243785    0.415923
 C    5.038971    0.812605    0.615437
 C   -3.640366   -0.457297    0.089604
 C   -4.933234   -1.102339    0.553157
 C   -6.140235   -0.241597    0.162025
 C   -5.907285    1.232219    0.445679
 C   -4.750353    1.803687   -0.382457
 C   -3.557008    0.868877   -0.346795
 C   -4.871768   -1.276181    2.077458
 C   -5.114526   -2.480707   -0.099428
 C   -4.387132    3.172184    0.214527
 C   -5.180155    1.996151   -1.843933
 O    8.384586    0.718252   -0.656612
 O    7.750524    1.543719    1.296998
 C    2.370978   -1.470770   -0.604212
 C    1.257410   -0.936614   -0.000322
 C    1.387537    0.191852    0.837800
 C    2.610719    0.761765    1.041621
 C   -1.245514   -0.715187   -0.271186
 C   -2.479048   -1.218757    0.122721
 C   -2.326242    1.350609   -0.794164
 C   -1.180676    0.587112   -0.760647
 C   -0.062325   -1.599473   -0.200307
 O   -0.149386   -2.808256   -0.291665
 H    6.905355   -1.204373   -1.338387
 H    4.693785   -2.265435   -1.705224
 H    5.100538    1.696118    1.239857
 H   -7.018549   -0.587043    0.711632
 H   -6.346144   -0.378591   -0.900959
 H   -5.684921    1.367021    1.505921
 H   -6.816256    1.797169    0.227683
 H   -4.028181   -1.903028    2.355587
 H   -4.755053   -0.316936    2.575950
 H   -5.783929   -1.746316    2.438823
 H   -4.988836   -2.411256   -1.177875
 H   -4.403480   -3.207367    0.281642
 H   -6.115993   -2.852616    0.108052
 H   -5.292349    3.759733    0.353600
 H   -3.904037    3.050396    1.181927
 H   -3.722508    3.735936   -0.433635
 H   -5.456459    1.047936   -2.297649
 H   -6.033094    2.669444   -1.898013
 H   -4.367777    2.421339   -2.428303
 H    6.990861    1.537275    1.894055
 H    2.264537   -2.344087   -1.231269
 H    0.511899    0.584784    1.332920
 H    2.711435    1.619583    1.691432
 H   -2.502426   -2.238892    0.473182
 H   -2.259783    2.356498   -1.178572
 H   -0.248565    0.989406   -1.129816
