39 
1fhd_ligand_dft.xyz
 C   -1.281897   -0.183101   -0.427443
 C   -2.410674    0.846045   -0.413987
 C   -3.516483    0.372160    0.514763
 C   -3.948085   -1.039326    0.149583
 C   -2.720084   -1.946703    0.154888
 O   -1.957789    2.084799    0.074692
 O   -4.655368    1.204190    0.459108
 O   -4.872564   -1.550198    1.080090
 O   -1.735798   -1.473668   -0.749180
 C    3.481619   -0.077478    0.196494
 C    2.916137    1.294854    0.005926
 C    1.396232    1.211195   -0.064741
 C    0.998701    0.167907   -1.113950
 C    1.463641   -1.242360   -0.713724
 N    2.828145   -1.197992   -0.208781
 C    3.645173   -2.260290    0.111033
 C    4.754646   -1.709811    0.692321
 N    4.645158   -0.340808    0.740061
 O    3.274915    2.151541    1.063751
 O    0.840155    2.452256   -0.449100
 O   -0.376640    0.198899   -1.416074
 H   -0.812892   -0.190837    0.572962
 H   -2.802719    0.928390   -1.439066
 H   -3.111814    0.349288    1.541088
 H   -4.374256   -1.023230   -0.865653
 H   -2.983511   -2.954651   -0.169120
 H   -2.318026   -2.005215    1.179382
 H   -1.120817    2.310344   -0.371475
 H   -4.349431    2.104687    0.631058
 H   -5.541738   -0.862452    1.198813
 H    3.271965    1.713927   -0.950153
 H    1.029297    0.918536    0.931124
 H    1.480995    0.450616   -2.055527
 H    0.807488   -1.654965    0.059022
 H    1.407994   -1.902907   -1.582364
 H    3.361950   -3.280434   -0.099180
 H    5.627529   -2.218964    1.075262
 H    4.129593    1.837326    1.396684
 H    1.176415    3.111028    0.174914
