28 
1fig_ligand_dft.xyz
 C   -1.128306   -0.072830   -0.034355
 C   -0.419795    0.168589   -1.347789
 C    0.640713    0.969134   -1.441985
 C    1.225353    1.727799   -0.274648
 O    0.955919    3.123802   -0.385657
 C    0.600171    1.302355    1.062211
 C   -0.904202    1.124037    0.905751
 O    1.209846    0.144735    1.626723
 C    0.936632   -1.103932    1.049647
 C   -0.540385   -1.317044    0.680967
 C   -2.605902   -0.324738   -0.287167
 O   -3.119192   -0.510733   -1.364214
 O   -3.317001   -0.351517    0.857351
 C    1.930080   -1.438050   -0.069965
 O    1.591803   -2.585998   -0.691724
 O    2.943640   -0.838837   -0.323971
 H   -0.804336   -0.358418   -2.215608
 H    1.132380    1.097963   -2.405321
 H    2.304892    1.544007   -0.218266
 H    1.216324    3.408467   -1.269507
 H    0.817914    2.093483    1.782504
 H   -1.325601    2.038917    0.478641
 H   -1.371912    0.941987    1.876726
 H    1.180830   -1.836090    1.830597
 H   -1.104042   -1.480517    1.604482
 H   -0.637747   -2.212512    0.062088
 H   -4.234666   -0.536210    0.600838
 H    2.299686   -2.764602   -1.331243
