28 
1fj4_ligand_xtb.xyz
 S   -0.919449    1.278799   -1.146715
 C   -2.129003   -0.031698   -0.911459
 C   -1.807428   -0.771641    0.297500
 C   -0.740210   -0.313198    0.973743
 C   -0.106971    0.966326    0.489947
 C    1.384849    0.900963    0.381708
 C    2.125226   -0.055318   -0.199307
 C    3.576505    0.070967   -0.141190
 C    4.454419   -0.832449   -0.562797
 O   -3.018156   -0.225867   -1.692429
 C   -2.632348   -1.962274    0.663220
 O   -0.251705   -0.890042    2.086939
 C   -0.523225    2.100410    1.434948
 C    1.554118   -1.250929   -0.894627
 H    1.896779    1.745986    0.824531
 H    3.939500    0.989493    0.303272
 H    4.162205   -1.769065   -1.004673
 H    5.513655   -0.662123   -0.475329
 H   -3.650469   -1.651841    0.893083
 H   -2.200221   -2.457026    1.528062
 H   -2.679670   -2.654921   -0.175074
 H    0.578152   -0.463732    2.339859
 H   -0.136145    1.925486    2.438553
 H   -1.607682    2.166878    1.487020
 H   -0.135246    3.046856    1.067150
 H    2.070682   -1.406144   -1.838924
 H    0.497128   -1.125989   -1.102114
 H    1.685812   -2.144326   -0.284175
