126 
1fkf_ligand_dft.xyz
 C   -1.050957   -0.065809    1.190515
 C   -0.907750   -1.080860    2.322023
 C   -2.033153   -0.900000    3.350996
 C   -1.988166    0.452908    4.074686
 C   -0.538948    0.924291    4.307410
 C    0.467246   -0.217851    4.260302
 C    1.515735   -1.631462    2.630627
 C    1.567694   -2.474180    1.323434
 C    2.989436   -2.621594    0.724040
 C    3.047932   -3.429767   -0.577354
 C    4.440606   -3.232360   -1.197186
 C    4.824951   -1.756427   -1.329082
 C    4.664859   -1.065722    0.022578
 C    4.935041    0.447876    0.019415
 C    4.387756    1.069403    1.305229
 C    4.756579    2.526861    1.630671
 C    4.111680    3.593635    0.717043
 C    2.632979    3.401121    0.478207
 C    2.179058    3.298027   -0.774173
 C    0.780345    2.914723   -1.207704
 C    0.993643    1.667282   -2.067982
 C    1.242165    0.367621   -1.342938
 C    0.516464   -0.816459   -1.999245
 C   -0.993670   -0.592259   -2.257253
 C   -1.679927    0.136988   -1.095678
 C   -3.140144    0.455091   -1.320958
 C   -4.093603   -0.036518   -0.527971
 C   -5.568249    0.241822   -0.579721
 C   -6.367718   -1.072681   -0.627232
 C   -7.871138   -0.802322   -0.614260
 C   -8.274952    0.012572    0.611515
 C   -7.508533    1.326676    0.657741
 C   -5.998087    1.084080    0.636198
 C    2.747036   -4.915422   -0.384109
 C    6.269748    2.746078    1.700905
 C    1.763290    3.322260    1.707880
 C    0.048240    3.997426   -1.949458
 C   -1.135798    4.511097   -1.607365
 C   -2.001655    4.143203   -0.433863
 C   -1.675565   -1.914104   -2.603989
 C   -3.363043    1.383168   -2.488991
 C    6.452125   -1.963761   -3.038740
 C    5.218805    1.509481   -2.102169
 C   -8.735959   -2.683241   -1.781701
 N    0.395326   -0.962403    2.989422
 O   -1.491883   -0.666266    0.087281
 O   -0.805708    1.116695    1.287315
 O    2.526553   -1.618693    3.336543
 O    0.596270   -3.020779    0.858109
 O    3.329728   -1.273777    0.477381
 O    3.824376   -3.226424    1.658535
 O    6.175442   -1.580967   -1.714162
 O    4.331297    1.068858   -1.103735
 O    1.008827    1.715266   -3.288348
 O    1.165911   -1.179351   -3.204540
 O   -8.652014   -1.984877   -0.564036
 O   -9.657003    0.285167    0.590749
 H   -0.988311   -2.071245    1.883756
 H   -1.935456   -1.720232    4.071148
 H   -2.993424   -1.042747    2.844119
 H   -2.521849    1.206749    3.488893
 H   -2.521097    0.353182    5.025845
 H   -0.265092    1.652808    3.541935
 H   -0.441580    1.416653    5.279999
 H    0.311990   -0.921940    5.088735
 H    1.485212    0.161722    4.355093
 H    2.308085   -2.993494   -1.257562
 H    5.195296   -3.731410   -0.577091
 H    4.447140   -3.715951   -2.180013
 H    4.156896   -1.265780   -2.055062
 H    5.359872   -1.527439    0.736326
 H    6.024209    0.568787   -0.041276
 H    3.300633    0.961635    1.270237
 H    4.720896    0.441800    2.142470
 H    4.358935    2.696576    2.641657
 H    4.633661    3.618184   -0.245375
 H    4.282598    4.571746    1.192159
 H    2.893027    3.401889   -1.590107
 H    0.218726    2.603757   -0.325317
 H    2.318777    0.178699   -1.387739
 H    1.006004    0.469731   -0.281984
 H    0.618791   -1.678635   -1.334130
 H   -1.066299    0.083741   -3.118503
 H   -1.179367    1.091937   -0.921855
 H   -3.791050   -0.708262    0.274882
 H   -5.813782    0.811186   -1.485357
 H   -6.082595   -1.642312   -1.518975
 H   -6.117071   -1.693904    0.243954
 H   -8.153163   -0.223824   -1.511764
 H   -8.014619   -0.587073    1.502495
 H   -7.807892    1.932808   -0.207467
 H   -7.803573    1.882663    1.553580
 H   -5.694151    0.560331    1.554625
 H   -5.458115    2.037398    0.627438
 H    3.458823   -5.361993    0.316041
 H    2.831631   -5.437259   -1.343239
 H    1.735830   -5.072089   -0.002131
 H    6.734458    2.650760    0.712122
 H    6.503130    3.748304    2.076819
 H    6.745865    2.016582    2.365934
 H    2.073263    4.082475    2.435122
 H    1.854320    2.347932    2.204841
 H    0.704698    3.475856    1.488538
 H    0.543951    4.373508   -2.841316
 H   -1.535630    5.302947   -2.240454
 H   -3.029376    3.949219   -0.764605
 H   -2.052354    4.973475    0.281922
 H   -1.657447    3.257038    0.105971
 H   -2.715097   -1.761072   -2.911798
 H   -1.135306   -2.400755   -3.419867
 H   -1.673303   -2.587242   -1.739780
 H   -2.559906    2.127379   -2.555766
 H   -3.363489    0.829726   -3.436369
 H   -4.310908    1.920544   -2.415890
 H    6.381149   -3.050140   -3.182604
 H    5.769612   -1.471984   -3.749034
 H    7.476569   -1.650132   -3.251986
 H    5.867094    0.699701   -2.455068
 H    4.604179    1.875225   -2.928819
 H    5.852734    2.333730   -1.740088
 H   -9.085532   -2.029396   -2.594976
 H   -7.773160   -3.122940   -2.075490
 H   -9.458407   -3.489818   -1.638446
 H    3.720351   -2.704151    2.478627
 H    1.239442   -0.352363   -3.708918
 H  -10.079480   -0.560144    0.382478
