82 
1fmb_ligand_xtb.xyz
 S    0.074831   -0.464550    1.828507
 O    0.126428    0.692682    2.692431
 O   -1.265216   -0.876110    1.452310
 C    5.790976    1.705765    0.284451
 C    4.991975    2.792116    0.498338
 C    3.686750    2.811096   -0.007681
 C    3.172025    1.762522   -0.731087
 C    3.990881    0.626605   -0.979749
 C    5.314217    0.605165   -0.455708
 C    6.132267   -0.522591   -0.683041
 C    5.677748   -1.590334   -1.402244
 C    4.379667   -1.569263   -1.933012
 C    3.562596   -0.493165   -1.728478
 O   -3.423993   -2.638821    1.095102
 C   -4.527778   -1.897211    0.651270
 N   -3.386843    0.083556   -0.204679
 C   -4.282571   -0.991678   -0.571964
 C   -3.832705   -1.753875   -1.836351
 C   -2.401262   -2.208434   -1.846183
 C   -2.025249   -3.442057   -1.327979
 C   -0.706773   -3.858258   -1.383989
 C    0.252885   -3.058468   -1.982028
 C   -0.118017   -1.835339   -2.515527
 C   -1.432994   -1.410212   -2.442173
 N   -1.454668    2.018547    0.558123
 C   -2.865190    2.354716    0.480601
 C   -3.727897    1.375437   -0.342968
 O   -4.714356    1.749452   -0.942980
 C   -3.110174    3.815658    0.051049
 C   -2.482143    4.135917   -1.300689
 C   -2.603832    4.777615    1.123262
 C   -0.673456    1.625801   -0.463559
 O   -1.046822    1.447768   -1.602022
 C    0.791039    1.399229   -0.043552
 C    1.737168    1.846613   -1.173476
 C    0.976115   -0.073541    0.290740
 C   -0.012771   -2.200269    3.846703
 C    0.897007   -1.889779    2.670447
 C    2.263319   -1.409278    3.118531
 C    0.941790   -3.020649    1.663733
 H    6.798188    1.672868    0.673874
 H    5.355868    3.640413    1.058706
 H    3.069338    3.678760    0.177256
 H    7.133493   -0.520019   -0.276152
 H    6.310933   -2.448277   -1.572954
 H    4.030032   -2.410684   -2.513310
 H    2.572095   -0.500055   -2.152210
 H   -2.683806   -2.035613    1.263186
 H   -5.298396   -2.632050    0.401278
 H   -4.911795   -1.261438    1.465239
 H   -2.545216   -0.166546    0.297605
 H   -5.240591   -0.511885   -0.810673
 H   -3.987248   -1.083369   -2.683716
 H   -4.493329   -2.615506   -1.950626
 H   -2.767820   -4.077918   -0.871471
 H   -0.428609   -4.819847   -0.976160
 H    1.279711   -3.392329   -2.042166
 H    0.611303   -1.216090   -3.018668
 H   -1.706177   -0.448707   -2.847602
 H   -1.044781    2.034092    1.480862
 H   -3.256835    2.244523    1.501874
 H   -4.195321    3.918311   -0.044246
 H   -2.793307    3.405491   -2.040940
 H   -2.796364    5.123895   -1.629819
 H   -1.396186    4.123792   -1.238595
 H   -2.820574    5.803557    0.835873
 H   -3.081951    4.583104    2.081241
 H   -1.526927    4.678980    1.246959
 H    1.011725    1.981937    0.856629
 H    1.497902    2.884324   -1.414843
 H    1.531549    1.253992   -2.062310
 H    2.022885   -0.302281    0.471871
 H    0.562146   -0.720828   -0.480725
 H   -0.998904   -2.486134    3.488262
 H   -0.115215   -1.318096    4.474971
 H    0.394808   -3.014227    4.443066
 H    2.937901   -1.275142    2.275245
 H    2.712423   -2.130658    3.798674
 H    2.161348   -0.458830    3.638053
 H    1.271300   -3.939545    2.145337
 H    1.625998   -2.797643    0.848040
 H   -0.050322   -3.185124    1.247991
