73 
1fpc_ligand_xtb.xyz
 C   -0.228647   -1.891707    1.082085
 C   -0.042336   -1.044837    2.136577
 C   -1.063228   -0.160823    2.507404
 C   -2.238653   -0.142585    1.806104
 C   -2.472907   -1.035198    0.739937
 C   -3.684279   -1.009828   -0.015570
 C   -3.788928   -1.807948   -1.133623
 C   -2.774896   -2.707212   -1.478144
 C   -1.631177   -2.799613   -0.736027
 C   -1.438890   -1.937520    0.360541
 N   -4.692077   -0.116992    0.383141
 C   -5.369798   -0.434575    1.626275
 C   -5.616492    0.331286   -0.632741
 S    1.211091   -2.791106    0.498997
 O    0.935449   -4.174479    0.248130
 O    2.302051   -2.477187    1.382941
 N    1.592359   -2.087538   -0.962668
 C    1.695189   -0.644770   -0.889964
 C    0.362622   -0.050474   -1.360215
 O   -0.254314   -0.640710   -2.238900
 C    2.828243   -0.125428   -1.791144
 C    4.120401   -0.933276   -1.655405
 C    4.721174   -0.932733   -0.243085
 N    4.987535    0.398304    0.256545
 C    4.102325    1.101219    1.040346
 N    4.221818    2.482348    0.920593
 N    3.208165    0.652484    1.823337
 N   -0.099004    1.075964   -0.799294
 C   -1.351106    1.633636   -1.277268
 C   -1.112720    3.004490   -1.905895
 C   -0.437900    3.967467   -0.921536
 C    0.827272    3.291293   -0.379985
 C    0.533457    1.906644    0.200641
 C   -1.404528    4.422933    0.178908
 C   -0.871052    5.597968    0.990762
 H    0.904931   -1.042939    2.650730
 H   -0.898532    0.524180    3.325190
 H   -2.996870    0.587463    2.044618
 H   -4.679092   -1.777126   -1.742358
 H   -2.915145   -3.346760   -2.336395
 H   -0.872261   -3.527700   -0.968663
 H   -4.686300   -0.917048    2.319423
 H   -6.219102   -1.111070    1.456007
 H   -5.750247    0.484371    2.076934
 H   -6.119651    1.225009   -0.259904
 H   -6.387073   -0.411841   -0.881375
 H   -5.065319    0.592467   -1.533847
 H    0.971868   -2.364524   -1.716156
 H    1.904150   -0.403893    0.150169
 H    3.006189    0.923218   -1.541255
 H    2.495275   -0.179259   -2.830193
 H    4.852533   -0.526355   -2.359448
 H    3.917754   -1.968160   -1.929334
 H    5.668626   -1.482080   -0.264248
 H    4.051419   -1.451550    0.443509
 H    5.537133    0.963252   -0.376621
 H    5.155587    2.822803    0.745817
 H    3.763542    2.962774    1.680760
 H    3.146794   -0.359204    1.868410
 H   -1.761223    0.938448   -2.011493
 H   -2.047659    1.708304   -0.437372
 H   -0.468846    2.877000   -2.778835
 H   -2.064417    3.415031   -2.246820
 H   -0.135183    4.863511   -1.476847
 H    1.544019    3.182341   -1.196462
 H    1.294093    3.904867    0.388786
 H    1.453315    1.463666    0.577684
 H   -0.157498    1.997397    1.044985
 H   -2.341814    4.724569   -0.294932
 H   -1.630230    3.597455    0.853963
 H    0.017441    5.318633    1.550819
 H   -1.623154    5.936113    1.699852
 H   -0.618450    6.430903    0.338133
