23 
1fsw_ligand_xtb.xyz
 B   -2.573476    1.026037    0.032073
 O   -3.779658    1.499286   -0.341955
 O   -1.430917    1.753350    0.036757
 C   -2.474148   -0.494711    0.529352
 N   -1.102637   -0.914371    0.753352
 C   -0.501497   -1.841730   -0.014564
 O   -1.083366   -2.564028   -0.794302
 C    1.013847   -1.948342    0.232619
 C    1.662654   -0.611298    0.250348
 C    2.031094    0.135220    1.328924
 C    2.557740    1.399142    0.978722
 C    2.573715    1.599983   -0.361764
 S    1.947416    0.250490   -1.226401
 H   -3.834264    2.405579   -0.649060
 H   -1.471858    2.656400   -0.280115
 H   -2.891374   -1.174183   -0.217239
 H   -3.050748   -0.644915    1.448348
 H   -0.518377   -0.258570    1.250228
 H    1.425042   -2.577155   -0.558528
 H    1.166780   -2.447876    1.192246
 H    1.944905   -0.211157    2.344383
 H    2.907950    2.119037    1.696724
 H    2.920227    2.456963   -0.904229
