52 
1ft4_ligand_xtb.xyz
 C    6.392799    1.983534    0.194877
 C    7.299953    0.943085    0.302355
 C    6.825975   -0.361279    0.247822
 C    5.479498   -0.637570    0.092363
 C    4.562620    0.409506   -0.011296
 C    5.043395    1.725073    0.040099
 N    7.760237   -1.468044    0.358906
 O    7.299364   -2.585581    0.310432
 O    8.928765   -1.194838    0.492565
 C    3.152166    0.127109   -0.170946
 S    2.630637   -1.508346   -0.503726
 C    0.984572   -1.000695   -0.540975
 C    0.886137    0.388957   -0.299269
 C    2.103207    1.026325   -0.091489
 N   -0.444738    0.697685   -0.344774
 C   -1.166360   -0.462897   -0.607776
 C   -0.292836   -1.536874   -0.734061
 C   -1.270213    1.777497   -0.222870
 N   -2.553003    1.282420   -0.410688
 C   -2.540381   -0.085258   -0.647320
 S   -0.863287    3.322915    0.086272
 O   -3.566583   -0.749890   -0.819282
 C   -3.728283    2.118903   -0.463481
 C   -4.611554    2.017860    0.796800
 C   -5.959311    1.345728    0.543498
 N   -5.843417   -0.111042    0.305334
 C   -5.768527   -0.888304    1.562567
 C   -5.563646   -2.370018    1.227744
 O   -6.619429   -2.846285    0.436047
 C   -6.693876   -2.142775   -0.776472
 C   -6.942805   -0.650939   -0.525429
 H    6.740825    3.003707    0.230316
 H    8.357387    1.119445    0.424786
 H    5.159665   -1.669380    0.060229
 H    4.357677    2.551395   -0.053619
 H    2.210645    2.073642    0.116635
 H   -0.554172   -2.555131   -0.940325
 H   -4.297471    1.851676   -1.358893
 H   -3.361179    3.141102   -0.581004
 H   -4.814586    3.022173    1.167206
 H   -4.061774    1.497589    1.582849
 H   -6.424092    1.802867   -0.332872
 H   -6.621899    1.507369    1.397324
 H   -4.921267   -0.309502   -0.227772
 H   -6.706756   -0.762539    2.109508
 H   -4.942475   -0.524608    2.173326
 H   -5.564905   -2.966294    2.140749
 H   -4.603327   -2.500070    0.707143
 H   -7.524543   -2.573934   -1.335927
 H   -5.763886   -2.266897   -1.350286
 H   -6.978647   -0.117296   -1.475634
 H   -7.888479   -0.514605    0.005552
