37 
1fta_ligand_xtb.xyz
 P    1.115046    2.479388   -0.365739
 O    1.419319    3.054666    0.945678
 O   -0.402560    2.442214   -0.794264
 O    1.811542    3.220984   -1.590729
 O    1.597709    0.964020   -0.573324
 C    2.838297    0.622131    0.026396
 C    2.811063   -0.825394    0.527167
 O    1.809509   -1.006056    1.521561
 C    2.501383   -1.854073   -0.571781
 O    3.104591   -3.077899   -0.267787
 C    0.969551   -1.941441   -0.509738
 O    0.511732   -3.204859   -0.877179
 C    0.673031   -1.592880    0.974331
 N   -0.468465   -0.707093    1.032174
 C   -0.587152    0.526174    1.592217
 N   -1.721705    1.112791    1.325607
 C   -2.415932    0.213879    0.549803
 C   -3.682718    0.214243   -0.062857
 N   -4.541929    1.239514    0.028955
 N   -4.036580   -0.858635   -0.777591
 C   -3.195756   -1.869001   -0.895209
 N   -1.986113   -1.994742   -0.375304
 C   -1.630280   -0.929901    0.351534
 H   -0.965157    2.251822   -0.026962
 H    1.860024    4.160556   -1.420291
 H    3.013444    1.290006    0.875516
 H    3.641854    0.744412   -0.705468
 H    3.772084   -1.053717    0.997664
 H    2.838028   -1.497713   -1.554528
 H    2.489268   -3.773519   -0.543267
 H    0.542892   -1.156824   -1.148570
 H   -0.464294   -3.167196   -0.850869
 H    0.428053   -2.508389    1.538114
 H    0.189303    0.956442    2.192343
 H   -4.308425    2.033766    0.596182
 H   -5.442271    1.160209   -0.408698
 H   -3.540598   -2.700493   -1.494792
