34 
1fvt_ligand_xtb.xyz
 N   -3.120296    3.069583    0.015408
 C   -1.757279    2.926826    0.001610
 C   -1.494059    1.466000   -0.009370
 C   -3.160188   -0.512223   -0.007562
 C   -4.518745   -0.788147    0.003393
 C   -5.480704    0.211574    0.018840
 C   -5.104550    1.548006    0.023647
 C   -3.755919    1.840007    0.013142
 C   -2.783786    0.818436   -0.002423
 O   -0.944725    3.837023    0.000175
 N   -0.345393    0.873257   -0.019196
Br   -5.086319   -2.607226   -0.002514
 N    0.758411    1.576828   -0.023617
 C    1.998485    0.974297   -0.023041
 C    3.142930    1.776072   -0.020205
 C    4.390016    1.183855   -0.013815
 C    4.494804   -0.195746   -0.010746
 C    3.371112   -0.999145   -0.015976
 C    2.118247   -0.417617   -0.023640
 S    6.143324   -0.875773    0.020544
 O    6.733380   -0.590515    1.296088
 O    6.835227   -0.466130   -1.166801
 N    5.868824   -2.536489   -0.071287
 H   -3.591885    3.960036    0.026443
 H   -2.422194   -1.297306   -0.019750
 H   -6.526516   -0.052918    0.027301
 H   -5.850509    2.327032    0.035783
 H    0.707592    2.599598   -0.019027
 H    3.043619    2.851212   -0.021462
 H    5.292059    1.774096   -0.011221
 H    3.487755   -2.070379   -0.015047
 H    1.221386   -1.015464   -0.028446
 H    6.265538   -2.923157   -0.912664
 H    6.217065   -3.005906    0.749393
