75 
1fwv_ligand_dft.xyz
 C   -0.957298    0.254548    0.590663
 C   -2.117600   -0.178286   -0.306763
 C   -3.137292   -0.906774    0.557543
 C   -2.491647   -2.063433    1.313930
 C   -1.253301   -1.564276    2.070149
 C   -0.459112   -2.687039    2.738726
 O   -0.019082    0.858427   -0.221499
 O   -2.763787    0.939894   -0.880299
 O   -4.176669   -1.494300   -0.240593
 O   -2.113505   -3.090170    0.414529
 O   -0.374551   -0.857127    1.220203
 O    0.134293   -3.583141    1.838796
 S   -5.505870   -0.611905   -0.595445
 O   -5.045930    0.115799   -1.918388
 O   -6.509241   -1.568864   -0.950380
 O   -5.689371    0.343631    0.472389
 C    1.697357    4.049293    0.813467
 C    0.595159    3.143562    0.241652
 C    0.951653    1.663214    0.433122
 C    2.326653    1.397080   -0.170764
 C    3.343381    2.392779    0.416919
 C    4.727323    2.274955   -0.201727
 C   -1.789598    3.662758    0.007864
 C   -3.066912    4.060791    0.704976
 N   -0.697462    3.485297    0.797770
 O    1.424078    5.392570    0.644209
 O    2.913343    3.733083    0.187345
 O    4.692233    2.440637   -1.603944
 O   -1.755167    3.440498   -1.200974
 C    3.308230   -0.621119   -0.951613
 C    4.273406   -1.654829   -0.383484
 C    3.515242   -2.710291    0.416177
 C    2.429600   -3.333003   -0.453761
 C    1.557863   -2.227410   -1.060442
 C    0.548498   -2.742576   -2.067495
 O    2.738564    0.089537    0.128984
 O    5.249878   -1.023669    0.410900
 O    4.423827   -3.679777    0.903316
 O    3.122720   -4.117314   -1.424112
 O    2.341406   -1.243630   -1.742433
 H   -1.330861    0.958870    1.357913
 H   -1.722476   -0.854004   -1.074593
 H   -3.586794   -0.200459    1.263880
 H   -3.214765   -2.448710    2.047231
 H   -1.621345   -0.893111    2.867244
 H    0.351462   -2.237037    3.317869
 H   -1.135002   -3.198407    3.444160
 H   -2.124472    1.593810   -1.229163
 H   -2.895009   -3.326205   -0.104870
 H   -0.555115   -3.844747    1.209644
 H   -4.205056    0.611556   -1.709751
 H    1.790173    3.899410    1.901978
 H    0.525244    3.327546   -0.835913
 H    0.982664    1.403913    1.500466
 H    2.259855    1.549271   -1.255105
 H    3.427219    2.206362    1.500345
 H    5.136655    1.283130    0.001412
 H    5.377638    3.023799    0.272368
 H   -3.549945    4.855853    0.133290
 H   -2.922045    4.389644    1.737495
 H   -3.734841    3.192685    0.694517
 H   -0.739155    3.797271    1.756941
 H    1.328923    5.560280   -0.303603
 H    4.313041    3.312844   -1.772175
 H    3.833139    0.069906   -1.619011
 H    4.737363   -2.147635   -1.250979
 H    3.051190   -2.237427    1.286432
 H    1.798735   -3.969026    0.178261
 H    1.028655   -1.754354   -0.228221
 H    1.048457   -3.240095   -2.905122
 H   -0.024043   -1.904088   -2.474027
 H   -0.148277   -3.436938   -1.586600
 H    5.675597   -1.739946    0.903774
 H    4.559561   -4.285430    0.157768
 H    2.505859   -4.753479   -1.800352
