80 
1fyr_ligand_dft.xyz
 C    6.803117   -0.919679    0.236207
 O    6.194078   -1.471043    1.140351
 C    8.091910   -1.469745   -0.336173
 N    6.359686    0.244491   -0.337912
 C    5.001145    0.680301   -0.082629
 C    4.034915   -0.223632   -0.867819
 O    4.252070   -0.503029   -2.039165
 C    4.827754    2.153544   -0.470295
 C    3.434344    2.645287   -0.160996
 C    3.000005    2.759873    1.162691
 C    2.535574    2.938082   -1.185942
 C    1.695249    3.136128    1.458259
 C    1.232848    3.334827   -0.907976
 C    0.820011    3.417084    0.415851
 O   -0.476342    3.806601    0.721228
 P   -1.671812    2.735894    0.575021
 O   -1.592261    2.364571   -0.965604
 O   -2.945690    3.312993    1.056574
 O   -1.242072    1.442451    1.392534
 N    2.991058   -0.702913   -0.154496
 C    2.069578   -1.686483   -0.662750
 C    0.675967   -1.362992   -0.107278
 O    0.522889   -0.439695    0.689422
 C    2.506377   -3.131217   -0.285324
 C    3.867197   -3.480477   -0.891186
 C    2.526990   -3.329439    1.231979
 N   -0.299152   -2.220019   -0.482391
 C   -1.687854   -2.218381   -0.063247
 C   -2.515001   -1.207103   -0.864720
 O   -1.983571   -0.218121   -1.365228
 C   -1.876445   -1.934896    1.438047
 C   -3.215002   -2.460371    1.942735
 O   -3.864518   -3.307934    1.335392
 N   -3.592859   -1.976325    3.149055
 N   -3.835735   -1.457473   -0.913369
 C   -4.775690   -0.366973   -1.129564
 C   -4.557541    0.653404   -0.002467
 O   -4.267243    0.311667    1.125172
 C   -6.215749   -0.912080   -1.137980
 C   -6.403694   -1.918732   -2.275930
 C   -7.239024    0.221506   -1.242197
 O   -4.690369    1.903953   -0.407704
 H    7.850980   -2.131146   -1.175940
 H    8.596997   -2.058926    0.430149
 H    8.758792   -0.681621   -0.697160
 H    6.716162    0.459206   -1.259821
 H    4.831029    0.556881    0.989722
 H    5.580149    2.736190    0.073222
 H    5.033408    2.264411   -1.541512
 H    3.689539    2.548667    1.977125
 H    2.855069    2.847264   -2.220501
 H    1.344407    3.214321    2.481496
 H    0.528780    3.555607   -1.700838
 H   -1.873902    1.446636   -1.186755
 H   -0.556091    0.858052    0.992273
 H    2.791230   -0.319279    0.758059
 H    2.055106   -1.590551   -1.755289
 H    1.763535   -3.817337   -0.715747
 H    4.663179   -2.912405   -0.400035
 H    3.902921   -3.264767   -1.962831
 H    4.076295   -4.544699   -0.738793
 H    1.555997   -3.114623    1.693336
 H    2.790254   -4.363394    1.475068
 H    3.282826   -2.681090    1.688101
 H   -0.065124   -2.873008   -1.214723
 H   -2.074673   -3.225796   -0.243726
 H   -1.794168   -0.868909    1.654440
 H   -1.084164   -2.446189    1.996484
 H   -3.256753   -1.065680    3.428950
 H   -4.535426   -2.202599    3.434257
 H   -4.157195   -2.229473   -0.332513
 H   -4.553507    0.115557   -2.085410
 H   -6.366122   -1.427438   -0.178210
 H   -6.264511   -1.429328   -3.247250
 H   -7.415803   -2.334899   -2.250698
 H   -5.695149   -2.749873   -2.213177
 H   -7.187431    0.906315   -0.391373
 H   -7.077611    0.809547   -2.152792
 H   -8.251291   -0.192673   -1.281493
 H   -4.295704    2.509307    0.279834
