43 
1fzq_ligand_xtb.xyz
 P   -1.458298    1.869372   -0.142757
 O   -2.058026    0.893639   -1.044592
 O   -1.361718    3.346080   -0.706094
 O   -2.065399    2.173182    1.255762
 O    0.107478    1.490249    0.198203
 P    1.226992    2.174929   -0.744255
 O    0.781432    2.390343   -2.111873
 O    1.648508    3.464578    0.087554
 O    2.485716    1.245447   -0.648858
 C    3.268246    1.007924    0.517163
 C    3.397333   -0.498566    0.802907
 O    2.374238   -0.941063    1.688477
 C    3.281715   -1.365431   -0.458755
 O    4.053459   -2.523925   -0.312656
 C    1.780569   -1.692136   -0.482303
 O    1.527770   -2.881215   -1.162760
 C    1.459785   -1.771119    1.028493
 N    0.116419   -1.336610    1.315917
 C   -0.280306   -0.539269    2.349350
 N   -1.547641   -0.254833    2.316248
 C   -2.036210   -0.900781    1.209599
 C   -3.342780   -0.869011    0.618335
 O   -4.353668   -0.325364    0.993514
 N   -3.344694   -1.620757   -0.574067
 C   -2.261466   -2.195656   -1.155451
 N   -2.446928   -2.828523   -2.340491
 N   -1.078180   -2.244695   -0.600299
 C   -0.997854   -1.564815    0.567530
 H   -1.282233    3.308979   -1.663370
 H   -2.199576    1.395011    1.830877
 H    0.983408    4.153123    0.043563
 H    2.825472    1.496897    1.385706
 H    4.256641    1.431506    0.321485
 H    4.353380   -0.687003    1.302925
 H    3.584600   -0.808065   -1.353633
 H    3.605143   -3.224101   -0.809035
 H    1.227729   -0.849843   -0.919658
 H    0.552968   -2.977850   -1.165814
 H    1.582937   -2.812587    1.378388
 H    0.409400   -0.198867    3.093616
 H   -4.212904   -1.571362   -1.093301
 H   -3.232893   -2.556539   -2.906606
 H   -1.609822   -3.088329   -2.835720
