50 
1g05_ligand_dft.xyz
 C   -2.380061   -0.073918    0.766351
 C   -2.173883   -1.432045    0.986633
 C   -2.949201   -2.371422    0.316047
 C   -3.933563   -1.942084   -0.580397
 C   -4.144766   -0.570850   -0.785800
 C   -3.374178    0.360163   -0.116278
 O   -4.734387   -2.763980   -1.285191
 C   -4.591591   -4.160449   -1.110354
 S   -1.305281    1.103402    1.538806
 O   -0.791989    0.524645    2.765989
 O   -1.983251    2.395177    1.513153
 N    0.008317    1.274184    0.526769
 C   -0.215319    1.928082   -0.777534
 C    0.381603    1.093352   -1.909443
 C    1.833912    0.728886   -1.651803
 N    2.088501    0.484526   -0.324043
 C    0.982756    0.174591    0.548756
 O    2.674860    0.657004   -2.526822
 C    0.407272    3.329302   -0.740837
 N   -0.261527    4.229251    0.005830
 O    0.377708    5.440103    0.232773
 O    1.411859    3.643586   -1.371168
 C    3.425038    0.086708    0.102440
 C    3.774598   -3.396314    1.616362
 C    3.676991   -2.011275    1.495753
 C    3.568763   -1.413792    0.241159
 C    3.555007   -2.222976   -0.899867
 C    3.650046   -3.604258   -0.780759
 C    3.760630   -4.194567    0.477761
 H   -1.423547   -1.757252    1.699798
 H   -2.781536   -3.424745    0.504766
 H   -4.927920   -0.264288   -1.470270
 H   -3.555657    1.421460   -0.248810
 H   -5.330079   -4.618614   -1.767829
 H   -4.794874   -4.453888   -0.073547
 H   -3.588875   -4.498218   -1.398689
 H   -1.290783    2.040246   -0.946151
 H   -0.203069    0.170385   -2.015561
 H    0.337585    1.636585   -2.853294
 H    1.353757    0.066657    1.567796
 H    0.505918   -0.776339    0.257061
 H   -0.857912    3.948843    0.778626
 H    1.163401    5.355510   -0.344620
 H    3.638962    0.583489    1.055034
 H    4.112925    0.475872   -0.650228
 H    3.864367   -3.848956    2.599444
 H    3.691292   -1.389340    2.388393
 H    3.473632   -1.755190   -1.877460
 H    3.645667   -4.223719   -1.673069
 H    3.841486   -5.273747    0.568814
