62 
1g2a_ligand_xtb.xyz
 C    3.764471    1.195156   -0.570281
 C    4.778485    0.087803   -0.374994
 O    5.717143    0.133647    0.405837
 N    4.593894   -0.974290   -1.177130
 O    5.409568   -2.091101   -0.953158
 C    2.579015    1.005214    0.388149
 C    1.695861   -0.152293   -0.068010
 O    1.844109   -0.740532   -1.127620
 C    1.731658    2.284920    0.514384
 C    0.920670    2.594298   -0.742636
 C    0.063651    3.852458   -0.599480
 C   -1.007782    3.738354    0.485708
 C   -2.050849    4.842437    0.364428
 N    0.745357   -0.502197    0.818892
 C   -0.315654   -1.418793    0.469254
 C   -0.497340   -2.511683    1.546250
 C    0.689857   -3.470524    1.512943
 C   -0.664489   -1.905626    2.938615
 C   -1.598781   -0.604294    0.303778
 O   -1.779848    0.403352    0.980658
 N   -2.490623   -1.030851   -0.594995
 C   -3.703403   -0.258566   -0.884575
 C   -2.373586   -2.202074   -1.445675
 C   -3.769795   -2.356950   -2.041472
 C   -4.241383   -0.910696   -2.159102
 C   -4.683182   -0.287567    0.307459
 O   -4.508078    0.797376    1.169982
 H    3.412656    1.193144   -1.601138
 H    4.256676    2.142248   -0.348796
 H    3.690906   -1.200087   -1.582112
 H    6.049553   -1.761810   -0.287693
 H    2.975820    0.758681    1.380237
 H    1.045751    2.177560    1.356075
 H    2.393165    3.124697    0.737148
 H    1.597256    2.723352   -1.589515
 H    0.266783    1.747950   -0.967576
 H   -0.427470    4.039906   -1.557601
 H    0.707323    4.709793   -0.388487
 H   -1.498310    2.765949    0.414011
 H   -0.544584    3.801519    1.471837
 H   -1.582830    5.821233    0.448036
 H   -2.796979    4.748258    1.149435
 H   -2.557817    4.787778   -0.596588
 H    0.533381    0.114156    1.589780
 H   -0.024304   -1.876244   -0.480464
 H   -1.409872   -3.066998    1.300445
 H    0.767011   -3.961016    0.545385
 H    1.614822   -2.928791    1.694914
 H    0.579618   -4.233247    2.279666
 H   -0.984760   -2.672159    3.640106
 H    0.278703   -1.497600    3.294074
 H   -1.409600   -1.113663    2.932974
 H   -3.428291    0.790258   -1.047866
 H   -1.633552   -2.020637   -2.234635
 H   -2.068561   -3.079608   -0.874188
 H   -4.413679   -2.906269   -1.354368
 H   -3.752752   -2.876181   -2.996829
 H   -3.789012   -0.443190   -3.034508
 H   -5.321873   -0.824641   -2.239773
 H   -5.712778   -0.219503   -0.053736
 H   -4.566619   -1.241857    0.846459
 H   -3.553857    0.877011    1.353876
