62 
1g2a_ligand_dft.xyz
 C    3.517386    1.570459   -0.417287
 C    4.697764    0.629260   -0.321748
 O    5.532242    0.665459    0.578762
 N    4.798706   -0.284642   -1.323153
 O    5.736771   -1.291152   -1.110244
 C    2.372328    1.125804    0.502444
 C    1.731411   -0.160822   -0.013112
 O    1.888000   -0.573744   -1.158174
 C    1.276693    2.210371    0.647998
 C    0.455369    2.466625   -0.618614
 C   -0.532578    3.630442   -0.483229
 C   -1.605797    3.442237    0.591552
 C   -2.647612    4.558450    0.579652
 N    0.925429   -0.797222    0.885709
 C   -0.128148   -1.675944    0.415892
 C   -0.278523   -2.939267    1.292909
 C    0.943948   -3.840947    1.117058
 C   -0.518689   -2.608580    2.768370
 C   -1.413661   -0.840232    0.373746
 O   -1.573938    0.049341    1.219490
 N   -2.310020   -1.097195   -0.593736
 C   -3.454712   -0.195609   -0.865354
 C   -2.167789   -2.145675   -1.610777
 C   -3.560439   -2.206508   -2.228740
 C   -3.998672   -0.740447   -2.200426
 C   -4.496135   -0.148517    0.268625
 O   -4.207028    0.802736    1.254554
 H    3.167717    1.637726   -1.450340
 H    3.867475    2.556623   -0.100242
 H    3.932258   -0.653665   -1.705239
 H    6.155278   -0.985747   -0.277935
 H    2.790758    0.933630    1.498597
 H    0.596366    1.925517    1.458348
 H    1.765065    3.140166    0.966943
 H    1.127570    2.670307   -1.461106
 H   -0.099841    1.555777   -0.881548
 H   -1.026169    3.777751   -1.453580
 H    0.023098    4.558004   -0.282884
 H   -2.105729    2.477248    0.453856
 H   -1.137835    3.396796    1.582842
 H   -2.185759    5.535598    0.764708
 H   -3.411295    4.391546    1.345405
 H   -3.155097    4.610668   -0.390887
 H    0.667575   -0.264437    1.707139
 H    0.162764   -1.974641   -0.593238
 H   -1.162666   -3.475675    0.920325
 H    1.079931   -4.132088    0.069887
 H    1.851743   -3.321500    1.441304
 H    0.841266   -4.752876    1.713939
 H   -0.718075   -3.526374    3.330220
 H    0.369048   -2.141724    3.210444
 H   -1.365308   -1.930004    2.906544
 H   -3.071169    0.824113   -0.985009
 H   -1.414489   -1.858774   -2.356449
 H   -1.865230   -3.093929   -1.160772
 H   -4.219576   -2.817507   -1.602520
 H   -3.548511   -2.635878   -3.233087
 H   -3.537644   -0.201619   -3.035052
 H   -5.080673   -0.615493   -2.285256
 H   -5.459521    0.142929   -0.162866
 H   -4.614442   -1.163543    0.685726
 H   -3.278923    0.656773    1.511201
