57 
1g2m_ligand_dft.xyz
 N    7.025092    3.064025   -1.625214
 N    7.476524    3.114575    0.629215
 C    6.870532    2.528990   -0.472184
 C    6.122942    1.272879   -0.176145
 C    4.974777    0.945590   -0.897193
 C    4.267734   -0.224888   -0.652901
 C    4.705595   -1.110619    0.341148
 C    5.858435   -0.784805    1.072569
 C    6.550859    0.386777    0.818825
 N    4.020896   -2.285594    0.651788
 C    3.016762   -2.835646   -0.239324
 N    1.102532   -1.617274   -1.229988
 C    1.707652   -2.101544   -0.175243
 N    1.035322   -1.872905    1.000283
 C   -0.097309   -1.159644    0.661033
 C   -0.041130   -1.019018   -0.735551
 C   -1.148134   -0.641665    1.418921
 C   -2.149188    0.022344    0.731263
 C   -2.115488    0.172986   -0.671826
 C   -1.065071   -0.349507   -1.411129
 C    1.435922   -2.239693    2.342240
 C   -3.233200    0.922202   -1.369637
 N   -4.557308    0.497626   -0.957105
 C   -5.188895   -0.677330   -1.307391
 N   -6.339263   -0.846051   -0.710000
 C   -6.487302    0.267258    0.100129
 C   -5.375905    1.120214   -0.032913
 C   -7.526040    0.611120    0.968311
 C   -7.416814    1.795160    1.682352
 C   -6.295241    2.631374    1.543638
 C   -5.253423    2.309446    0.684524
 C   -4.583039   -1.630114   -2.281431
 H    6.637875    2.457812   -2.347117
 H    7.866510    4.024082    0.416864
 H    6.947407    3.090442    1.489798
 H    4.609434    1.629791   -1.658436
 H    3.372471   -0.433429   -1.228458
 H    6.211996   -1.463813    1.845336
 H    7.451609    0.612192    1.381967
 H    4.601041   -2.982963    1.093748
 H    2.862081   -3.881091    0.051146
 H    3.327234   -2.830609   -1.292737
 H   -1.189615   -0.745540    2.498630
 H   -2.989516    0.431983    1.284980
 H   -1.027779   -0.250221   -2.492435
 H    1.973506   -3.188814    2.324942
 H    2.083424   -1.477660    2.784055
 H    0.540117   -2.363219    2.955116
 H   -3.144567    0.800774   -2.454049
 H   -3.164531    1.996525   -1.170308
 H   -8.387088   -0.040979    1.072662
 H   -8.210022    2.084636    2.365040
 H   -6.241367    3.549140    2.121479
 H   -4.387381    2.957600    0.585352
 H   -4.446409   -1.164567   -3.264614
 H   -3.602723   -1.978477   -1.938260
 H   -5.250463   -2.485608   -2.390060
