30 
1g3d_ligand_xtb.xyz
 C   -2.847229   -0.098749   -0.043756
 C   -1.571607   -0.570165   -0.308524
 C   -0.453833    0.256673   -0.215116
 C   -0.626938    1.609686    0.153711
 C   -1.917297    2.080636    0.404363
 C   -3.006866    1.243970    0.307609
 C    0.859098   -0.280689   -0.490440
 C   -3.991067   -1.023938   -0.163932
 O    0.400183    2.453853    0.262209
 N   -5.117633   -0.696061    0.552695
 N   -3.881375   -2.020418   -0.940892
 N    1.901776    0.447621   -0.448855
 C    3.201434   -0.115292   -0.670638
 C    4.220784    1.013478   -0.815639
 C    3.564541   -1.054022    0.479543
 O    2.792859   -1.473632    1.296659
 O    4.856708   -1.391496    0.459613
 H   -1.458961   -1.603964   -0.595861
 H   -2.036086    3.119592    0.669924
 H   -3.994133    1.647540    0.478662
 H    0.894743   -1.344305   -0.748740
 H    1.223883    1.945332    0.046464
 H   -5.853375   -1.382917    0.600132
 H   -5.034710   -0.087755    1.348899
 H   -4.704236   -2.617580   -0.978565
 H    3.217894   -0.750785   -1.572728
 H    4.214707    1.631042    0.078780
 H    3.952673    1.633205   -1.666892
 H    5.216326    0.607394   -0.965258
 H    5.057779   -1.994135    1.193610
