24 
1g3m_ligand_xtb.xyz
Cl    3.681154   -2.548267    0.908392
Cl    3.725286    2.505081   -0.904852
 O    4.895778   -0.055173    0.013406
 C    0.734676   -0.004140    0.002666
 C    1.439688   -1.137586    0.400822
 C    2.821387   -1.144679    0.403758
 C    3.554163   -0.022672    0.004146
 C    2.828666    1.102315   -0.394843
 C    1.448739    1.123200   -0.396647
Cl   -3.681608    2.548211    0.907881
Cl   -3.725077   -2.504819   -0.905474
 O   -4.895678    0.054530    0.014405
 C   -0.734654    0.004374    0.002927
 C   -1.439704    1.137659    0.400974
 C   -2.821446    1.144660    0.403900
 C   -3.554078    0.022588    0.004281
 C   -2.828455   -1.102302   -0.394816
 C   -1.448543   -1.123030   -0.396610
 H    5.233389    0.803379   -0.289695
 H    0.913572   -2.016596    0.735541
 H    0.929158    2.006642   -0.730529
 H   -5.233045   -0.804489   -0.287452
 H   -0.913689    2.016727    0.735753
 H   -0.928658   -2.006338   -0.730559
