34 
1g48_ligand_xtb.xyz
 C    1.349739    0.935414    0.894720
 C    2.651021    0.505571    1.089010
 C    3.349167   -0.034950    0.028368
 C    2.789645   -0.144408   -1.228434
 C    1.493181    0.296037   -1.426442
 C    0.764901    0.825722   -0.364471
 C   -0.630582    1.288069   -0.639104
 O   -0.953683    1.808087   -1.686375
 N   -1.498910    1.094630    0.385926
 C   -2.902165    1.376060    0.235170
 S    5.035292   -0.550609    0.284975
 N    5.842659    0.893574   -0.030591
 O    5.407323   -1.502530   -0.719805
 O    5.234416   -0.868098    1.668823
 C   -3.789485    0.158003    0.168262
 C   -5.154263    0.296344    0.412985
 C   -6.049778   -0.752387    0.348165
 C   -5.579730   -2.013114    0.022729
 C   -4.233768   -2.203522   -0.225876
 C   -3.366160   -1.126759   -0.152526
 F   -5.617926    1.521066    0.735215
 F   -2.060045   -1.364615   -0.394516
 H    0.804970    1.379690    1.714844
 H    3.134214    0.569358    2.050739
 H    3.373062   -0.578723   -2.024244
 H    1.024272    0.236219   -2.396488
 H   -1.212540    0.534954    1.173097
 H   -2.998725    1.939000   -0.702306
 H   -3.244789    2.017798    1.055170
 H    6.376074    1.207016    0.763673
 H    6.413214    0.832865   -0.857896
 H   -7.092853   -0.571101    0.549872
 H   -6.262336   -2.845334   -0.035774
 H   -3.838510   -3.173648   -0.480407
