34 
1g4j_ligand_xtb.xyz
 C    2.177847   -1.198176   -0.763127
 C    3.441078   -0.700101   -1.031622
 C    4.086653    0.056174   -0.074557
 C    3.513453    0.315879    1.153749
 C    2.256831   -0.193088    1.429424
 C    1.580061   -0.939840    0.468237
 C    0.225559   -1.458889    0.819318
 O   -0.072185   -1.837469    1.931176
 N   -0.656911   -1.485918   -0.218400
 C   -2.026892   -1.861343   -0.003179
 S    5.723679    0.671824   -0.424236
 N    6.655043   -0.591194    0.183789
 O    5.976010    1.838277    0.368077
 O    5.918997    0.720145   -1.843311
 C   -3.013885   -0.719699   -0.060626
 C   -2.684502    0.607599    0.196438
 C   -3.640466    1.620529    0.157458
 C   -4.964802    1.318930   -0.139185
 C   -5.320710   -0.001477   -0.400789
 C   -4.347936   -0.992806   -0.358039
 F   -1.424945    0.955197    0.481286
 F   -3.282826    2.880215    0.405363
 F   -5.882564    2.282433   -0.176149
 F   -6.584047   -0.308527   -0.692381
 F   -4.705189   -2.255935   -0.616999
 H    1.675591   -1.808973   -1.498884
 H    3.933519   -0.874668   -1.974841
 H    4.053752    0.918060    1.866211
 H    1.779190   -0.019079    2.381162
 H   -0.412069   -1.043033   -1.089173
 H   -2.057415   -2.302580    1.003191
 H   -2.330050   -2.627350   -0.724559
 H    7.225683   -1.016047   -0.528622
 H    7.205834   -0.305956    0.976960
