34 
1g53_ligand_xtb.xyz
 C    1.333518    0.960357    0.867900
 C    2.629627    0.530907    1.097085
 C    3.345980   -0.035058    0.062339
 C    2.810176   -0.171148   -1.202389
 C    1.520595    0.271292   -1.436140
 C    0.774166    0.827093   -0.400375
 C   -0.611526    1.294329   -0.714585
 O   -0.901454    1.818831   -1.769093
 N   -1.511220    1.097993    0.281765
 C   -2.909803    1.388970    0.092213
 S    5.023915   -0.558629    0.356046
 N    5.861285    0.826001   -0.111443
 O    5.364532   -1.613352   -0.552567
 O    5.228794   -0.743417    1.763173
 C   -3.801144    0.173936    0.114684
 C   -5.120907    0.282391    0.546253
 C   -6.002407   -0.780924    0.569162
 C   -5.564407   -2.022897    0.143709
 C   -4.262076   -2.183391   -0.291596
 C   -3.408377   -1.093973   -0.302161
 F   -5.557131    1.487320    0.966384
 F   -2.144973   -1.293817   -0.728441
 H    0.773280    1.422435    1.667577
 H    3.095238    0.614825    2.066077
 H    3.405963   -0.627565   -1.976186
 H    1.070399    0.192629   -2.413572
 H   -1.247792    0.551360    1.085891
 H   -2.982870    1.877028   -0.888546
 H   -3.252443    2.097126    0.854935
 H    6.393869    1.217934    0.647704
 H    6.437271    0.662172   -0.920919
 H   -7.011001   -0.624201    0.915481
 H   -6.238077   -2.864501    0.151674
 H   -3.893475   -3.138459   -0.629289
