34 
1g54_ligand_xtb.xyz
 C   -2.201184   -1.475172    0.566433
 C   -3.533754   -1.100775    0.573961
 C   -3.915496    0.055080   -0.076638
 C   -3.004758    0.843312   -0.750442
 C   -1.674662    0.463821   -0.770658
 C   -1.266429   -0.688898   -0.103484
 C    0.180357   -1.050854   -0.167610
 O    0.880355   -0.801391   -1.128261
 N    0.662668   -1.680633    0.935665
 C    2.066049   -2.030874    1.017443
 S   -5.640579    0.509226   -0.087230
 N   -6.135878   -0.238773   -1.510582
 O   -5.761505    1.925778   -0.260437
 O   -6.305814   -0.133547    1.007352
 C    2.951468   -0.881467    0.598446
 C    3.983501   -1.056703   -0.316550
 C    4.766295    0.008162   -0.749168
 C    4.518739    1.288288   -0.263172
 C    3.499149    1.486276    0.662815
 C    2.736472    0.404237    1.084087
 F    4.240594   -2.279189   -0.788041
 F    5.751116   -0.192146   -1.624698
 F    5.258591    2.316964   -0.674375
 F    3.261036    2.706782    1.145652
 F    1.765147    0.608971    1.985202
 H   -1.898724   -2.389833    1.054587
 H   -4.285328   -1.680910    1.084992
 H   -3.348827    1.741229   -1.237641
 H   -0.934716    1.047198   -1.297011
 H    0.119564   -1.674878    1.782587
 H    2.267235   -2.878607    0.354384
 H    2.291319   -2.321535    2.045720
 H   -6.831365   -0.947229   -1.343250
 H   -6.444530    0.427044   -2.199921
