8 
1g5f_ligand_xtb.xyz
Cl   -2.151995   -0.071006   -0.000729
 C   -0.490253    0.576635    0.001443
 C    0.490394   -0.577162    0.001425
Cl    2.151896    0.071276   -0.000723
 H   -0.380385    1.191656    0.894440
 H   -0.378411    1.192637   -0.890685
 H    0.378910   -1.193285   -0.890734
 H    0.380721   -1.192434    0.894441
