72 
1g7f_ligand_xtb.xyz
 C    7.020991    0.628021    0.074745
 O    7.324837    0.173822   -1.125644
 O    7.662855    1.440867    0.679758
 C    4.173607   -1.704747    0.121991
 C    3.709865   -2.552400   -0.881139
 C    2.473469   -3.153083   -0.767530
 C    1.670655   -2.938201    0.348269
 C    2.157980   -2.118515    1.354998
 C    3.393657   -1.500622    1.252688
 C    5.717198    0.033294    0.614555
 C    0.283465   -3.508498    0.417067
 C   -0.696718   -2.567796   -0.290713
 O    5.412037   -1.142359   -0.084426
 C    4.617878    1.087182    0.373099
 O    4.247480    1.375240   -0.741539
 O    4.127103    1.583795    1.473130
 N   -0.654599   -1.252723    0.322172
 C   -2.147212   -3.091835   -0.246398
 C   -0.810367   -0.120544   -0.406336
 N   -2.948654   -2.397535   -1.070279
 O   -2.501835   -4.009156    0.463997
 C   -4.384479   -2.556572   -1.081288
 C   -5.080222   -1.445416   -0.291893
 C   -6.597457   -1.609728   -0.325274
 C   -7.337674   -0.496486    0.416368
 C   -7.151284   -0.558239    1.927756
 O   -1.105001   -0.134577   -1.588254
 N   -0.650404    1.043980    0.304897
 C   -0.323047    2.273534   -0.390716
 C   -1.032864    3.474668    0.246373
 C    1.197131    2.379423   -0.303969
 O    1.801630    2.194772   -1.442464
 O    1.767338    2.527403    0.763583
 C   -2.519840    3.308134    0.109985
 C   -3.260882    2.685673    1.104969
 C   -4.624127    2.500510    0.955377
 C   -5.260707    2.934293   -0.194438
 C   -4.528055    3.547984   -1.195996
 C   -3.165584    3.730798   -1.044655
 H    8.140636    0.583440   -1.458093
 H    4.333948   -2.712540   -1.745262
 H    2.120106   -3.794842   -1.560857
 H    1.574059   -1.960134    2.251024
 H    3.730712   -0.873025    2.062790
 H    5.833269   -0.121471    1.696658
 H    0.235116   -4.479664   -0.075231
 H   -0.040884   -3.640226    1.450684
 H   -0.404403   -2.433199   -1.338642
 H    3.308165    2.139736    1.295099
 H   -0.525826   -1.214378    1.319331
 H   -2.558558   -1.598983   -1.559044
 H   -4.601862   -3.528088   -0.631064
 H   -4.731489   -2.556477   -2.118615
 H   -4.803961   -0.474714   -0.712742
 H   -4.721291   -1.480105    0.737544
 H   -6.924929   -1.616202   -1.367808
 H   -6.865069   -2.574262    0.111503
 H   -8.403779   -0.575949    0.191163
 H   -6.990242    0.469497    0.045119
 H   -7.474871   -1.523399    2.311110
 H   -7.739848    0.217329    2.413371
 H   -6.108737   -0.414744    2.198999
 H   -0.280985    0.983040    1.243213
 H   -0.622892    2.141256   -1.434129
 H   -0.741201    3.538228    1.296342
 H   -0.702137    4.381640   -0.262198
 H    2.782818    2.051297   -1.341897
 H   -2.769290    2.350895    2.007035
 H   -5.191884    2.020237    1.738424
 H   -6.326337    2.800153   -0.309274
 H   -5.019764    3.885687   -2.096321
 H   -2.596805    4.210455   -1.828277
