26 
1g98_ligand_xtb.xyz
 O   -4.188924   -0.973550    0.679121
 C   -3.134128   -1.050893   -0.140699
 O   -2.612094   -2.085284   -0.446080
 C   -2.656305    0.322820   -0.570412
 O   -3.673008    1.290902   -0.574227
 C   -1.524922    0.794676    0.387072
 O   -1.159987    2.105516    0.050215
 C   -0.258208   -0.080629    0.372329
 O    0.588881    0.313332    1.421538
 C    0.493612    0.015017   -0.962044
 O    1.696875   -0.709410   -0.896135
 P    2.912753   -0.073417   -0.044563
 O    4.170831   -0.620214   -0.833331
 O    2.846067    1.387402    0.085197
 O    3.061771   -0.943249    1.267667
 H   -4.468554   -1.859283    0.960626
 H   -2.265565    0.272122   -1.590482
 H   -4.246454    1.143279    0.189694
 H   -1.927196    0.778431    1.417360
 H   -1.958429    2.565638   -0.248159
 H   -0.516232   -1.125315    0.572064
 H    0.841536    1.237067    1.259799
 H    0.704745    1.070135   -1.166358
 H   -0.087850   -0.429482   -1.770980
 H    4.542513    0.083181   -1.363231
 H    2.326571   -0.764026    1.858912
