39 
1g9a_ligand_xtb.xyz
 C   -4.331418   -0.840149   -0.021735
 C   -3.221141   -1.698563   -0.054467
 C   -1.928022   -1.226456   -0.042094
 C   -1.756778    0.148265    0.008255
 C   -2.869521    1.035587    0.053672
 C   -4.162944    0.534405    0.038999
 C   -5.676541   -1.454103   -0.031506
 C   -1.156076    2.281706    0.102720
 C   -0.016501    3.244595    0.145409
 N   -6.704041   -0.662712   -0.477856
 N   -5.798875   -2.639156    0.404079
 N   -0.679838    0.987909    0.041321
 N   -2.448515    2.345424    0.111058
 C    4.361694   -0.770622   -0.046734
 C    3.266631   -1.647200   -0.084741
 C    1.965488   -1.191549   -0.068448
 C    1.774350    0.178835    0.000273
 C    2.872993    1.085470    0.042203
 C    4.171630    0.601199    0.011362
 C    5.746028   -1.313654   -0.104642
 C    1.138615    2.300699    0.102348
 N    6.717274   -0.811449   -0.751718
 N    5.941122   -2.496452    0.555159
 N    0.683461    0.999560    0.040586
 N    2.429633    2.386722    0.106188
 H   -3.417929   -2.757755   -0.080708
 H   -1.088167   -1.902706   -0.068162
 H   -4.993543    1.218190    0.107235
 H   -0.021857    3.849789    1.053952
 H   -0.021141    3.928832   -0.705361
 H   -7.603825   -1.092979   -0.617322
 H   -6.505479    0.147199   -1.038535
 H   -6.748712   -3.002041    0.376840
 H    3.453609   -2.708154   -0.153688
 H    1.135628   -1.879506   -0.109697
 H    5.006090    1.283922    0.047650
 H    6.480894    0.017332   -1.286783
 H    6.903861   -2.788819    0.609483
 H    5.368106   -2.693014    1.358128
