39 
1g9c_ligand_xtb.xyz
 C    4.326663   -0.841380    0.018182
 C    3.214634   -1.697806    0.043441
 C    1.922820   -1.223141    0.023459
 C    1.755023    0.151996   -0.024230
 C    2.869012    1.037818   -0.064775
 C    4.161374    0.533580   -0.045416
 C    5.669220   -1.460227    0.044680
 C    1.156732    2.286385   -0.109171
 C    0.016909    3.249952   -0.139497
 N    5.789765   -2.651743   -0.374074
 N    6.696490   -0.668411    0.490219
 N    0.679593    0.992858   -0.055849
 N    2.449463    2.348534   -0.116879
 C   -4.357133   -0.770833    0.046585
 C   -3.260796   -1.646349    0.064885
 C   -1.960706   -1.188471    0.045074
 C   -1.772612    0.182960   -0.008185
 C   -2.872292    1.088927   -0.033225
 C   -4.169998    0.601961    0.002455
 C   -5.738807   -1.319520    0.112265
 C   -1.138820    2.306199   -0.094706
 N   -6.704271   -0.830958    0.778221
 N   -5.935977   -2.494251   -0.561015
 N   -0.683072    1.004894   -0.047609
 N   -2.430107    2.391196   -0.088476
 H    3.409404   -2.757335    0.070940
 H    1.081456   -1.897563    0.043640
 H    4.993703    1.215610   -0.110321
 H    0.016042    3.860463   -1.044577
 H    0.027889    3.929455    0.714959
 H    6.737397   -3.018959   -0.332780
 H    7.592867   -1.100899    0.643933
 H    6.496555    0.150559    1.037036
 H   -3.446015   -2.708325    0.120785
 H   -1.129463   -1.875438    0.071453
 H   -5.006130    1.283229   -0.019868
 H   -6.464816   -0.008857    1.322092
 H   -6.897374   -2.792286   -0.606340
 H   -5.372030   -2.676771   -1.373640
