39 
1g9c_ligand_dft.xyz
 C    4.313013   -0.861048    0.022003
 C    3.189405   -1.710836    0.108227
 C    1.896777   -1.223139    0.081928
 C    1.747949    0.158833   -0.029337
 C    2.855829    1.036830   -0.118085
 C    4.148938    0.513751   -0.101310
 C    5.669619   -1.485192    0.051282
 C    1.164231    2.307879   -0.197794
 C    0.015192    3.283165   -0.142277
 N    5.791192   -2.713125   -0.286974
 N    6.701016   -0.626941    0.408638
 N    0.680287    1.019145   -0.130382
 N    2.459365    2.368484   -0.209730
 C   -4.346946   -0.788869    0.055058
 C   -3.237346   -1.660913    0.028087
 C   -1.934579   -1.191922    0.023842
 C   -1.766171    0.190450    0.026822
 C   -2.861909    1.091774    0.035993
 C   -4.161020    0.589041    0.058883
 C   -5.736240   -1.342312    0.087114
 C   -1.148894    2.335228    0.000072
 N   -6.721895   -0.859941    0.744825
 N   -5.910216   -2.508476   -0.639882
 N   -0.685227    1.038617    0.052364
 N   -2.442974    2.418647    0.002610
 H    3.370479   -2.776593    0.189289
 H    1.048255   -1.892782    0.154090
 H    4.993673    1.185055   -0.214165
 H   -0.069851    3.885965   -1.051078
 H    0.108349    3.964463    0.708421
 H    6.759265   -3.028276   -0.200090
 H    7.593456   -1.066674    0.586271
 H    6.474806    0.090559    1.083130
 H   -3.417898   -2.730884    0.034593
 H   -1.095646   -1.877162    0.015132
 H   -5.005185    1.271299    0.052374
 H   -6.411041   -0.083433    1.326807
 H   -6.881148   -2.787953   -0.698956
 H   -5.415433   -2.564766   -1.519165
