39 
1g9d_ligand_dft.xyz
 C   -3.955132    0.783057    0.038932
 C   -2.791266    1.578033   -0.016077
 C   -1.520852    1.024982   -0.008865
 C   -1.444327   -0.363602    0.040807
 C   -2.598327   -1.187982    0.095335
 C   -3.860872   -0.602801    0.106520
 C   -5.312974    1.405199    0.040958
 C   -0.971899   -2.545583    0.104566
 C    0.125269   -3.573808   -0.015931
 N   -5.374957    2.672989   -0.527833
 N   -6.282053    0.772664    0.584909
 N   -0.421033   -1.280403    0.103008
 N   -2.266753   -2.541948    0.117120
 C    3.619573    1.215339   -0.018764
 C    4.673100    0.279582   -0.097178
 C    4.432360   -1.081819   -0.168199
 C    3.109396   -1.526960   -0.147391
 C    2.061871   -0.572533   -0.073003
 C    2.293249    0.795845   -0.008043
 C    3.909130    2.681682    0.046856
 C    1.334013   -2.680358   -0.136649
 N    3.235819    3.604992   -0.531129
 N    5.035460    3.014975    0.774215
 N    2.623047   -2.829181   -0.172957
 N    0.937339   -1.362583   -0.113503
 H   -2.887064    2.659023   -0.025833
 H   -0.640371    1.655395   -0.037157
 H   -4.758529   -1.207417    0.164311
 H   -0.017542   -4.209850   -0.894170
 H    0.194240   -4.221103    0.863251
 H   -6.307022    3.034640   -0.677853
 H   -4.762516    2.837765   -1.314898
 H   -7.160462    1.286237    0.489899
 H    5.692598    0.650209   -0.123380
 H    5.242882   -1.799199   -0.237831
 H    1.489098    1.516992    0.082660
 H    2.524133    3.194828   -1.134059
 H    5.141373    4.011984    0.908900
 H    5.227234    2.460329    1.596101
