39 
1g9d_ligand_xtb.xyz
 C   -3.973536    0.781418    0.051118
 C   -2.819911    1.578953    0.052702
 C   -1.554576    1.030555    0.038606
 C   -1.462148   -0.350898    0.010932
 C   -2.623427   -1.178406    0.014361
 C   -3.883157   -0.602144    0.042866
 C   -5.316635    1.400133    0.080008
 C   -0.978085   -2.515158   -0.028449
 C    0.109514   -3.537629   -0.058512
 N   -5.427210    2.631956   -0.521162
 N   -6.247515    0.788563    0.682695
 N   -0.431873   -1.246834   -0.014801
 N   -2.270820   -2.509600   -0.012983
 C    3.645183    1.190660   -0.009988
 C    4.682235    0.245821   -0.040406
 C    4.433918   -1.108737   -0.073079
 C    3.110940   -1.533294   -0.064144
 C    2.061549   -0.569214   -0.034633
 C    2.317411    0.788963   -0.013046
 C    3.958408    2.645123   -0.001441
 C    1.313617   -2.655819   -0.060137
 N    3.328985    3.547668   -0.639170
 N    5.060300    3.001946    0.721054
 N    2.599400   -2.809347   -0.079303
 N    0.928531   -1.332113   -0.032661
 H   -2.918984    2.653130    0.098249
 H   -0.678864    1.660434    0.053764
 H   -4.775460   -1.203551    0.063232
 H    0.058492   -4.168904   -0.947738
 H    0.081118   -4.194983    0.812675
 H   -6.354445    3.007148   -0.643473
 H   -4.748801    2.906653   -1.210730
 H   -7.146035    1.265410    0.669222
 H    5.701229    0.601824   -0.062254
 H    5.232781   -1.831299   -0.104232
 H    1.523022    1.519570    0.019240
 H    2.578580    3.200364   -1.226945
 H    5.202007    3.994088    0.818937
 H    5.338975    2.422474    1.493836
