38 
1g9t_ligand_dft.xyz
 P   29.079209   69.001998   25.533563
 O   29.542461   67.612779   25.454900
 O   28.774631   69.520328   27.042065
 O   30.051173   70.182146   25.097291
 O   27.714462   69.215492   24.719083
 C   26.860812   70.351662   24.878587
 C   26.972603   71.251273   23.657062
 O   25.936840   72.234679   23.741080
 C   28.284722   72.044059   23.522648
 O   29.305967   71.365446   22.833017
 C   27.807042   73.301463   22.795681
 O   27.741152   73.047935   21.399639
 C   26.412700   73.516524   23.402803
 N   26.377890   74.425832   24.532296
 C   25.810557   75.690392   24.493342
 N   25.944312   76.357509   25.598893
 C   26.633291   75.500427   26.428341
 C   27.066221   75.688092   27.789963
 O   26.936649   76.630238   28.540780
 N   27.744196   74.515608   28.244645
 C   27.958166   73.368718   27.529692
 N   28.565242   72.338528   28.175782
 N   27.566017   73.218664   26.287704
 C   26.909192   74.299574   25.795753
 H   28.636113   68.760497   27.623615
 H   30.011134   70.390568   24.137642
 H   25.840553   69.968963   24.955242
 H   27.095586   70.921770   25.779303
 H   26.823740   70.635759   22.756420
 H   28.663224   72.299460   24.512391
 H   29.154320   71.493393   21.883557
 H   28.462356   74.162988   22.924173
 H   26.954284   72.518044   21.212105
 H   25.747420   73.961158   22.654264
 H   25.311133   76.044844   23.600621
 H   28.015372   74.561025   29.218679
 H   28.795723   71.518988   27.623517
 H   29.177534   72.534177   28.951865
