21 
1gbt_ligand_dft.xyz
 C   -3.615526    0.550508   -0.069949
 O   -4.505189   -0.247421    0.133255
 C   -2.178318    0.222107   -0.067468
 C   -1.225536    1.210881   -0.313396
 C   -1.748725   -1.086850    0.176923
 C    0.131247    0.920720   -0.319450
 C   -0.401347   -1.388408    0.186281
 C    0.558409   -0.389030   -0.057849
 N    1.900538   -0.773042   -0.063446
 C    3.069374   -0.006883    0.020557
 N    2.918353    1.232485    0.618417
 N    4.218000   -0.377970   -0.397873
 H   -3.848783    1.617753   -0.277626
 H   -1.549682    2.228892   -0.519061
 H   -2.492839   -1.854199    0.366364
 H    0.859155    1.693298   -0.532787
 H   -0.073226   -2.404302    0.392090
 H    2.067247   -1.759376   -0.192746
 H    3.817803    1.666252    0.779247
 H    2.307350    1.260711    1.424404
 H    4.158783   -1.238253   -0.939508
