50 
1gfw_ligand_xtb.xyz
 S   -0.142766   -2.210779   -1.062642
 N   -4.827396    1.155483    0.178634
 N    0.758035   -2.169048    0.330913
 O    3.151649    0.575616    0.616916
 O   -5.051193    3.432352    0.025342
 O   -2.087591    3.134098   -0.149793
 O    0.626615   -1.544347   -2.069206
 O   -0.538369   -3.572344   -1.266783
 C   -4.424909    2.416389   -0.159835
 C   -3.026162    2.313628   -0.794108
 C   -1.601342    0.126098   -0.988003
 C   -1.614351   -1.238273   -0.727787
 C   -2.717539   -1.866684   -0.181428
 C   -3.856215   -1.143805    0.148050
 C   -3.837392    0.221219   -0.083009
 C   -2.721095    0.850122   -0.652691
 C    1.266188   -0.861839    0.724856
 C    1.104351   -0.803539    2.249614
 C   -0.036408   -1.783738    2.520137
 C    0.249642   -2.876963    1.492271
 C    2.707301   -0.707224    0.239439
 C    4.393695    0.978233    0.220856
 C    5.285140    0.206838   -0.515183
 C    6.525356    0.724781   -0.853107
 C    6.890634    2.000299   -0.466481
 C    6.001151    2.769898    0.267616
 C    4.763743    2.266426    0.609977
 C   -6.096064    0.864748    0.792786
 H   -2.490837    4.002454   -0.020544
 H   -3.109818    2.588989   -1.861400
 H   -0.744226    0.581743   -1.455811
 H   -2.682585   -2.934974   -0.039407
 H   -4.720242   -1.633749    0.567049
 H    0.670214   -0.072780    0.253678
 H    2.019616   -1.150970    2.729474
 H    0.894274    0.206943    2.590151
 H   -0.999101   -1.312308    2.313362
 H   -0.037360   -2.160054    3.540709
 H   -0.616682   -3.468746    1.203488
 H    1.028592   -3.555186    1.857004
 H    3.334753   -1.487416    0.692059
 H    2.713331   -0.829747   -0.850592
 H    5.024612   -0.790264   -0.832616
 H    7.209783    0.117158   -1.426827
 H    7.859007    2.394373   -0.734736
 H    6.274397    3.768827    0.573907
 H    4.058298    2.850857    1.179398
 H   -6.678645    0.190318    0.162950
 H   -5.952676    0.410563    1.774636
 H   -6.628144    1.808706    0.903883
