27 
1ggn_ligand_xtb.xyz
 N   -1.826782   -1.718149   -0.492500
 C   -2.608541   -0.834044    0.098638
 C   -3.879301   -1.317874    0.717186
 C   -2.269388    0.525737    0.153449
 O   -3.136550    1.369102    0.776489
 C   -1.074793    0.966434   -0.419338
 C   -0.695997    2.418761   -0.328227
 C   -0.273936    0.010934   -1.050761
 C   -0.700619   -1.309950   -1.046862
 C    1.034694    0.364441   -1.692821
 O    2.007183    0.816204   -0.746533
 P    2.429281   -0.108565    0.461098
 O    3.604558    0.346655    1.194888
 O    1.116179   -0.228123    1.374505
 O    2.576834   -1.562015   -0.203178
 H   -3.938315   -2.397438    0.626152
 H   -3.917024   -1.029015    1.765664
 H   -4.732369   -0.860006    0.219299
 H   -2.791802    2.269751    0.745252
 H   -1.369196    3.031584   -0.931837
 H   -0.744135    2.760802    0.707266
 H    0.319185    2.578829   -0.672990
 H   -0.103964   -2.082180   -1.512995
 H    0.928983    1.188427   -2.405055
 H    1.428683   -0.511876   -2.213384
 H    1.375386   -0.185980    2.293685
 H    3.354482   -1.988602    0.153010
