44 
1gj8_ligand_dft.xyz
 C    8.620256    1.806441   24.670354
 C    9.296772    1.614931   23.446551
 F    9.399758    0.368237   22.948895
 C    9.879541    2.632561   22.719066
 C    9.764525    3.911469   23.260206
 C    9.097962    4.158644   24.476665
 C    8.528945    3.099317   25.182558
 C    8.003399    0.661032   25.410182
 N    8.040710    0.803418   26.790975
 N    7.413225   -0.355151   24.908195
 N   10.195397    5.142688   22.840897
 N    9.129321    5.506007   24.776724
 C    9.787441    6.057955   23.786018
 C   10.065220    7.495324   23.684108
 C    9.596675    8.344534   24.700543
 C    9.831739    9.704502   24.651877
 C   10.543516   10.267448   23.586384
 C   11.010236    9.441010   22.578617
 C   10.773239    8.056291   22.623756
 O   11.254422    7.287433   21.605567
 O   11.716330    9.825556   21.476506
 C   12.024443   11.201037   21.309386
 C   12.812395   11.370228   20.015534
 C   14.149120   10.626409   20.071826
 C   11.984378   10.955818   18.796550
 H   10.392426    2.415493   21.789439
 H    8.001482    3.279067   26.112922
 H    8.891092    1.193941   27.172426
 H    7.727914   -0.033000   27.267397
 H    7.384126   -0.286750   23.894229
 H   10.712726    5.382284   22.008208
 H    9.046535    7.895470   25.519476
 H    9.463198   10.347453   25.444125
 H   10.723584   11.335986   23.555777
 H   11.704056    7.887455   20.990291
 H   12.614678   11.547420   22.169362
 H   11.090951   11.779854   21.271675
 H   13.020233   12.446494   19.940689
 H   13.992619    9.546064   20.157460
 H   14.748651   10.947860   20.930505
 H   14.732170   10.810761   19.163940
 H   11.743485    9.888250   18.831520
 H   12.537655   11.145487   17.871302
 H   11.041452   11.511271   18.747318
