41 
1gjb_ligand_xtb.xyz
 C    4.959982   -0.417884    0.107847
 C    4.481743   -1.627298   -0.422778
 C    3.152591   -1.824503   -0.717118
 C    2.268569   -0.779147   -0.463095
 C    2.754172    0.434717    0.084752
 C    4.091840    0.633338    0.372731
 C    6.404231   -0.301462    0.389664
 N    6.926286    0.973477    0.366450
 N    7.055651   -1.350263    0.676522
 N    0.917417   -0.692411   -0.641359
 N    1.648034    1.232016    0.213030
 C    0.572119    0.495709   -0.231011
 C   -0.770936    1.053178   -0.254578
 C   -0.965469    2.411181   -0.493634
 C   -2.236844    2.949693   -0.533883
 C   -3.333388    2.129115   -0.345606
 C   -3.175282    0.768016   -0.113441
 C   -1.884988    0.222649   -0.049847
 O   -1.668265   -1.068733    0.266479
 C   -4.365181   -0.086366    0.070790
 C   -4.535813   -1.247336   -0.682897
 C   -5.660007   -2.035624   -0.510243
 C   -6.625581   -1.678429    0.415294
 C   -6.467680   -0.522888    1.162979
 C   -5.347248    0.268509    0.992150
 H    5.205361   -2.409241   -0.587633
 H    2.793381   -2.754837   -1.125748
 H    4.435006    1.556035    0.818335
 H    7.930078    1.059386    0.401702
 H    6.448826    1.684686   -0.160514
 H    8.044251   -1.195670    0.861768
 H   -0.110222    3.045815   -0.675656
 H   -2.373890    4.003440   -0.722389
 H   -4.332270    2.536761   -0.396065
 H   -2.512903   -1.526626    0.385781
 H   -3.803321   -1.513631   -1.432817
 H   -5.783167   -2.928968   -1.104561
 H   -7.501125   -2.295592    0.550348
 H   -7.221289   -0.237988    1.882426
 H   -5.219557    1.164782    1.581587
 H    1.614278    2.150765    0.620650
