41 
1gjc_ligand_xtb.xyz
 C    4.962050   -0.419868    0.107149
 C    4.478608   -1.636107   -0.402381
 C    3.146809   -1.835894   -0.682672
 C    2.266055   -0.786222   -0.435220
 C    2.756483    0.433641    0.094812
 C    4.096947    0.634937    0.367928
 C    6.409931   -0.297968    0.367480
 N    6.931287    0.975834    0.303153
 N    7.064983   -1.339667    0.671306
 N    0.914164   -0.699773   -0.606912
 N    1.651959    1.233491    0.220982
 C    0.572466    0.493765   -0.209108
 C   -0.769729    1.052590   -0.236978
 C   -0.962149    2.410661   -0.477848
 C   -2.232735    2.950271   -0.525583
 C   -3.331211    2.130749   -0.343963
 C   -3.175598    0.769570   -0.110776
 C   -1.886070    0.223203   -0.038723
 O   -1.673427   -1.068433    0.278725
 C   -4.367309   -0.084439    0.064257
 C   -4.533292   -1.244098   -0.692531
 C   -5.659405   -2.031740   -0.529795
 C   -6.631599   -1.675571    0.389156
 C   -6.477992   -0.521730    1.140401
 C   -5.355824    0.269305    0.979136
 H    5.200302   -2.420746   -0.563325
 H    2.783050   -2.770943   -1.076352
 H    4.445482    1.562607    0.798769
 H    7.935451    1.063522    0.319149
 H    6.443538    1.673357   -0.232708
 H    8.056187   -1.181435    0.838196
 H   -0.105878    3.044897   -0.655708
 H   -2.367707    4.004052   -0.715407
 H   -4.329334    2.539377   -0.400772
 H   -2.519717   -1.524498    0.393525
 H   -3.795316   -1.509901   -1.437237
 H   -5.778872   -2.923857   -1.126636
 H   -7.508940   -2.292021    0.516101
 H   -7.236405   -0.237854    1.855160
 H   -5.231985    1.164538    1.571029
 H    1.622187    2.156844    0.618274
