94 
1gnm_ligand_xtb.xyz
 C   -1.418782   -1.056587    4.132904
 C   -2.120452   -0.063356    3.224829
 C   -1.743580    1.149407    1.082737
 C   -3.211595    1.406383    0.738520
 C   -3.847969    0.300260   -0.109511
 C   -5.373058    0.424452   -0.078458
 C   -6.031619   -0.682425   -0.896800
 C   -5.540155   -0.647551   -2.340487
 C   -4.020613   -0.775024   -2.381516
 C   -3.369964    0.338461   -1.563311
 C   -1.083737    2.389064    1.731273
 C   -0.905503    3.584523    0.767253
 C   -0.477962    3.263770   -0.672678
 C   -0.159603    4.553719   -1.468964
 C   -0.135355    4.246230   -2.965429
 C    1.146995    5.228951   -1.059011
 C    0.653021    2.256484   -0.788319
 C    2.742028    1.403156    0.045417
 C    3.672109    1.586137    1.245263
 C    4.694267    0.449600    1.333259
 C    5.578501    0.430587    0.091176
 C    2.033161    0.049378    0.139240
 C    1.873126   -2.208409   -0.742789
 C    2.800163   -3.240979   -0.096477
 C    1.563081   -2.569801   -2.203466
 C    0.439466   -3.591526   -2.354835
 C   -0.946956   -3.022377   -2.049410
 C   -1.263326   -3.477098    0.364166
 N   -1.582824    0.001727    1.974830
 N    1.723639    2.435830    0.012033
 N    5.595546   -0.740037   -0.576501
 N    2.473545   -0.896292   -0.684788
 N    2.184556   -4.348193    0.313507
 N   -1.154586   -2.596314   -0.674240
 N   -0.576288   -4.560622    0.376957
 N   -2.136478   -3.097750    1.354259
 O   -3.090736    0.566814    3.586290
 O    0.144818    2.054840    2.340195
 O    0.611192    1.329688   -1.584065
 O    6.188441    1.409621   -0.286845
 O    1.138006   -0.142018    0.958570
 O    4.003441   -3.049992    0.017209
 H   -0.852906   -1.799006    3.577224
 H   -2.145398   -1.536952    4.782980
 H   -0.728417   -0.492519    4.758146
 H   -1.182959    0.885382    0.181523
 H   -3.760699    1.500781    1.675385
 H   -3.290294    2.353047    0.203442
 H   -3.586098   -0.670132    0.329087
 H   -5.720241    0.376491    0.955311
 H   -5.661955    1.396960   -0.483570
 H   -7.116779   -0.565748   -0.869734
 H   -5.789957   -1.652643   -0.455438
 H   -5.997669   -1.458404   -2.911166
 H   -5.837963    0.296409   -2.802274
 H   -3.669891   -0.728171   -3.414890
 H   -3.736454   -1.749771   -1.976484
 H   -2.281696    0.254561   -1.619228
 H   -3.645008    1.302691   -1.998325
 H   -1.729174    2.724856    2.554267
 H   -1.849023    4.131298    0.715591
 H   -0.181777    4.248966    1.243494
 H   -1.326651    2.794522   -1.182375
 H   -0.980845    5.253736   -1.272898
 H    0.082836    5.146893   -3.534467
 H   -1.095376    3.856025   -3.295585
 H    0.626523    3.503271   -3.187893
 H    1.165375    5.457128    0.003708
 H    1.253976    6.166635   -1.600033
 H    2.000846    4.601052   -1.299817
 H    3.319443    1.447134   -0.886614
 H    4.206754    2.531167    1.133759
 H    3.074531    1.618154    2.159133
 H    4.200699   -0.512602    1.466939
 H    5.342721    0.629750    2.192825
 H    0.943478   -2.149080   -0.174367
 H    2.471250   -2.950626   -2.677115
 H    1.274826   -1.647338   -2.713209
 H    0.418868   -3.926927   -3.393816
 H    0.616342   -4.460399   -1.725680
 H   -1.690000   -3.785892   -2.317239
 H   -1.113389   -2.142285   -2.673565
 H   -0.675623   -0.434568    1.863305
 H    1.671592    3.074879    0.789683
 H    6.235579   -0.825889   -1.350283
 H    5.135654   -1.583243   -0.244204
 H    3.243261   -0.705366   -1.308008
 H    1.156923   -4.460558    0.275150
 H    2.744157   -5.076248    0.728775
 H   -1.740658   -1.779703   -0.587559
 H   -0.763713   -5.142254    1.187138
 H   -2.429648   -2.133938    1.414879
 H   -2.080570   -3.580491    2.235979
 H    0.550019    1.306328    1.857429
