31 
1gsf_ligand_dft.xyz
 C    1.525349    0.146678   -0.286264
 O    2.765187    0.571751   -0.657289
 C    0.566485    1.153485   -0.093885
Cl    1.039460    2.803221   -0.317456
 C   -0.732510    0.808843    0.281668
Cl   -1.901733    2.060650    0.575349
 C   -1.088650   -0.530361    0.469347
 C   -0.108249   -1.505648    0.319156
 C    1.186212   -1.185296   -0.065928
 C   -2.468163   -0.990851    0.886380
 O   -2.571430   -1.674571    1.885187
 C   -3.647098   -0.658646    0.018290
 C   -3.436369   -0.395224   -1.454064
 C   -3.010426   -1.657318   -2.214434
 C   -4.851274   -0.681961    0.594342
 C    3.720488   -0.401815   -1.036020
 C    4.383545   -1.073074    0.168801
 O    4.335898   -0.365785    1.302627
 O    4.935679   -2.135860    0.083776
 H   -0.370832   -2.540300    0.513012
 H    1.920625   -1.975821   -0.168304
 H   -2.683924    0.387081   -1.602344
 H   -4.369500   -0.009655   -1.877882
 H   -2.056615   -2.045503   -1.839970
 H   -3.760864   -2.446863   -2.107415
 H   -2.886187   -1.442154   -3.280296
 H   -4.958254   -0.915025    1.648940
 H   -5.753772   -0.464819    0.029764
 H    4.487943    0.144802   -1.590209
 H    3.296911   -1.165884   -1.692845
 H    3.834394    0.451183    1.144640
