26 
1gt1_ligand_xtb.xyz
 C   -0.900273   -1.047748   -0.006147
 C   -2.040897   -1.887337    0.005048
 C   -1.069546    0.375090   -0.001024
 C   -3.292168   -1.349730    0.021101
 C   -2.404129    0.903495   -0.007545
 C   -3.474406    0.041011    0.009584
 C    3.753554    0.923022    0.014217
 C    3.918947   -0.478214   -0.007353
 C    2.506799    1.469595    0.022380
 C    2.834487   -1.300498   -0.019149
 C    1.351855    0.647900    0.008824
 C    1.519155   -0.770217   -0.010773
 C    0.387534   -1.578707   -0.014424
 C    0.064436    1.181161    0.013931
 N   -2.614525    2.266994    0.038046
 H   -1.895198   -2.957271    0.003971
 H   -4.163467   -1.988449    0.031992
 H   -4.477809    0.443956    0.011896
 H    4.629292    1.555741    0.024447
 H    4.918324   -0.888855   -0.013473
 H    2.375924    2.542910    0.038994
 H    2.954893   -2.374618   -0.034327
 H    0.508428   -2.653511   -0.019845
 H   -0.028523    2.257963    0.045346
 H   -1.898722    2.856045   -0.352912
 H   -3.553551    2.564198   -0.174428
