26 
1gt5_ligand_dft.xyz
 C    2.675777   -0.138097    1.568294
 C    3.547582   -0.840939    0.736493
 C    3.271354   -0.947114   -0.621927
 C    2.126897   -0.349881   -1.148063
 C    1.248965    0.347128   -0.321539
 C    1.532886    0.450421    1.042815
 C   -0.006519    0.996760   -0.880486
 C   -1.466187   -1.049259   -0.745890
 C   -1.260445    0.287455   -0.397541
 C   -2.204703    0.937647    0.392609
 C   -3.340286    0.257577    0.829557
 C   -3.541672   -1.072881    0.479952
 C   -2.598871   -1.726154   -0.312011
 O   -0.090484    2.358960   -0.503883
 H    2.887837   -0.054107    2.630195
 H    4.439758   -1.302761    1.148929
 H    3.947952   -1.489331   -1.275967
 H    1.916545   -0.426218   -2.212719
 H    0.845854    0.994024    1.685292
 H    0.026499    0.913796   -1.979413
 H   -0.726607   -1.565860   -1.353572
 H   -2.048054    1.976893    0.657421
 H   -4.070800    0.774547    1.445373
 H   -4.427625   -1.600492    0.820898
 H   -2.746061   -2.765788   -0.589931
 H    0.769908    2.757647   -0.679021
