54 
1gvk_ligand_xtb.xyz
 C   -4.654455   -0.166642   -0.451620
 O   -4.308114   -0.897735   -1.355934
 C   -6.021336   -0.218237    0.193026
 N   -3.848351    0.798514    0.056580
 C   -2.460424    0.915941   -0.335940
 C   -1.589614    0.140747    0.670259
 O   -1.447137    0.569898    1.806454
 C   -2.000416    2.375583   -0.309221
 C   -0.505061    2.425381   -0.577457
 O    0.097612    1.485573   -1.067766
 N    0.104392    3.574033   -0.251464
 N   -1.033804   -1.003265    0.257894
 C   -0.246555   -1.809427    1.170249
 C    1.212511   -1.347098    1.310071
 O    1.972065   -1.901611    2.079103
 C   -0.304212   -3.205297    0.550094
 C   -0.288581   -2.892623   -0.944463
 C   -1.129799   -1.618382   -1.058835
 N    1.578034   -0.337863    0.503750
 C    2.888165    0.282168    0.567570
 C    2.622763    1.591867    1.277659
 O    2.653600    2.685360    0.779498
 C    3.504643    0.466338   -0.824826
 C    3.390010   -0.805273   -1.676316
 C    4.950821    0.936816   -0.684417
 C    3.997876   -2.054187   -1.046246
 H   -5.932038   -0.617317    1.201839
 H   -6.457699    0.776013    0.246450
 H   -6.666726   -0.870426   -0.387972
 H   -4.102988    1.248558    0.922889
 H   -2.373857    0.503748   -1.341249
 H   -2.195793    2.795302    0.679729
 H   -2.532858    2.962275   -1.059702
 H   -0.379066    4.298643    0.249278
 H    1.115706    3.604304   -0.266101
 H   -0.681090   -1.767689    2.174238
 H    0.535309   -3.818677    0.869782
 H   -1.234834   -3.700484    0.828768
 H    0.734801   -2.702798   -1.269017
 H   -0.698260   -3.702125   -1.544323
 H   -2.175643   -1.845952   -1.287924
 H   -0.737211   -0.943754   -1.824126
 H    0.909079    0.128661   -0.100439
 H    3.512320   -0.355785    1.204491
 H    2.286225    1.449585    2.320906
 H    2.931754    1.250682   -1.331933
 H    2.334021   -0.987101   -1.885606
 H    3.880673   -0.613899   -2.633427
 H    5.401919    1.061220   -1.665812
 H    5.540924    0.218874   -0.120248
 H    4.989580    1.892283   -0.167616
 H    5.059440   -1.918994   -0.857480
 H    3.508628   -2.303802   -0.108747
 H    3.883547   -2.899210   -1.722317
