41 
1gx0_ligand_dft.xyz
 N   -1.144367   -1.606338   -0.806291
 C   -0.780106   -2.592381    0.040686
 N    0.442580   -3.224520   -0.268413
 C    1.446594   -2.569194   -0.943602
 C    0.987127   -1.606000   -1.999063
 C   -0.529281   -1.563647   -2.131038
 O   -1.397396   -2.955319    1.034630
 O    2.626805   -2.780122   -0.687261
 C   -2.320022   -0.791480   -0.477912
 C   -2.300909   -0.240076    0.968648
 O   -3.033639   -0.997467    1.890370
 C   -3.006630    1.108990    0.800829
 C   -2.618914    1.528339   -0.615274
 O   -2.300633    0.331060   -1.323136
 O   -4.401067    0.930235    0.842041
 C   -1.471845    2.513818   -0.717563
 O   -0.362120    2.087714    0.099171
 P    1.101576    2.190933   -0.500576
 O    1.362242    1.537516   -1.794150
 O    1.385447    3.766054   -0.477466
 O    1.992517    1.677699    0.738783
 P    2.314865    0.129616    1.148617
 O    3.438209   -0.291766    0.132999
 O    1.102158   -0.701980    1.237344
 O    3.118197    0.358749    2.506262
 H    0.758607   -3.818020    0.490339
 H    1.380783   -0.612852   -1.763980
 H    1.451397   -1.909283   -2.943065
 H   -0.833596   -0.636349   -2.609591
 H   -0.892894   -2.406041   -2.734496
 H   -3.238404   -1.371113   -0.646372
 H   -1.257915   -0.098857    1.274518
 H   -2.636971   -1.887436    1.864610
 H   -2.675032    1.836832    1.553954
 H   -3.488058    1.991452   -1.096405
 H   -4.543293    0.184351    1.447871
 H   -1.163936    2.592126   -1.764559
 H   -1.785048    3.496999   -0.355065
 H    2.075751    4.000034   -1.113699
 H    3.314217   -1.211264   -0.214634
 H    2.518439    0.428003    3.261920
