47 
1gz3_ligand_dft.xyz
 P   46.053123   42.720946   57.102145
 O   45.930153   44.143109   57.481797
 O   47.463754   42.283023   56.575053
 O   45.737697   41.628772   58.222131
 P   44.223893   43.358468   54.910403
 O   43.117993   42.716841   54.209625
 O   43.895297   44.625667   55.782898
 O   44.985668   42.324294   55.940592
 P   45.785702   44.008226   52.422010
 O   45.548418   45.370103   51.958407
 O   44.960798   42.883605   51.668985
 O   45.509073   43.772629   54.022245
 O   47.316666   43.524699   52.360204
 C   47.939473   42.620476   53.265388
 C   47.198671   41.293598   53.409514
 O   46.775319   40.814749   52.121580
 C   48.063340   40.176488   54.029379
 O   47.772309   39.925909   55.387459
 C   47.734781   38.953487   53.152869
 O   46.571507   38.381085   53.716231
 C   47.404571   39.604363   51.805585
 N   48.614287   39.875347   51.035621
 C   48.932569   41.040955   50.357406
 N   50.021138   40.948302   49.645947
 C   50.437704   39.646475   49.836964
 C   51.533342   38.912977   49.339368
 N   52.449925   39.461853   48.522387
 N   51.666632   37.627316   49.699284
 C   50.754026   37.098698   50.521091
 N   49.682516   37.676244   51.063457
 C   49.579467   38.956845   50.682297
 H   47.550502   41.339606   56.271003
 H   44.916292   41.813902   58.698877
 H   44.611039   44.827411   56.433355
 H   45.379440   42.002260   51.686334
 H   48.934503   42.452704   52.844759
 H   48.042840   43.078994   54.253425
 H   46.295620   41.415727   54.010372
 H   49.127901   40.416244   53.966045
 H   47.030835   39.292347   55.383737
 H   48.554032   38.235765   53.078846
 H   46.541822   37.442201   53.500328
 H   46.712603   39.000765   51.213538
 H   48.314174   41.923824   50.448837
 H   53.182397   38.881051   48.147673
 H   52.334732   40.406403   48.192786
 H   50.911452   36.054245   50.778764
