47 
1gz3_ligand_xtb.xyz
 P    4.452623   -0.177273    0.125600
 O    4.959193   -0.828915    1.441671
 O    4.051570   -1.032326   -0.999178
 O    5.648894    0.778626   -0.226161
 P    2.193744    1.196338   -0.524325
 O    2.770641    1.501216   -1.818481
 O    1.352926    2.321650    0.129573
 O    3.283106    0.837161    0.594466
 P    1.560671   -1.596571   -0.015071
 O    1.906461   -2.381773   -1.325333
 O    2.454957   -1.668761    1.136751
 O    1.216037   -0.087571   -0.493394
 O    0.131346   -2.149021    0.364880
 C   -0.879204   -2.311749   -0.616434
 C   -2.145145   -2.832965    0.087258
 O   -2.441931   -2.096057    1.261697
 C   -3.394534   -2.667924   -0.796256
 O   -4.392134   -3.554216   -0.392665
 C   -3.770683   -1.201987   -0.504144
 O   -5.138051   -0.978831   -0.632090
 C   -3.244637   -1.005703    0.947914
 N   -2.497009    0.232538    1.024902
 C   -1.255988    0.441294    1.538246
 N   -0.809780    1.646292    1.323304
 C   -1.803414    2.289913    0.623640
 C   -1.923204    3.558299    0.021140
 N   -0.955337    4.485499    0.050261
 N   -3.077052    3.844790   -0.592715
 C   -4.032747    2.938023   -0.654185
 N   -4.017924    1.696712   -0.193981
 C   -2.878063    1.409742    0.443243
 H    4.258098   -1.392548    1.791858
 H    5.577714    1.084433   -1.132139
 H    0.630043    2.039178    0.781009
 H    2.818729   -2.139320   -1.567382
 H   -1.064536   -1.347941   -1.100446
 H   -0.551642   -3.028123   -1.373013
 H   -2.001966   -3.865707    0.409382
 H   -3.159643   -2.813291   -1.860283
 H   -5.242193   -3.100677   -0.489471
 H   -3.206058   -0.548268   -1.182449
 H   -5.277159   -0.019357   -0.555912
 H   -4.083104   -0.959804    1.660152
 H   -0.717006   -0.330577    2.050418
 H   -1.090005    5.309194   -0.512000
 H   -0.020008    4.203985    0.295865
 H   -4.935524    3.239489   -1.167472
