47 
1gz4_ligand_dft.xyz
 P   46.053123   42.720946   57.102145
 O   45.930154   44.143109   57.481797
 O   47.463754   42.283023   56.575052
 O   45.737697   41.628772   58.222131
 P   44.223893   43.358469   54.910403
 O   43.117992   42.716842   54.209625
 O   43.895298   44.625668   55.782899
 O   44.985667   42.324295   55.940593
 P   45.785702   44.008226   52.422010
 O   45.548418   45.370102   51.958407
 O   44.960798   42.883605   51.668985
 O   45.509074   43.772629   54.022246
 O   47.316666   43.524699   52.360204
 C   47.939473   42.620476   53.265388
 C   47.198672   41.293598   53.409514
 O   46.775319   40.814749   52.121580
 C   48.063340   40.176488   54.029380
 O   47.772310   39.925909   55.387459
 C   47.734781   38.953487   53.152869
 O   46.571508   38.381085   53.716231
 C   47.404571   39.604363   51.805585
 N   48.614288   39.875347   51.035622
 C   48.932570   41.040955   50.357406
 N   50.021138   40.948301   49.645947
 C   50.437704   39.646474   49.836964
 C   51.533342   38.912977   49.339368
 N   52.449924   39.461852   48.522387
 N   51.666632   37.627315   49.699283
 C   50.754026   37.098698   50.521091
 N   49.682516   37.676244   51.063457
 C   49.579467   38.956845   50.682297
 H   47.550502   41.339607   56.271003
 H   44.916292   41.813902   58.698877
 H   44.611039   44.827412   56.433355
 H   45.379441   42.002260   51.686334
 H   48.934503   42.452705   52.844759
 H   48.042840   43.078994   54.253426
 H   46.295620   41.415727   54.010372
 H   49.127901   40.416244   53.966045
 H   47.030836   39.292346   55.383737
 H   48.554032   38.235765   53.078846
 H   46.541823   37.442201   53.500329
 H   46.712603   39.000765   51.213538
 H   48.314174   41.923824   50.448837
 H   53.182396   38.881051   48.147672
 H   52.334732   40.406403   48.192785
 H   50.911452   36.054244   50.778764
