16 
1gzg_ligand_dft.xyz
 C   -1.065171   -0.513673    0.085411
 C   -2.094958    0.398567   -0.546882
 C   -0.016790   -1.074923   -0.868924
 C    1.363725   -1.032825   -0.227942
 C    1.826498    0.404996   -0.048533
 O   -1.061147   -0.779245    1.263514
 O    3.039839    0.566256    0.512195
 O    1.177548    1.362926   -0.379978
 F   -3.084275    0.723953    0.335315
 H   -2.530557   -0.088421   -1.430656
 H   -1.568262    1.304294   -0.875629
 H   -0.017865   -0.526088   -1.815695
 H   -0.294253   -2.113832   -1.085013
 H    2.098067   -1.575043   -0.835998
 H    1.322155   -1.517261    0.755004
 H    3.419444   -0.291569    0.745515
