26 
1gzv_ligand_xtb.xyz
 O   -4.179563   -0.976327    0.688286
 C   -3.132360   -1.051440   -0.141355
 O   -2.613320   -2.085179   -0.454301
 C   -2.657607    0.323280   -0.571258
 O   -3.675383    1.290282   -0.572248
 C   -1.525227    0.795736    0.384770
 O   -1.159208    2.105664    0.045637
 C   -0.258781   -0.079977    0.371983
 O    0.587612    0.315797    1.421112
 C    0.493677    0.013508   -0.962107
 O    1.696443   -0.711778   -0.894838
 P    2.911983   -0.073346   -0.044174
 O    2.844015    1.387821    0.080767
 O    3.060050   -0.939169    1.270759
 O    4.171236   -0.622052   -0.829560
 H   -4.456007   -1.862888    0.970399
 H   -2.269116    0.273873   -1.592236
 H   -4.245499    1.143441    0.194296
 H   -1.927514    0.781519    1.415080
 H   -1.958472    2.568099   -0.246804
 H   -0.516788   -1.124347    0.573466
 H    0.841471    1.238836    1.257281
 H    0.705974    1.068246   -1.167015
 H   -0.088161   -0.430858   -1.770817
 H    2.322516   -0.760353    1.859315
 H    4.538597    0.077517   -1.367462
