22 
1h0r_ligand_dft.xyz
 C    0.032729    0.973313   -0.376809
 C   -1.416994    0.837101    0.055699
 O   -2.168006    1.888862   -0.503782
 C   -1.959398   -0.518380   -0.388567
 O   -3.278322   -0.713512    0.107345
 C   -1.025723   -1.632313    0.003116
 C    0.251255   -1.441227    0.323471
 C    2.255265   -0.133949   -0.350539
 O    2.585239   -0.924380   -1.196283
 O    1.073860    0.257652    1.722382
 O    3.054625    0.871194    0.067660
 C    0.896929   -0.075075    0.353986
 H    0.401937    1.978726   -0.150401
 H    0.101472    0.829871   -1.462494
 H   -1.454086    0.873693    1.157956
 H   -3.096337    1.649729   -0.372732
 H   -2.077410   -0.495320   -1.479266
 H   -3.208264   -0.839409    1.063339
 H   -1.451836   -2.633274    0.007584
 H    0.885255   -2.276473    0.605271
 H    1.671403    1.017383    1.760527
 H    3.884330    0.799725   -0.430507
