45 
1h1r_ligand_xtb.xyz
 C    2.211230   -1.267325   -0.059636
 N    0.928926   -0.896245    0.073987
 C   -0.006622   -1.822255    0.172370
 O   -1.289967   -1.474933    0.303589
 C   -1.559824   -0.075742    0.316719
 C   -3.066501    0.146111    0.402481
 C   -3.769251   -0.384545   -0.847752
 C   -5.273170   -0.144304   -0.763593
 C   -5.564029    1.343323   -0.592633
 C   -4.867850    1.879711    0.654234
 C   -3.363614    1.636091    0.576572
 C    0.369633   -3.163584    0.135339
 N   -0.253842   -4.383996    0.202374
 C    0.733173   -5.310160    0.097842
 N    1.924287   -4.806634   -0.029922
 C    1.750051   -3.454460   -0.011682
 N    2.677637   -2.508561   -0.110186
 N    3.180268   -0.312685   -0.159873
 C    3.117198    1.066387   -0.139734
 C    1.921416    1.767674    0.001415
 C    1.938489    3.149237    0.012849
 C    3.114619    3.868483   -0.111034
 C    4.300787    3.165406   -0.250451
 C    4.309786    1.785327   -0.265807
Cl    0.435594    3.988971    0.188853
 H   -1.155407    0.374000   -0.597206
 H   -1.051843    0.375242    1.177199
 H   -3.441345   -0.399480    1.275173
 H   -3.563439   -1.450964   -0.956063
 H   -3.369367    0.126835   -1.726732
 H   -5.682365   -0.693514    0.087660
 H   -5.758248   -0.518234   -1.667543
 H   -6.640903    1.506625   -0.517121
 H   -5.203625    1.885647   -1.469524
 H   -5.271052    1.378816    1.537404
 H   -5.061497    2.948907    0.758502
 H   -2.948856    2.185698   -0.271342
 H   -2.879361    2.008464    1.481614
 H    0.533909   -6.364200    0.120188
 H    4.100464   -0.721383   -0.259672
 H    0.999504    1.225387    0.100884
 H    3.103582    4.946112   -0.098405
 H    5.229556    3.706581   -0.348121
 H    5.242709    1.252093   -0.375265
 H   -1.241833   -4.541065    0.309492
