45 
1h1r_ligand_dft.xyz
 C    8.261834   43.808026   49.789453
 C   10.802584   46.501927   52.000239
 C    5.244303   45.186301   52.080122
 C    4.353276   45.839736   53.121691
 C    4.791590   45.497166   54.551429
 C    3.859357   46.122965   55.592182
 C    2.404008   45.710060   55.356074
 C    1.958791   46.048688   53.930739
 C    2.893337   45.425024   52.890070
 C    5.798341   40.546029   47.028308
 C    4.540468   40.779447   47.571146
 C    4.438165   41.738662   48.571872
 C    5.542691   42.449675   49.027336
 N    7.248503   44.273529   50.553301
 C    7.526827   45.189645   51.460904
 O    6.575571   45.691839   52.250097
 C    8.835627   45.643320   51.599502
 N    9.499226   46.551308   52.396975
 N   11.040612   45.654291   51.030632
 C    9.810755   45.096049   50.757261
 N    9.542129   44.165108   49.833591
 N    7.981826   42.848588   48.840336
 C    6.803822   42.200985   48.470081
 C    6.920124   41.234770   47.458355
Cl    5.980158   39.348085   45.763894
 H   11.553419   47.124858   52.468614
 H    4.905390   45.412887   51.062762
 H    5.256968   44.096095   52.197889
 H    4.425154   46.929452   52.988363
 H    5.823667   45.825321   54.713333
 H    4.784651   44.402938   54.668741
 H    3.937903   47.217993   55.535383
 H    4.177851   45.836478   56.600887
 H    1.746509   46.198326   56.084310
 H    2.306099   44.627083   55.516896
 H    0.931058   45.708625   53.760902
 H    1.955934   47.140207   53.802440
 H    2.819239   44.328819   52.949045
 H    2.576501   45.709485   51.878915
 H    3.675727   40.228743   47.220147
 H    3.466760   41.941935   49.013108
 H    5.440878   43.191355   49.804737
 H    9.100234   47.129451   53.118102
 H    8.816425   42.577327   48.340238
 H    7.885708   41.022397   47.009598
