45 
1h62_ligand_xtb.xyz
 C    2.578074   -1.560007    0.074135
 C    1.755851   -0.435584    0.627994
 C   -0.421059   -1.757080    0.197658
 C   -1.808435   -1.771247   -0.453582
 C   -2.613495   -0.562003    0.006293
 C   -1.827044    0.706589   -0.346409
 C   -2.855148    1.828162   -0.184258
 C   -4.127827    1.201116   -0.767974
 C   -3.936091   -0.305969   -0.700771
 C   -3.004054   -0.692845    1.487596
 C    1.698631   -0.650872    2.153617
 C    3.713656   -1.409800   -0.601292
 C    4.292214   -0.090716   -0.882909
 C    3.520880    1.033568   -0.356534
 C    2.381590    0.901507    0.329840
 C    1.604329    2.098010    0.777562
 C    0.238675    2.079334    0.088783
 C   -0.498809    0.779704    0.400342
 C    0.338172   -0.441365   -0.034070
 O    5.331769    0.053628   -1.503069
 O   -4.701295   -1.131519   -1.117931
 H    2.213731   -2.555361    0.288677
 H   -0.528029   -1.937991    1.266783
 H    0.150268   -2.584091   -0.223957
 H   -2.324597   -2.697463   -0.197258
 H   -1.704483   -1.740569   -1.540620
 H   -1.591989    0.644473   -1.417531
 H   -2.568833    2.730945   -0.721273
 H   -2.986264    2.087710    0.866473
 H   -4.265082    1.475092   -1.815416
 H   -5.038224    1.487351   -0.241161
 H   -2.132237   -0.776326    2.128679
 H   -3.607248   -1.590095    1.611752
 H   -3.594266    0.157006    1.819175
 H    2.683827   -0.465227    2.576942
 H    1.420995   -1.676050    2.383949
 H    0.987900    0.017365    2.629249
 H    4.271822   -2.261656   -0.963075
 H    3.929552    2.014704   -0.558155
 H    1.464206    2.079376    1.860351
 H    2.141114    3.012562    0.522819
 H   -0.352697    2.932648    0.424054
 H    0.381788    2.168833   -0.990676
 H   -0.689471    0.740938    1.475553
 H    0.513771   -0.344036   -1.113458
