67 
1h6h_ligand_dft.xyz
 C    1.607629   -0.036129    1.337397
 C    2.201390   -0.648989    0.056176
 C    3.634996   -0.143168   -0.118078
 C    4.485771   -0.515541    1.091917
 C    3.879978    0.087420    2.350224
 C    2.452010   -0.390666    2.554384
 O    0.298979   -0.569949    1.627331
 O    2.217294   -2.051915    0.136655
 O    4.171143   -0.718853   -1.299961
 O    5.797635    0.003120    0.914444
 O    4.714568   -0.288998    3.424306
 O    1.982174    0.234106    3.731336
 P   -0.892150   -0.389851    0.578667
 O   -0.725600   -1.726322   -0.282560
 O   -0.927462    0.893269   -0.145362
 O   -2.183058   -0.685408    1.483550
 P    5.181828    0.157672   -2.215376
 O    6.625810   -0.214403   -1.671915
 O    4.795028    1.577547   -2.313688
 O    5.171932   -0.652820   -3.593762
 C   -3.204555    0.312531    1.573109
 C   -4.097719    0.313315    0.342640
 C   -5.201918    1.362710    0.446890
 C   -4.220914    3.269956   -0.534166
 C   -3.710715    4.663668   -0.261838
 C   -2.489863    5.014775   -1.116621
 C   -1.242838    4.229044   -0.715306
 C   -4.275604   -1.896991   -0.545250
 C   -5.126261   -3.140654   -0.525800
 C   -4.468735   -4.327939   -1.223584
 C   -5.355805   -5.570389   -1.187194
 O   -4.781823   -0.947842    0.248375
 O   -4.647219    2.664578    0.604101
 O   -4.287289    2.743544   -1.617322
 O   -3.267946   -1.759362   -1.210010
 H    1.520935    1.051655    1.236693
 H    1.626137   -0.306969   -0.814542
 H    3.613731    0.949393   -0.224141
 H    4.521108   -1.607999    1.184550
 H    3.871454    1.184656    2.243002
 H    2.454052   -1.483249    2.663402
 H    1.322298   -2.361070   -0.063927
 H    6.245570   -0.083055    1.768359
 H    4.290800    0.031550    4.231968
 H    1.094632   -0.105689    3.901722
 H   -1.514271   -1.860304   -0.852060
 H    6.601978   -0.194722   -0.689575
 H    4.645018   -0.169624   -4.243671
 H   -3.785826    0.053570    2.461512
 H   -2.768732    1.306458    1.699241
 H   -3.507274    0.481405   -0.559674
 H   -5.828217    1.318478   -0.446952
 H   -5.813737    1.191637    1.335924
 H   -3.495117    4.767811    0.805690
 H   -4.541071    5.344661   -0.490090
 H   -2.302775    6.090071   -1.018613
 H   -2.732040    4.824986   -2.167411
 H   -0.386458    4.518132   -1.332489
 H   -1.383295    3.149793   -0.828753
 H   -0.979593    4.423048    0.331627
 H   -5.361636   -3.370125    0.520053
 H   -6.084788   -2.889863   -0.999309
 H   -4.241279   -4.056086   -2.259410
 H   -3.507381   -4.540169   -0.742377
 H   -4.869372   -6.412502   -1.688125
 H   -6.313055   -5.389729   -1.689228
 H   -5.571386   -5.873531   -0.156322
