67 
1h6h_ligand_xtb.xyz
 C    1.448945   -0.339020    1.349913
 C    1.991672   -0.872894    0.015487
 C    3.412295   -0.337554   -0.189474
 C    4.319406   -0.832350    0.937337
 C    3.783359   -0.319920    2.275850
 C    2.348631   -0.802411    2.497767
 O    0.154605   -0.858373    1.633995
 O    2.022270   -2.272738    0.020193
 O    3.892917   -0.754863   -1.436980
 O    5.626154   -0.351731    0.718185
 O    4.641008   -0.782854    3.290864
 O    1.913630   -0.300222    3.739459
 P   -0.997037   -0.654819    0.544189
 O   -0.892193   -1.991512   -0.295056
 O   -0.937578    0.620011   -0.170474
 O   -2.295466   -0.869570    1.459733
 P    4.982543    0.217346   -2.134333
 O    6.391485   -0.464336   -1.938807
 O    4.825433    1.620013   -1.740992
 O    4.762227   -0.092955   -3.669665
 C   -3.117100    0.259262    1.685439
 C   -3.957857    0.593276    0.451444
 C   -4.778387    1.868008    0.670582
 C   -3.480731    3.571207   -0.308385
 C   -2.648654    4.786539    0.001664
 C   -1.398483    4.856933   -0.880092
 C   -0.332647    3.864904   -0.432635
 C   -4.469359   -1.451938   -0.625240
 C   -5.554659   -2.478033   -0.813584
 C   -5.030428   -3.755346   -1.465945
 C   -6.149692   -4.762548   -1.693195
 O   -4.873024   -0.468973    0.179829
 O   -3.933859    2.991511    0.829741
 O   -3.770191    3.170989   -1.400791
 O   -3.378497   -1.499585   -1.142343
 H    1.393389    0.754480    1.310650
 H    1.354760   -0.498328   -0.797622
 H    3.404523    0.760524   -0.172018
 H    4.322013   -1.931237    0.935445
 H    3.784702    0.782502    2.263351
 H    2.338319   -1.903193    2.510387
 H    1.111776   -2.592969   -0.045162
 H    6.077304   -0.393545    1.573210
 H    4.188657   -0.641037    4.131811
 H    0.967601   -0.475590    3.805230
 H   -1.630680   -2.030446   -0.918798
 H    6.571403   -0.506584   -0.994046
 H    4.185667    0.570411   -4.046611
 H   -3.768295   -0.004510    2.523604
 H   -2.515224    1.136378    1.935234
 H   -3.285066    0.722150   -0.404340
 H   -5.434558    2.017294   -0.194154
 H   -5.370318    1.790615    1.584499
 H   -2.388900    4.779721    1.059875
 H   -3.283431    5.654886   -0.195145
 H   -0.994645    5.870567   -0.839044
 H   -1.689869    4.647023   -1.910050
 H    0.544987    3.944254   -1.069038
 H   -0.701350    2.844404   -0.486965
 H   -0.029175    4.070612    0.592360
 H   -6.005250   -2.685682    0.158346
 H   -6.328313   -2.025031   -1.439347
 H   -4.561355   -3.500750   -2.417345
 H   -4.262357   -4.194271   -0.826735
 H   -5.757610   -5.664963   -2.154322
 H   -6.912601   -4.347356   -2.347642
 H   -6.617910   -5.035433   -0.750179
