46 
1h79_ligand_dft.xyz
 P   -0.235753   -2.502223   -0.583168
 O    0.374126   -2.307159   -1.909196
 O   -0.110727   -3.953503    0.058308
 O    0.382743   -1.526986    0.578678
 P    1.965386   -1.614735    0.912820
 O    2.483328   -2.972771    0.644210
 O    2.047187   -1.157041    2.434330
 O    2.595842   -0.381800    0.166030
 P    2.196380    0.326711   -1.309797
 O    0.794913    0.773214   -1.311767
 O    3.342122    1.392010   -1.405994
 O    2.614556   -0.767103   -2.361320
 O   -1.767151   -2.162201   -0.507120
 C   -2.530536   -2.165331    0.713896
 C   -3.357804   -0.894240    0.814197
 O   -2.569722    0.180266    1.319102
 C   -3.946463   -0.408895   -0.529413
 O   -5.220464    0.180061   -0.351051
 C   -2.983717    0.701870   -0.918104
 C   -2.639513    1.290129    0.447961
 N   -1.344646    1.988414    0.501300
 C   -1.158910    2.998206   -0.429192
 O   -2.023903    3.377514   -1.193432
 N    0.109963    3.548901   -0.412351
 C    1.180152    3.126211    0.347555
 O    2.327716    3.481632    0.056502
 C    0.834887    2.264788    1.460538
 C    1.885233    1.987979    2.493583
 C   -0.392128    1.698359    1.447701
 H    0.837681   -4.147249    0.211138
 H    2.312039   -1.901790    2.992235
 H    3.113863    2.219618   -0.907169
 H    1.865542   -1.399395   -2.470040
 H   -1.871475   -2.251105    1.581292
 H   -3.184857   -3.040058    0.670888
 H   -4.166032   -1.088885    1.531731
 H   -3.976718   -1.210802   -1.276172
 H   -5.860551   -0.517660   -0.168116
 H   -3.445629    1.424067   -1.586593
 H   -2.076284    0.298540   -1.375690
 H   -3.415159    1.986828    0.785832
 H    0.316613    4.160199   -1.192329
 H    2.200668    2.917438    2.979295
 H    1.511417    1.301670    3.256278
 H    2.774393    1.539723    2.040514
 H   -0.694652    0.957856    2.175882
