95 
1hbv_ligand_xtb.xyz
 N    1.636999    1.879508   -1.702190
 C   -1.283145    4.537599   -0.527562
 C   -0.904173    4.566746   -1.974143
 C   -1.402260    3.428831    0.205535
 O   -1.232214    2.194765   -0.330600
 N   -1.656073    3.452662    1.596274
 C   -3.013169    3.095356    2.039338
 C   -4.058978    4.099280    1.542273
 C   -3.306933    1.653499    1.678374
 C   -4.099255    1.317560    0.669800
 C   -4.436279   -0.089241    0.265332
 C   -5.551909   -0.097313   -0.793289
 C   -5.981791   -1.496977   -1.124258
 C   -5.560631   -2.123648   -2.289994
 C   -5.935831   -3.426299   -2.568323
 C   -6.738858   -4.122975   -1.681993
 C   -7.167206   -3.507556   -0.517865
 C   -6.791042   -2.205380   -0.243411
 C   -3.190746   -0.804992   -0.279365
 C   -2.578809    0.684072    2.575216
 C   -2.297207   -0.694327    1.959434
 N   -2.023438   -0.550424    0.539847
 C   -0.820167   -1.224923    0.099624
 C   -0.512528   -0.970798   -1.380327
 C    0.361184   -0.668878    0.897610
 O    0.382348    0.443125    1.380167
 N    1.372002   -1.558919    1.049786
 C    2.664888   -1.174664    1.577063
 C    3.180858   -2.300533    2.500967
 C    4.140539   -1.813241    3.587182
 C    3.808999   -3.445064    1.708247
 C    3.566682   -0.792222    0.390315
 O    3.135939   -0.794474   -0.743774
 N    4.831924   -0.458319    0.713881
 C    5.768316    0.101931   -0.251166
 C    6.578878   -0.955600   -1.022828
 C    7.556218   -1.645581   -0.070351
 C    5.712377   -1.990646   -1.732466
 C    4.997803    1.117138   -1.113137
 O    4.405998    2.029257   -0.594926
 O    5.119524    0.927785   -2.411685
 C    4.415457    1.842533   -3.255987
 H    1.854808    0.926068   -1.428381
 H    2.207235    2.472118   -1.106472
 H    0.673969    2.048381   -1.427045
 H   -1.450118    5.493519   -0.051944
 H   -0.848494    3.557690   -2.369874
 H   -1.638641    5.131912   -2.549157
 H    0.066181    5.046502   -2.109046
 H   -1.418976    4.366222    1.966977
 H   -2.981359    3.152669    3.136878
 H   -4.002089    4.203449    0.461460
 H   -5.058986    3.779251    1.822686
 H   -3.869055    5.075382    1.986243
 H   -4.542166    2.087719    0.057506
 H   -4.810336   -0.630013    1.140961
 H   -5.196417    0.409164   -1.692513
 H   -6.404926    0.460333   -0.398501
 H   -4.934454   -1.585147   -2.987208
 H   -5.600578   -3.899274   -3.480247
 H   -7.032708   -5.139665   -1.898420
 H   -7.798268   -4.043868    0.176361
 H   -7.132628   -1.727778    0.664575
 H   -3.405418   -1.888232   -0.360362
 H   -2.987353   -0.416509   -1.278177
 H   -3.134343    0.564932    3.511372
 H   -1.617409    1.144886    2.814527
 H   -1.425709   -1.121207    2.464594
 H   -3.129889   -1.388564    2.134564
 H   -1.089970    1.546926    0.385187
 H   -0.877627   -2.322043    0.272722
 H    0.524389   -1.222069   -1.594626
 H   -0.665358    0.080725   -1.604713
 H   -1.150798   -1.573784   -2.020991
 H    1.369100   -2.373121    0.454139
 H    2.486622   -0.259685    2.156850
 H    2.286846   -2.684181    3.006741
 H    4.227628   -2.573319    4.360878
 H    5.140371   -1.637420    3.196039
 H    3.773793   -0.900907    4.051596
 H    4.726332   -3.118928    1.223898
 H    4.049866   -4.271763    2.372858
 H    3.130297   -3.812835    0.942275
 H    5.054032   -0.344791    1.688208
 H    6.478159    0.710408    0.324021
 H    7.151890   -0.409343   -1.778526
 H    8.158903   -2.368913   -0.613589
 H    8.225523   -0.924981    0.395274
 H    7.017842   -2.174442    0.713702
 H    6.336668   -2.622438   -2.360369
 H    5.198942   -2.624550   -1.014092
 H    4.967659   -1.504487   -2.353065
 H    4.589048    1.499185   -4.272159
 H    4.809608    2.851022   -3.118155
 H    3.348023    1.838456   -3.011173
