75 
1hdt_ligand_dft.xyz
 C   -1.465999    2.232755    0.930556
 O   -1.956300    2.040951    2.040630
 C   -0.428256    3.297248    0.655086
 C    0.492789    3.548210    1.850594
 C    1.813147    4.195324    1.434368
 N    1.653636    5.425562    0.665078
 C    1.677315    5.486402   -0.698120
 N    1.300949    6.734419   -1.186266
 N    1.994582    4.481097   -1.446997
 N   -1.849286    1.517400   -0.168536
 C   -2.802776    0.425318   -0.040234
 C   -1.984931   -0.842882    0.236071
 O   -1.782785   -1.675000   -0.647331
 C   -3.690034    0.296033   -1.279805
 C   -4.892634   -0.584210   -1.023126
 C   -6.032708   -0.045438   -0.420998
 C   -4.882463   -1.943800   -1.340246
 C   -7.138022   -0.842211   -0.141226
 C   -5.987427   -2.743927   -1.062730
 C   -7.117797   -2.196835   -0.462744
 N   -1.459027   -0.892611    1.486594
 C   -0.191199   -1.549261    1.836459
 C   -0.117376   -3.068200    1.551968
 C    1.071463   -3.690162    2.274375
 O    0.016891   -3.408264    0.184538
 C    0.937819   -0.669019    1.267291
 O    1.218283    0.400394    1.800120
 N    1.525555   -1.100012    0.138019
 C    2.536108   -0.303499   -0.506922
 C    1.945649    1.011301   -1.023923
 O    0.807752    1.119236   -1.440756
 C    3.176453   -1.098671   -1.657993
 C    3.877893   -2.335333   -1.146479
 C    3.246546   -3.579971   -1.153520
 C    5.154874   -2.233187   -0.588907
 C    3.873502   -4.697201   -0.607828
 C    5.786105   -3.347528   -0.047561
 C    5.144707   -4.584051   -0.053974
 O    2.838651    1.979901   -0.990337
 H    0.151192    3.011967   -0.226231
 H   -0.965740    4.214454    0.379997
 H    0.724954    2.596192    2.334974
 H   -0.022252    4.167396    2.594971
 H    2.408011    4.432603    2.323152
 H    2.400625    3.499663    0.834712
 H    1.074655    6.127291    1.104848
 H    1.606491    7.523794   -0.632831
 H    1.472535    6.875161   -2.171307
 H    2.039671    4.743744   -2.426657
 H   -1.184825    1.468737   -0.935763
 H   -3.417102    0.658387    0.834069
 H   -4.017289    1.305741   -1.549017
 H   -3.093842   -0.096632   -2.108963
 H   -6.054092    1.013526   -0.171600
 H   -3.994720   -2.374446   -1.792545
 H   -8.016254   -0.404556    0.324592
 H   -5.962847   -3.800294   -1.314839
 H   -7.979101   -2.822145   -0.246319
 H   -1.639366   -0.053527    2.036738
 H   -0.113960   -1.438110    2.921190
 H   -1.049854   -3.495387    1.950815
 H    2.011247   -3.261240    1.911390
 H    1.092457   -4.763807    2.071726
 H    1.004390   -3.537845    3.355994
 H   -0.728933   -2.967435   -0.279424
 H    1.227518   -1.998730   -0.234106
 H    3.308141   -0.038580    0.222306
 H    3.885395   -0.440008   -2.170126
 H    2.395052   -1.363351   -2.380098
 H    2.249216   -3.680544   -1.573852
 H    5.656078   -1.267776   -0.576435
 H    3.363193   -5.655613   -0.615216
 H    6.778919   -3.250266    0.382051
 H    5.634248   -5.455049    0.371511
 H    2.434895    2.884733   -1.222468
