75 
1hdt_ligand_xtb.xyz
 C   -1.573408    2.194486    0.933181
 O   -2.031356    1.960357    2.039582
 C   -0.607055    3.318004    0.635726
 C    0.301079    3.605175    1.833091
 C    1.597117    4.298854    1.407991
 N    1.381962    5.463752    0.573841
 C    1.343578    5.435083   -0.779935
 N    0.818241    6.572359   -1.360311
 N    1.760099    4.428975   -1.459549
 N   -1.930891    1.477772   -0.158383
 C   -2.793906    0.314048   -0.039988
 C   -1.873847   -0.880641    0.236304
 O   -1.643701   -1.731354   -0.609937
 C   -3.625813    0.120467   -1.310606
 C   -4.775368   -0.812885   -1.050434
 C   -5.935257   -0.338586   -0.449876
 C   -4.688163   -2.160035   -1.372800
 C   -6.990019   -1.192366   -0.182317
 C   -5.742248   -3.015820   -1.104364
 C   -6.895871   -2.534292   -0.510133
 N   -1.343955   -0.838923    1.470388
 C   -0.095625   -1.458435    1.921262
 C    0.027666   -2.973388    1.641518
 C    1.204453   -3.540686    2.433448
 O    0.226673   -3.307526    0.291095
 C    1.033213   -0.563762    1.361501
 O    1.301022    0.496807    1.898064
 N    1.610761   -1.000089    0.240935
 C    2.583414   -0.198660   -0.461729
 C    1.935146    1.110035   -0.933624
 O    0.779266    1.179921   -1.288107
 C    3.129651   -0.983051   -1.662519
 C    3.867894   -2.201614   -1.182364
 C    3.247118   -3.442698   -1.129528
 C    5.177241   -2.084886   -0.731218
 C    3.921687   -4.543623   -0.630205
 C    5.853207   -3.185362   -0.237202
 C    5.224548   -4.418215   -0.181995
 O    2.776204    2.105311   -0.919576
 H   -0.005836    3.036540   -0.226401
 H   -1.190266    4.203209    0.366848
 H    0.572246    2.658949    2.301864
 H   -0.236275    4.205420    2.569597
 H    2.145111    4.624098    2.296950
 H    2.224317    3.604362    0.853717
 H    0.846660    6.199899    1.009755
 H    0.778611    7.414600   -0.810217
 H    1.020832    6.718822   -2.335854
 H    1.714579    4.566069   -2.461313
 H   -1.323018    1.501986   -0.966470
 H   -3.446123    0.485683    0.824196
 H   -3.999752    1.096378   -1.626193
 H   -2.979579   -0.284430   -2.090670
 H   -6.012801    0.708956   -0.193975
 H   -3.784898   -2.537498   -1.827140
 H   -7.887655   -0.810292    0.281980
 H   -5.663109   -4.062223   -1.360711
 H   -7.719526   -3.201688   -0.302657
 H   -1.596814   -0.019005    2.017569
 H   -0.086319   -1.331047    3.008927
 H   -0.908064   -3.438699    1.996315
 H    2.121996   -3.025253    2.160526
 H    1.317847   -4.593385    2.190998
 H    1.036562   -3.435396    3.500996
 H   -0.513237   -2.895735   -0.219734
 H    1.349167   -1.914938   -0.123061
 H    3.401092    0.073671    0.218155
 H    3.799483   -0.329567   -2.224490
 H    2.292209   -1.264066   -2.304083
 H    2.231598   -3.558147   -1.477869
 H    5.669000   -1.123054   -0.769906
 H    3.423906   -5.500788   -0.590015
 H    6.871806   -3.081263    0.107310
 H    5.750792   -5.277293    0.207211
 H    2.344490    3.027183   -1.158670
