43 
1hge_ligand_xtb.xyz
 C    2.779710   -1.149165    0.755091
 C    2.148594   -0.180675   -0.271231
 C    1.445448   -1.001858   -1.356869
 C    0.208152   -1.711856   -0.796935
 C   -0.722731   -0.658404   -0.170879
 C    0.047202    0.178520    0.862541
 C   -0.740919    1.383927    1.436438
 C   -1.312448    2.368306    0.401794
 C   -0.329888    2.840127   -0.668611
 C   -2.975787   -1.631150   -0.174458
 C   -4.132464   -2.012413    0.715925
 C    3.911850    1.394080   -0.044465
 N   -1.857343   -1.275232    0.491758
 O    3.727668   -1.893483    0.194590
 O    2.464397   -1.247657    1.909877
 O    3.124593    0.586097   -0.903619
 O   -0.404987   -2.437318   -1.826836
 O    1.254612    0.716212    0.361677
 O   -1.792951    0.939292    2.254841
 O   -2.448195    1.761556   -0.184666
 O   -1.030910    3.790757   -1.450180
 O   -3.027788   -1.648860   -1.391318
 H    2.141783   -1.727070   -1.774119
 H    1.145027   -0.320326   -2.153874
 H    0.518820   -2.419170   -0.006933
 H   -1.111014   -0.029104   -0.981301
 H    0.268859   -0.475508    1.720488
 H   -0.032179    1.922110    2.076470
 H   -1.643664    3.263318    0.956061
 H   -0.002323    2.000789   -1.289369
 H    0.547290    3.283865   -0.186490
 H   -4.907556   -2.481580    0.117356
 H   -3.806882   -2.695853    1.495731
 H   -4.539790   -1.117782    1.182912
 H    4.539978    1.989411   -0.702872
 H    4.542127    0.783625    0.609919
 H    3.281427    2.044355    0.564796
 H   -1.860060   -1.250135    1.500400
 H    4.110141   -2.510019    0.842146
 H   -1.342436   -2.173239   -1.901028
 H   -2.583527    0.932823    1.694767
 H   -2.714005    2.324717   -0.922122
 H   -0.442419    4.131993   -2.130215
