42 
1hi3_ligand_xtb.xyz
 P   -4.001967   -0.366375   -0.077298
 O   -3.766779    0.082816   -1.605207
 O   -3.627200    0.910330    0.743581
 O   -5.281060   -0.990982    0.198097
 P    3.616238   -0.985244   -0.319390
 O    4.350739   -1.763307   -1.496399
 O    4.166645   -1.241976    1.013506
 O    3.620596    0.505120   -0.826874
 O    2.084493   -1.437254   -0.506261
 C    1.724546   -2.649884    0.137879
 C    0.243239   -2.638242    0.525381
 O   -0.019861   -1.770256    1.623409
 C   -0.662144   -2.199291   -0.653852
 O   -1.464817   -3.221140   -1.142433
 C   -1.474190   -1.008134   -0.082494
 O   -2.787907   -1.426221    0.175526
 C   -0.752016   -0.657377    1.235422
 N    0.116931    0.496201    1.060589
 C    1.435353    0.588452    1.393314
 N    1.994090    1.701569    1.012784
 C    0.991022    2.417392    0.406964
 C    0.927412    3.684040   -0.205486
 N    1.984570    4.494553   -0.328051
 N   -0.253007    4.090510   -0.687878
 C   -1.306610    3.310621   -0.571924
 N   -1.373385    2.102594   -0.030122
 C   -0.197380    1.673523    0.443662
 H   -4.393522   -0.379063   -2.159762
 H   -2.833959    1.418005    0.412508
 H    5.281007   -1.857524   -1.295610
 H    3.276910    1.095774   -0.130694
 H    2.339657   -2.776272    1.034221
 H    1.902204   -3.485271   -0.545408
 H   -0.025770   -3.650208    0.850796
 H   -0.032161   -1.863035   -1.482505
 H   -2.272331   -3.255790   -0.606531
 H   -1.477200   -0.163675   -0.774871
 H   -1.484285   -0.431924    2.025069
 H    1.944703   -0.185218    1.931956
 H    2.874098    4.217242    0.045686
 H    1.861863    5.390267   -0.765891
 H   -2.233866    3.699344   -0.968636
