42 
1hi3_ligand_dft.xyz
 P   -3.985482   -0.833944    0.068018
 O   -4.045579   -0.260393   -1.440718
 O   -3.661916    0.463445    0.901590
 O   -5.112341   -1.665639    0.492931
 P    3.828582   -0.890408   -0.140010
 O    4.794469   -1.717780   -1.114484
 O    4.159602   -0.969525    1.296527
 O    3.803112    0.549992   -0.806320
 O    2.377439   -1.463623   -0.519153
 C    1.901116   -2.665027    0.100874
 C    0.415051   -2.532980    0.381191
 O    0.190512   -1.617269    1.459540
 C   -0.400040   -2.023087   -0.824818
 O   -1.013247   -3.032773   -1.566965
 C   -1.389696   -1.023155   -0.201150
 O   -2.600787   -1.704946    0.080151
 C   -0.710838   -0.613311    1.116880
 N    0.028888    0.647145    0.947196
 C    1.360606    0.837963    1.193460
 N    1.808622    2.002188    0.786891
 C    0.688713    2.631014    0.275742
 C    0.475462    3.901694   -0.293701
 N    1.467560    4.790091   -0.466828
 N   -0.766381    4.236152   -0.685056
 C   -1.750427    3.356234   -0.513900
 N   -1.678835    2.130316    0.010255
 C   -0.427139    1.812783    0.383293
 H   -4.558663   -0.849307   -2.010172
 H   -3.027797    1.123707    0.489980
 H    5.682915   -1.778760   -0.738252
 H    3.310861    1.203103   -0.260717
 H    2.440811   -2.848840    1.034399
 H    2.062727   -3.497869   -0.590799
 H    0.036604   -3.515267    0.688617
 H    0.261589   -1.480920   -1.503693
 H   -1.826518   -3.267962   -1.094999
 H   -1.569833   -0.180463   -0.871120
 H   -1.442393   -0.486740    1.917674
 H    1.960390    0.073631    1.666981
 H    2.389468    4.603354   -0.107130
 H    1.244580    5.705530   -0.824045
 H   -2.737168    3.676149   -0.836059
