90 
1hkj_ligand_dft.xyz
 C   -3.655118   -0.402727    0.093695
 C   -4.261699    0.571629    1.107884
 C   -5.622876    0.061752    1.566148
 C   -6.512645   -0.298611    0.373227
 C   -5.751640   -1.201022   -0.612711
 C   -6.515714   -1.432165   -1.908092
 C   -2.438723    1.713933    2.289285
 C   -1.457390    1.620373    3.431663
 N   -3.381540    0.735796    2.239086
 O   -5.394196   -1.092525    2.352654
 O   -7.636867   -0.951453    0.922761
 O   -4.534961   -0.591694   -0.995021
 O   -7.755972   -2.028182   -1.589536
 C   -8.581896   -2.217326   -2.715855
 O   -2.377318    2.598413    1.440966
 C    0.969371    0.639845    0.050006
 C    0.198172    1.063693   -1.207959
 C   -0.592616   -0.121872   -1.777654
 C   -1.438715   -0.788950   -0.694978
 C   -0.630675   -1.105016    0.566740
 C    0.193632   -2.393281    0.443588
 C   -0.079576    3.467721   -1.017532
 C   -0.990100    4.605672   -0.618519
 N   -0.623424    2.225008   -0.925850
 O   -1.371175    0.219512   -2.891496
 O   -2.484984    0.137930   -0.398063
 O    0.142828    0.013406    0.997824
 O    0.850295   -2.701895    1.639383
 O    1.064411    3.661944   -1.432329
 C    5.623395    0.621634    0.044653
 C    5.418846   -0.502718    1.117144
 C    4.004272   -1.050244    0.873088
 C    3.292515    0.140200    0.259562
 C    4.306997    0.677546   -0.749136
 C    3.928810    2.034283   -1.333162
 C    6.890593   -1.195500   -0.518193
 C    8.394668   -3.013773   -0.983530
 C    9.273436   -0.935191   -0.111452
 N    6.482675   -1.468047    0.867480
 N    8.218216   -1.579659   -0.870399
 O    3.345973   -1.473065    2.053589
 O    2.047974   -0.176286   -0.328904
 O    3.522342    2.915882   -0.309352
 O    6.738663    0.202505   -0.715520
 H   -3.469890   -1.373078    0.583498
 H   -4.364734    1.542596    0.616229
 H   -6.124397    0.835673    2.164922
 H   -6.798449    0.626697   -0.152650
 H   -5.565459   -2.167445   -0.119594
 H   -5.929087   -2.080916   -2.573913
 H   -6.667360   -0.467458   -2.417309
 H   -0.582398    1.073124    3.063501
 H   -1.863197    1.098160    4.302726
 H   -1.144729    2.626003    3.716929
 H   -3.405707    0.013041    2.944305
 H   -6.256235   -1.531721    2.418758
 H   -8.077594   -1.412140    0.189217
 H   -9.506742   -2.677169   -2.363940
 H   -8.812870   -1.260474   -3.205105
 H   -8.102217   -2.882517   -3.446935
 H    1.340142    1.538433    0.549565
 H    0.927444    1.379171   -1.953871
 H    0.145061   -0.851723   -2.125352
 H   -1.880532   -1.705950   -1.105422
 H   -1.329507   -1.261736    1.396065
 H   -0.505194   -3.214031    0.239311
 H    0.891316   -2.329424   -0.401612
 H   -1.459733    4.402409    0.347320
 H   -0.406949    5.525983   -0.578034
 H   -1.786336    4.719245   -1.361884
 H   -1.444303    2.112839   -0.334769
 H   -2.107049    0.747519   -2.550862
 H    1.568894   -2.054914    1.761955
 H    5.859879    1.594577    0.483741
 H    5.467250   -0.122695    2.141166
 H    4.038657   -1.870892    0.141274
 H    3.147174    0.889486    1.047638
 H    4.384070   -0.041159   -1.577031
 H    3.122533    1.896151   -2.063907
 H    4.795006    2.441356   -1.876337
 H    6.199112   -1.738807   -1.180444
 H    9.363996   -3.219317   -1.449387
 H    7.614344   -3.433841   -1.626006
 H    8.358897   -3.535648   -0.011694
 H    9.420794   -1.365511    0.897429
 H   10.219251   -1.045007   -0.651491
 H    9.050874    0.129166   -0.018139
 H    7.272216   -1.246797    1.469221
 H    3.763042   -2.293934    2.345218
 H    2.721189    3.365735   -0.629629
