87 
1hkk_ligand_dft.xyz
 C   -3.676422   -0.527508   -0.120430
 C   -4.380172    0.438518    0.837442
 C   -5.757003   -0.103347    1.201101
 C   -6.550051   -0.492870   -0.049555
 C   -5.697267   -1.379422   -0.973572
 C   -6.358951   -1.630392   -2.320642
 C   -2.686109    1.652615    2.132141
 C   -1.793866    1.611239    3.348279
 N   -3.589320    0.641637    2.026473
 O   -5.557906   -1.246793    2.010931
 O   -7.693338   -1.171869    0.423151
 O   -4.469894   -0.744205   -1.268925
 O   -7.605035   -2.270891   -2.075898
 O   -2.590093    2.527058    1.276656
 C    0.910626    0.659014    0.159885
 C    0.218726    1.039161   -1.156399
 C   -0.490272   -0.181777   -1.758706
 C   -1.392994   -0.856902   -0.727378
 C   -0.672534   -1.119274    0.598429
 C    0.202269   -2.380059    0.563601
 C   -0.153708    3.435988   -1.032599
 C   -1.131092    4.544302   -0.715950
 N   -0.658953    2.176047   -0.956002
 O   -1.197052    0.115827   -2.931756
 O   -2.487911    0.039830   -0.530712
 O    0.029658    0.033474    1.059259
 O    0.795462   -2.630810    1.805387
 O    1.008974    3.666434   -1.368833
 C    5.556714    0.741271    0.380146
 C    5.332157   -0.360230    1.464564
 C    3.939454   -0.943890    1.179413
 C    3.232762    0.220029    0.509367
 C    4.275738    0.758458   -0.469688
 C    3.898011    2.097012   -1.092697
 C    6.940710   -1.034045   -0.042852
 C    6.416715   -3.271077   -0.756381
 C    6.586324   -1.511268   -2.373224
 N    6.444794   -1.295690    1.296066
 N    6.220262   -1.852004   -1.006566
 O    3.235968   -1.337839    2.346820
 O    2.024601   -0.144095   -0.127189
 O    3.423903    2.989614   -0.107858
 O    6.732948    0.336166   -0.307551
 H   -3.502960   -1.490005    0.388447
 H   -4.473794    1.401031    0.327366
 H   -6.319047    0.661504    1.756437
 H   -6.821224    0.422826   -0.599821
 H   -5.526682   -2.340960   -0.465230
 H   -6.497311   -0.666625   -2.829961
 H   -5.702415   -2.257774   -2.935963
 H   -0.874768    1.089285    3.059558
 H   -2.248383    1.089416    4.195254
 H   -1.538977    2.631877    3.637602
 H   -3.644261   -0.071273    2.739767
 H   -6.411596   -1.707006    2.015902
 H   -8.070960   -1.646795   -0.336250
 H   -8.100297   -2.318121   -2.900478
 H    1.227790    1.574370    0.666179
 H    0.987827    1.366444   -1.855687
 H    0.292478   -0.893194   -2.038858
 H   -1.773005   -1.796541   -1.148763
 H   -1.426051   -1.282426    1.377203
 H   -0.453417   -3.231499    0.342206
 H    0.947575   -2.312626   -0.239367
 H   -1.909031    4.586164   -1.485321
 H   -0.594344    5.492943   -0.695705
 H   -1.621712    4.357211    0.242926
 H   -1.515335    2.045747   -0.421885
 H   -1.969584    0.627691   -2.652980
 H    1.481329   -1.953707    1.951832
 H    5.755556    1.727661    0.808590
 H    5.329837    0.045603    2.479928
 H    4.022652   -1.776204    0.470474
 H    3.029501    0.981282    1.273028
 H    4.396754    0.017872   -1.267783
 H    3.131367    1.929593   -1.859174
 H    4.779864    2.515069   -1.602576
 H    8.029989   -1.211407   -0.093947
 H    5.790768   -3.847686   -1.444087
 H    7.467856   -3.584918   -0.905829
 H    6.128826   -3.504973    0.269324
 H    7.647853   -1.733202   -2.593452
 H    6.414652   -0.448701   -2.549306
 H    5.966254   -2.090460   -3.063809
 H    7.181361   -1.061082    1.953404
 H    3.616227   -2.170752    2.652996
 H    2.630494    3.415943   -0.475585
