37 
1hlk_ligand_dft.xyz
 C   -3.251183   -1.772452   -0.109224
 C   -1.975914   -2.278684   -0.180902
 C   -0.890167   -1.398494   -0.075582
 C   -1.049069   -0.024776    0.066846
 C   -2.372320    0.493976    0.044771
 C   -3.454680   -0.373015    0.017460
 O    0.337411   -1.994073   -0.098276
 C    1.442520   -1.229892    0.024213
 C    1.402461    0.092260    0.264014
 C    0.130365    0.792022    0.433471
 C    2.717011   -2.004892   -0.074431
 C    3.892520   -1.040377   -0.249110
 O    3.780120    0.006430    0.709094
 C    2.685843    0.855279    0.465136
 O   -4.750666   -0.000916    0.060539
 O   -4.321509   -2.584032   -0.169204
 C   -2.707579    1.934197   -0.073603
 O   -1.886532    2.636260   -0.842275
 O    2.877349    1.645388   -0.672931
 C    3.867186    2.637708   -0.497856
 C    5.238670   -1.705387   -0.041585
 O   -3.739477    2.412632    0.380078
 O    0.053411    1.918301    0.903487
 H   -1.809221   -3.344211   -0.283592
 H    2.845147   -2.599692    0.839609
 H    2.659697   -2.704140   -0.915670
 H    3.842236   -0.601793   -1.254811
 H    2.606463    1.486499    1.358800
 H   -4.776098    0.951523    0.299369
 H   -5.112944   -2.028299   -0.090362
 H   -2.206052    3.552817   -0.833332
 H    4.839160    2.194073   -0.251046
 H    3.943072    3.176000   -1.444316
 H    3.580896    3.341894    0.295794
 H    6.041459   -0.975687   -0.176856
 H    5.311346   -2.114889    0.971101
 H    5.379999   -2.518869   -0.760486
