27 
1hnn_ligand_dft.xyz
 C    0.729677    1.872265   -0.050646
 C   -0.617858    1.553012   -0.006734
 C   -0.995368    0.213116    0.041894
 C   -0.048492   -0.795599    0.063163
 S   -2.730366   -0.227013    0.138847
 C    1.306932   -0.465173    0.033256
 C    1.706474    0.872521   -0.024761
 O   -3.349431    0.727998    1.036793
 O   -2.771710   -1.663567    0.348400
 N   -3.284341    0.099675   -1.396500
 C    2.307011   -1.591865    0.120980
 C    4.099976    0.128729    0.313881
 C    3.169988    1.257592   -0.098570
 N    3.656068   -1.141597   -0.368184
 H    1.033628    2.914219   -0.092404
 H   -1.370528    2.334140    0.002366
 H   -0.377974   -1.829422    0.120343
 H   -4.036272    0.782291   -1.372337
 H   -3.552069   -0.749813   -1.884268
 H    2.009966   -2.451134   -0.484907
 H    2.456010   -1.931907    1.150682
 H    4.054709   -0.073812    1.386677
 H    5.136138    0.316575    0.027489
 H    3.372538    2.111414    0.555045
 H    3.418606    1.588402   -1.115676
 H    3.614852   -0.982719   -1.380674
 H    4.343249   -1.885601   -0.217408
