27 
1hp5_ligand_xtb.xyz
 C   -0.379611   -0.811137    0.978569
 C   -0.874880    0.652135    0.946322
 C   -0.074370    1.498142   -0.064036
 C    1.425572    1.204644    0.034649
 C    1.637965   -0.298502   -0.156705
 C    3.117253   -0.682529   -0.073424
 C   -2.596388   -0.327677   -0.151141
 C   -3.924303   -0.484866   -0.782023
 N   -2.246173    0.672583    0.529455
 S   -1.405761   -1.631682   -0.345025
 O   -0.262724    2.873358    0.157380
 O    2.134093    1.902463   -0.950085
 O    0.971108   -1.011575    0.880367
 O    3.322389   -2.039585   -0.343733
 H   -0.683119   -1.301199    1.911268
 H   -0.779733    1.106049    1.937948
 H   -0.407283    1.231792   -1.082791
 H    1.774330    1.490594    1.041057
 H    1.237580   -0.605479   -1.134054
 H    3.669413   -0.116767   -0.824515
 H    3.487996   -0.419354    0.927281
 H   -3.805985   -0.645461   -1.852032
 H   -4.523589    0.403334   -0.603162
 H   -4.426504   -1.357447   -0.368259
 H   -1.211278    3.043700    0.197166
 H    1.826309    2.818207   -0.925263
 H    2.750899   -2.547691    0.244866
