27 
1hp5_ligand_dft.xyz
 C   -0.379408   -0.828631    0.963078
 C   -0.850521    0.645217    0.934536
 C   -0.039206    1.493770   -0.055888
 C    1.447125    1.205051    0.046994
 C    1.660361   -0.285115   -0.188673
 C    3.115186   -0.715083   -0.106074
 C   -2.606373   -0.306388   -0.137055
 C   -3.958150   -0.442702   -0.763019
 N   -2.248021    0.714216    0.536232
 S   -1.436792   -1.638949   -0.344718
 O   -0.223050    2.874531    0.174621
 O    2.163273    1.922367   -0.928832
 O    0.986310   -1.019884    0.837947
 O    3.251593   -2.100827   -0.306351
 H   -0.650009   -1.300088    1.909738
 H   -0.724674    1.083319    1.930192
 H   -0.350659    1.232711   -1.079567
 H    1.794959    1.457431    1.062691
 H    1.253696   -0.569628   -1.169279
 H    3.680449   -0.210475   -0.891735
 H    3.523904   -0.401183    0.868000
 H   -3.865501   -0.591546   -1.843974
 H   -4.536317    0.462592   -0.568970
 H   -4.485568   -1.309542   -0.352605
 H   -1.166877    3.058013    0.077505
 H    1.833786    2.830978   -0.890068
 H    2.658543   -2.525123    0.327482
