64 
1hpo_ligand_xtb.xyz
 C    1.211506    1.108542   -0.020722
 C    0.961067    0.177842   -1.082782
 O    0.041554    0.197188   -1.874917
 O    1.862372   -0.855654   -1.223889
 C    2.908750   -1.043495   -0.408430
 C    3.137800   -0.230907    0.655649
 C    2.260313    0.888708    0.835886
 O    2.467561    1.760312    1.846985
 C   -1.056195    1.925062    0.591373
 C   -1.327758    1.862590    1.953441
 C   -2.582823    1.492747    2.403766
 C   -3.579780    1.155443    1.506724
 C   -3.306081    1.187730    0.144627
 C   -2.054954    1.587675   -0.307847
 C    0.327893    2.330500    0.131082
 C    0.313070    3.145829   -1.148320
 C    1.285849    4.275638   -1.299995
 C   -0.170167    4.562472   -1.091664
 C    3.744498   -2.216457   -0.819328
 C    5.008735   -1.832154   -1.603822
 C    6.139546   -1.207124   -0.784730
 C    5.879377    0.235082   -0.327801
 C    5.530821    0.374720    1.154388
 C    4.307773   -0.455501    1.570117
 N   -4.289708    0.760723   -0.761939
 S   -4.847642   -0.812513   -0.547964
 O   -5.722106   -0.862842    0.581344
 O   -5.337737   -1.236017   -1.823590
 C   -3.311995   -1.645267   -0.137489
 C   -3.006657   -1.846553    1.196091
 C   -1.737007   -2.264285    1.542436
 C   -0.790882   -2.483960    0.538062
 C   -1.125003   -2.325174   -0.808537
 C   -2.393534   -1.887504   -1.140533
 C    0.525503   -2.841419    0.904163
 N    1.598955   -3.098984    1.215212
 H    3.250737    1.501391    2.349123
 H   -0.551998    2.111935    2.662760
 H   -2.787015    1.465752    3.463938
 H   -4.561083    0.856666    1.837507
 H   -1.857978    1.605297   -1.366844
 H    0.771232    2.942717    0.921835
 H    0.084684    2.574133   -2.036246
 H    1.713393    4.460859   -2.273799
 H    1.964429    4.478219   -0.484637
 H   -0.480072    4.951528   -0.133603
 H   -0.745133    4.945530   -1.920462
 H    3.119512   -2.834337   -1.465591
 H    4.012936   -2.809650    0.054015
 H    5.392108   -2.747130   -2.060705
 H    4.731985   -1.153629   -2.413128
 H    7.029684   -1.215350   -1.417376
 H    6.359304   -1.838084    0.077821
 H    5.077260    0.666475   -0.929074
 H    6.772425    0.836972   -0.508112
 H    5.354376    1.434488    1.358818
 H    6.384460    0.062014    1.759583
 H    4.039836   -0.225379    2.606425
 H    4.566640   -1.511991    1.548304
 H   -4.040045    0.906956   -1.729964
 H   -3.766860   -1.665575    1.938091
 H   -1.464139   -2.407154    2.577190
 H   -0.388921   -2.508140   -1.575274
 H   -2.675339   -1.725064   -2.168371
