70 
1hpv_ligand_xtb.xyz
 C    7.001712    1.122518   -0.334403
 C    5.608704   -0.817480    0.069583
 C    3.422605    1.329368    0.400554
 C    5.679432    0.696659    0.333066
 C    1.078168    1.870789    0.135792
 C    0.524285    0.585717   -0.527395
 C    0.287765    3.128005   -0.239943
 C   -1.157132    3.015324    0.152371
 C   -2.145335    2.908446   -0.817280
 C   -1.529062    2.989548    1.491427
 C   -3.474095    2.767803   -0.457759
 C   -2.855712    2.834923    1.852081
 C   -3.832908    2.719174    0.877898
 C   -0.628994   -0.040057    0.284079
 C   -0.279408   -2.338161    1.184623
 C    1.247796   -2.438386    1.317784
 C   -3.323468   -1.350268   -0.589785
 C   -4.019339   -0.510977   -1.439978
 C   -5.253519   -0.025054   -1.062492
 C   -5.797336   -0.361084    0.181928
 C   -5.077029   -1.213020    1.027846
 C   -3.849981   -1.706373    0.639005
 C    1.840337   -3.053904    0.053814
 C    1.600590   -3.276780    2.543539
 C    7.035316   -1.143137   -0.376702
 N    2.468749    2.052368   -0.230615
 N   -0.686541   -1.469918    0.108085
 N   -6.985200    0.184194    0.592198
 O    4.598778    1.402025   -0.265999
 O    3.269291    0.734973    1.440574
 O    0.151474    0.874863   -1.846982
 O   -1.751277   -3.427784   -1.026199
 O   -1.345235   -1.361130   -2.299483
 O    7.483969    0.011342   -1.052652
 S   -1.728235   -1.996014   -1.061490
 H    7.729342    1.426747    0.430681
 H    6.845502    1.942571   -1.036022
 H    4.906410   -0.998098   -0.744814
 H    5.293702   -1.376556    0.946214
 H    5.675428    0.914418    1.406286
 H    1.075863    1.723922    1.220160
 H    1.346273   -0.149761   -0.524647
 H    0.362876    3.266613   -1.318267
 H    0.750742    3.980535    0.262168
 H   -1.866232    2.922786   -1.859830
 H   -0.772663    3.090296    2.256671
 H   -4.231516    2.695334   -1.223360
 H   -3.129575    2.808872    2.896876
 H   -4.868428    2.595260    1.158176
 H   -1.576111    0.396999   -0.048407
 H   -0.503265    0.179471    1.346727
 H   -0.714114   -1.991025    2.132809
 H   -0.683910   -3.322897    0.943104
 H    1.657075   -1.431872    1.455044
 H   -3.580311   -0.257406   -2.391580
 H   -5.811576    0.619748   -1.725058
 H   -5.494548   -1.483201    1.986517
 H   -3.294734   -2.376722    1.275744
 H    2.927257   -3.037773    0.093981
 H    1.508414   -4.084300   -0.053545
 H    1.510609   -2.505050   -0.825187
 H    1.191092   -4.280324    2.448554
 H    1.202614   -2.824203    3.448937
 H    2.679862   -3.352311    2.647061
 H    7.674162   -1.345352    0.496544
 H    7.097737   -1.979999   -1.071617
 H    2.658221    2.331503   -1.181449
 H   -7.457410   -0.253884    1.364910
 H   -7.579698    0.587807   -0.111866
 H   -0.332736    0.101714   -2.197339
