14 
1hti_ligand_xtb.xyz
 P   -1.207651   -0.069253   -0.061155
 O   -0.097323    1.007086    0.385775
 O   -2.522333    0.767142   -0.237300
 O   -1.501983   -0.879163    1.276068
 O   -0.810673   -0.862798   -1.227840
 C    1.102200    1.132717   -0.363756
 C    2.100949    0.019094    0.000320
 O    1.687886   -1.210563   -0.275137
 O    3.159599    0.247573    0.507672
 H   -2.782471    1.221851    0.564658
 H   -0.902562   -1.610994    1.419512
 H    1.530295    2.102022   -0.100854
 H    0.888913    1.088797   -1.437138
 H    0.840306   -1.227970   -0.782138
