22 
1i43_ligand_dft.xyz
 C    1.379143    0.336298   -0.158650
 C    0.576622   -0.729317   -0.583639
 C   -0.816137   -0.581602   -1.130605
 P   -2.142334   -0.322581    0.119397
 O   -1.271786   -0.256817    1.489973
 O   -2.679982    1.162331   -0.128198
 O   -3.210281   -1.338963    0.124186
 C    1.143288   -2.003284   -0.475371
 C    2.426868   -2.167226    0.020497
 C    3.142081   -1.035254    0.399124
 N    2.624819    0.183507    0.307252
 C    0.942270    1.782870   -0.170664
 O    1.882291    2.625264    0.219170
 O   -0.158693    2.168989   -0.508405
 H   -1.099361   -1.498464   -1.655592
 H   -0.874651    0.242482   -1.844691
 H   -1.848634   -0.412385    2.251107
 H   -1.924944    1.776556   -0.230086
 H    0.563309   -2.868527   -0.783641
 H    2.870787   -3.152701    0.108766
 H    4.154730   -1.106332    0.785222
 H    2.662843    2.072198    0.449240
