15 
1i80_ligand_xtb.xyz
 C    2.036147   -0.898871   -0.000268
 C    2.455246    0.407039    0.000878
 N    1.381772    1.236262    0.000066
 C    0.248898    0.484837   -0.001153
 C   -1.122799    0.895625   -0.000377
 O   -1.581551    2.022135    0.000482
 N   -1.955801   -0.229034   -0.000315
 C   -1.512191   -1.519779    0.000933
 N   -0.285566   -1.883154    0.000017
 C    0.626276   -0.867147   -0.001324
 H    2.652292   -1.773950    0.000588
 H    3.454385    0.797213    0.001957
 H   -2.949548   -0.035975   -0.000721
 H   -2.274785   -2.286297    0.003157
 H    1.397765    2.243195    0.000640
