34 
1i9l_ligand_xtb.xyz
 C   -1.315263   -0.929156    0.979994
 C   -2.577757   -0.378719    1.118678
 C   -3.210381    0.150253    0.012034
 C   -2.623750    0.130436   -1.237064
 C   -1.366291   -0.428439   -1.378207
 C   -0.701226   -0.948203   -0.270102
 C    0.653158   -1.547360   -0.493075
 O    0.950816   -2.102601   -1.531342
 N    1.505642   -1.429576    0.552367
 C    2.880817   -1.882180    0.475700
 S   -4.846684    0.831965    0.200941
 N   -5.781043   -0.544022   -0.059082
 O   -5.105313    1.758435   -0.861104
 O   -5.036686    1.241378    1.561462
 C    3.830073   -0.725074    0.297877
 C    3.773823    0.028274   -0.870155
 C    4.608962    1.114278   -1.050050
 C    5.504592    1.435963   -0.045273
 C    5.583644    0.704590    1.124972
 C    4.735531   -0.376596    1.290546
 F    6.324984    2.493378   -0.212072
 H   -0.826500   -1.366381    1.838197
 H   -3.080078   -0.339979    2.071932
 H   -3.155330    0.558946   -2.071234
 H   -0.880088   -0.474781   -2.340831
 H    1.261905   -0.831840    1.325691
 H    2.931584   -2.549635   -0.389477
 H    3.123932   -2.443950    1.382043
 H   -6.335729   -0.470202   -0.896149
 H   -6.348628   -0.769704    0.741248
 H    3.071950   -0.247168   -1.642698
 H    4.578056    1.705936   -1.951139
 H    6.295418    0.983305    1.885600
 H    4.787287   -0.957304    2.200043
