34 
1i9m_ligand_xtb.xyz
 C   -1.444579   -0.779251    1.080697
 C   -2.694398   -0.193433    1.187846
 C   -3.385363    0.137439    0.040084
 C   -2.870102   -0.114073   -1.215392
 C   -1.627368   -0.712193   -1.323530
 C   -0.905605   -1.035976   -0.177513
 C    0.426688   -1.691695   -0.356927
 O    0.646699   -2.493756   -1.239767
 N    1.362094   -1.330297    0.556756
 C    2.727169   -1.788440    0.450141
 S   -5.007469    0.860428    0.188523
 N   -5.960833   -0.527716    0.163841
 O   -5.302913    1.626385   -0.986040
 O   -5.144490    1.464911    1.481412
 C    3.726995   -0.670640    0.319035
 C    3.490340    0.444108   -0.480794
 C    4.409575    1.467591   -0.621686
 C    5.607865    1.360696    0.058953
 C    5.891501    0.272129    0.863983
 C    4.945474   -0.728878    0.986480
 F    6.515932    2.343301   -0.065118
 F    2.325210    0.557666   -1.146760
 H   -0.907143   -1.060240    1.974665
 H   -3.142016    0.023450    2.144556
 H   -3.444811    0.169157   -2.082296
 H   -1.195223   -0.935241   -2.286756
 H    1.166091   -0.580544    1.200291
 H    2.753540   -2.423885   -0.444455
 H    2.985046   -2.404094    1.319359
 H   -6.552791   -0.563143   -0.649897
 H   -6.492790   -0.633127    1.012082
 H    4.194736    2.317256   -1.248740
 H    6.834949    0.218658    1.382241
 H    5.157285   -1.582333    1.612221
