34 
1i9n_ligand_xtb.xyz
 C    1.442930   -1.315937   -0.410008
 C    2.731089   -0.967285   -0.778474
 C    3.388754    0.025166   -0.080634
 C    2.802800    0.669520    0.990107
 C    1.521055    0.312241    1.368146
 C    0.831477   -0.670883    0.662178
 C   -0.550231   -1.016343    1.122337
 O   -0.869619   -0.998976    2.293126
 N   -1.411686   -1.348010    0.129154
 C   -2.803060   -1.632465    0.393501
 S    5.055927    0.451630   -0.547365
 N    5.926161   -0.546702    0.490931
 O    5.320345    1.812208   -0.184574
 O    5.299200    0.015015   -1.890841
 C   -3.704090   -0.484042    0.017011
 C   -3.366056    0.821616    0.347872
 C   -4.209658    1.857949   -0.005332
 C   -5.398485    1.643628   -0.681249
 C   -5.745710    0.346869   -1.011743
 C   -4.898506   -0.689897   -0.663668
 F   -5.250239   -1.948818   -1.003603
 F   -3.861361    3.116543    0.319028
 H    0.930753   -2.106908   -0.937914
 H    3.235081   -1.441423   -1.605404
 H    3.353336    1.442582    1.501206
 H    1.035633    0.783062    2.209450
 H   -1.135133   -1.227444   -0.831848
 H   -2.877356   -1.813636    1.471787
 H   -3.102767   -2.537625   -0.141334
 H    6.487216   -1.215100   -0.011129
 H    6.478273   -0.019150    1.147134
 H   -2.455759    1.029416    0.887851
 H   -6.032231    2.476947   -0.936780
 H   -6.662061    0.129839   -1.536547
