34 
1i9n_ligand_dft.xyz
 C    1.149115    0.307177   -0.323395
 C    2.448487    0.778570   -0.471161
 C    3.498297    0.032514    0.051059
 C    3.274259   -1.154085    0.743493
 C    1.972477   -1.610739    0.892071
 C    0.906541   -0.895552    0.343545
 C   -0.475945   -1.452309    0.551206
 O   -0.736449   -2.170917    1.502428
 N   -1.399326   -1.102583   -0.391592
 C   -2.776075   -1.537526   -0.322587
 S    5.169254    0.620150   -0.157071
 N    5.669593   -0.141208   -1.563245
 O    5.964913    0.077218    0.931745
 O    5.101002    2.044774   -0.440365
 C   -3.752186   -0.386985   -0.193651
 C   -3.393107    0.831047    0.379588
 C   -4.333240    1.843968    0.488870
 C   -5.637339    1.691867    0.044128
 C   -6.006581    0.478427   -0.526764
 C   -5.065081   -0.531859   -0.633109
 F   -5.431941   -1.704347   -1.186711
 F   -3.964735    3.010258    1.040856
 H    0.326550    0.909944   -0.698039
 H    2.647428    1.723865   -0.963957
 H    4.108336   -1.697320    1.174276
 H    1.759827   -2.520635    1.442601
 H   -1.093183   -0.628173   -1.226691
 H   -2.847743   -2.195185    0.548653
 H   -3.025764   -2.137368   -1.202925
 H    5.886376    0.544899   -2.279186
 H    6.455616   -0.754642   -1.372852
 H   -2.383996    0.993222    0.742725
 H   -6.343078    2.508247    0.145242
 H   -7.013689    0.308406   -0.890381
