37 
1iem_ligand_xtb.xyz
 B   -4.077989   -1.973710   -0.633715
 O   -3.917830   -0.885107   -1.421827
 O   -5.104871   -2.842517   -0.726154
 C   -2.981325   -2.223652    0.504824
 N   -1.868275   -1.303333    0.398144
 C   -0.606402   -1.665566    0.673660
 O   -0.303021   -2.768995    1.098231
 C    0.422543   -0.596064    0.419562
 N    0.252888    0.671525    0.386010
 O   -0.993931    1.241849    0.525567
 C   -0.910095    2.676299    0.592640
 C    1.801695   -0.984176    0.175872
 C    2.339060   -2.232970    0.293547
 S    4.009039   -2.219977   -0.119925
 C    3.853394   -0.478219   -0.439859
 N    4.897750    0.226275   -0.922349
 N    2.678617   -0.009128   -0.235617
 C   -0.112541    3.111251    1.826959
 C   -2.358606    3.145155    0.655843
 C   -0.201724    3.293395   -0.643654
 O   -0.634919    4.277199   -1.179339
 O    0.927470    2.721592   -1.021160
 H   -4.567729   -0.722489   -2.106421
 H   -5.767662   -2.689508   -1.401169
 H   -2.575320   -3.237616    0.463287
 H   -3.442234   -2.126631    1.495768
 H   -2.073384   -0.394600    0.013431
 H    1.849331   -3.130795    0.607355
 H    5.824057   -0.147605   -0.816383
 H    4.792806    1.226817   -0.945850
 H   -0.610021    2.759628    2.728420
 H    0.890569    2.689960    1.793432
 H   -0.044172    4.195153    1.855540
 H   -2.908820    2.746805   -0.192583
 H   -2.822219    2.797793    1.574972
 H   -2.388552    4.228890    0.611859
 H    1.102639    1.870118   -0.536511
