37 
1iem_ligand_dft.xyz
 B   -3.955012   -2.158297   -0.540052
 O   -4.066766   -0.847208   -0.923095
 O   -4.959085   -3.080925   -0.590490
 C   -2.551427   -2.635772    0.009520
 N   -1.560500   -1.579707   -0.059042
 C   -0.338983   -1.728076    0.483703
 O    0.042420   -2.759036    1.023200
 C    0.601934   -0.537968    0.345265
 N    0.282333    0.703691    0.382811
 O   -1.057362    0.981306    0.480113
 C   -1.299020    2.403810    0.613825
 C    2.041831   -0.783493    0.142440
 C    2.687983   -1.966963    0.320329
 S    4.368523   -1.780218   -0.054311
 C    4.057115   -0.087537   -0.410423
 N    5.050589    0.730822   -0.883385
 N    2.824453    0.283461   -0.268078
 C   -0.655529    2.921371    1.900496
 C   -2.815491    2.494990    0.654096
 C   -0.747872    3.214991   -0.591440
 O   -1.396664    4.105289   -1.083328
 O    0.491227    2.949321   -0.998243
 H   -4.925937   -0.573199   -1.259674
 H   -5.802712   -2.755895   -0.921163
 H   -2.204976   -3.513458   -0.551446
 H   -2.656342   -2.984703    1.045954
 H   -1.854425   -0.660397   -0.359000
 H    2.271894   -2.900230    0.664890
 H    5.988518    0.559619   -0.553012
 H    4.788908    1.707401   -0.897945
 H   -1.053536    2.368196    2.756481
 H    0.430190    2.799339    1.876891
 H   -0.885431    3.983542    2.025195
 H   -3.246610    2.063035   -0.252469
 H   -3.192361    1.947000    1.522438
 H   -3.121154    3.539840    0.717258
 H    0.851153    2.164926   -0.523424
