16 
1ik4_ligand_xtb.xyz
 C   -1.681402    0.616091    0.070996
 C   -0.439107    1.301314    0.618129
 N   -1.851623   -0.646418    0.479108
 O   -2.927047   -1.366316   -0.037340
 O   -2.504072    1.176244   -0.631000
 O    0.541422    0.383157    1.065127
 O    0.584162   -0.627535   -1.204800
 O    2.336208    1.035949   -0.607152
 O    2.407612   -1.274618    0.531721
 P    1.550708   -0.227234   -0.003012
 H   -0.721608    1.908886    1.483867
 H   -0.041434    1.955935   -0.162102
 H   -1.161452   -1.219385    0.937376
 H   -3.398077   -0.704452   -0.585318
 H    1.027548   -1.207512   -1.821994
 H    3.212531    1.080485   -0.227617
