16 
1ik4_ligand_dft.xyz
 C   -1.613886    0.139083    0.059337
 C   -0.560050    1.236592    0.081122
 N   -2.890597    0.536413    0.132316
 O   -3.885000   -0.395766   -0.097410
 O   -1.353623   -1.066185   -0.024292
 O    0.601220    0.790962    0.739523
 O    3.018026    0.108865    0.741585
 O    1.329569   -1.574409    0.188127
 O    1.766339    0.391759   -1.524913
 P    1.689745   -0.066443   -0.125095
 H   -0.924751    2.115537    0.620326
 H   -0.334001    1.519721   -0.955076
 H   -3.217085    1.478371   -0.017836
 H   -3.369994   -1.225539   -0.158086
 H    3.613014    0.733973    0.306771
 H    0.352200   -1.676183    0.130395
