16 
1il5_ligand_xtb.xyz
 C    1.114640    0.000219   -0.019096
 N    2.499534   -0.000106   -0.123638
 C    0.353393    1.173289    0.000992
 N   -0.970547    1.179604    0.011066
 C   -1.585520   -0.000168   -0.003755
 N   -2.943448   -0.000403   -0.077614
 N   -0.970314   -1.179748    0.011534
 C    0.353643   -1.172959    0.001108
 O    0.978122   -2.370039    0.035825
 O    0.977635    2.370415    0.036027
 H    2.929497    0.847426    0.214830
 H    2.928618   -0.848248    0.214452
 H   -3.405492    0.862039    0.150853
 H   -3.405227   -0.862473    0.152779
 H    0.291676   -3.050734    0.033336
 H    0.291366    3.051262    0.034006
