17 
1j14_ligand_dft.xyz
 C   -0.213906   -0.035507   -0.021818
 C    0.520605   -1.211245    0.152582
 C    1.908683   -1.174024    0.176480
 C    2.580670    0.036962    0.019538
 C    1.856197    1.209491   -0.168466
 C    0.464737    1.174297   -0.188997
 C   -1.705448   -0.111108   -0.035816
 N   -2.353675    1.078535    0.275338
 N   -2.266932   -1.212777   -0.363870
 H   -0.019084   -2.145448    0.264479
 H    2.469887   -2.092908    0.318023
 H    3.666241    0.064541    0.037877
 H    2.373195    2.154174   -0.308519
 H   -0.091582    2.089179   -0.371444
 H   -3.348116    1.002054    0.439461
 H   -1.890547    1.675583    0.946319
 H   -3.284980   -1.140671   -0.307504
