17 
1j15_ligand_xtb.xyz
 C   -0.214404   -0.030775   -0.015246
 C    0.517271   -1.199345    0.176811
 C    1.898313   -1.164315    0.196317
 C    2.565566    0.036812    0.016948
 C    1.844819    1.200656   -0.189942
 C    0.461648    1.170648   -0.204595
 C   -1.690482   -0.106924   -0.031887
 N   -2.361270    1.035185    0.334349
 N   -2.232611   -1.185920   -0.416920
 H   -0.022287   -2.124097    0.304724
 H    2.458483   -2.074914    0.350464
 H    3.645260    0.065501    0.031087
 H    2.362229    2.136728   -0.343668
 H   -0.087965    2.081886   -0.393050
 H   -3.357700    0.970156    0.468872
 H   -1.887209    1.733966    0.879988
 H   -3.250023   -1.174632   -0.410857
