13 
1jdj_ligand_xtb.xyz
 N    2.376566   -0.855787   -0.000072
 C    2.754448    0.462163    0.000021
 N    1.762741    1.291485   -0.000022
 C    0.639111    0.511518    0.000018
 C   -0.735006    0.744646    0.000145
Cl   -1.405091    2.302083   -0.000072
 N   -1.568591   -0.279671    0.000205
 C   -1.075580   -1.503532    0.000029
 N    0.181455   -1.884719   -0.000124
 C    1.021299   -0.858447    0.000007
 F   -1.973046   -2.473868   -0.000053
 H    3.783912    0.761936    0.000204
 H    2.969225   -1.669776    0.000269
