43 
1jr1_ligand_xtb.xyz
 C   -4.044516   -1.286446    0.673502
 C    1.542360   -1.069879   -0.209555
 C    2.786865   -1.495826   -0.384048
 C    3.710770   -1.716692    0.782902
 C    4.839708   -0.679302    0.802134
 C    4.314318    0.716237    1.074284
 C   -2.446237    3.136616   -0.377250
 C    0.902215    2.441640   -0.349908
 C    3.351546   -1.755777   -1.751779
 C   -4.494505    0.955622    0.699620
 C   -3.122154    0.765611    0.127486
 C   -2.187948    1.661855   -0.345994
 C   -0.977492    1.112030   -0.810436
 C   -0.722729   -0.262468   -0.826430
 C   -1.691300   -1.152913   -0.346953
 C   -2.876120   -0.603079    0.127881
 C    0.581740   -0.802105   -1.334502
 O   -4.201155   -2.474828    0.823287
 O   -4.967121   -0.353185    0.998131
 O   -0.019305    1.963930   -1.318763
 O   -1.483989   -2.481069   -0.355070
 O    3.232603    0.968490    1.516339
 O    5.182775    1.709907    0.793652
 H    1.170597   -0.895783    0.789368
 H    4.151113   -2.715068    0.722295
 H    3.149915   -1.639396    1.714338
 H    5.376515   -0.684274   -0.150391
 H    5.553620   -0.921137    1.596081
 H   -3.453489    3.335791   -0.738221
 H   -2.357916    3.562955    0.622319
 H   -1.731030    3.626007   -1.032510
 H    0.394123    3.016334    0.430009
 H    1.457506    1.624977    0.117772
 H    1.590676    3.090788   -0.887343
 H    2.672815   -2.382627   -2.327840
 H    3.477237   -0.822498   -2.302099
 H    4.314052   -2.258353   -1.693120
 H   -5.188557    1.422632   -0.007882
 H   -4.490533    1.543431    1.624034
 H    0.389307   -1.736437   -1.870097
 H    1.019416   -0.089068   -2.037595
 H   -2.270497   -2.920656    0.014235
 H    6.025543    1.385682    0.450328
