29 
1jsv_ligand_xtb.xyz
 N    4.492612    2.478820   -0.358658
 C    4.240147    1.160808   -0.181268
 N    5.296287    0.381262    0.085004
 C    5.047566   -0.897722    0.269460
 N    3.876124   -1.494158    0.242631
 C    2.940808    0.643115   -0.239041
 C    2.806556   -0.716568    0.007844
 N    1.625996   -1.415271   -0.034079
 C    0.320264   -0.977831    0.031106
 C   -0.683367   -1.811587   -0.480140
 C   -2.005699   -1.422411   -0.438425
 C   -0.044102    0.232108    0.631650
 C   -1.370446    0.615854    0.668183
 C   -2.337758   -0.203866    0.121915
 S   -4.031961    0.323980    0.122951
 O   -4.247011    1.269287    1.179958
 O   -4.895336   -0.815392    0.006669
 N   -4.094252    1.171602   -1.338310
 H    5.456144    2.754565   -0.429758
 H    3.785992    3.079782   -0.742344
 H    5.904490   -1.530641    0.462039
 H    2.107782    1.271228   -0.503893
 H    1.769608   -2.414856   -0.094254
 H   -0.409240   -2.763693   -0.909942
 H   -2.793374   -2.049767   -0.823175
 H    0.706274    0.845558    1.102621
 H   -1.676009    1.537015    1.137559
 H   -4.340369    2.137122   -1.191553
 H   -4.722327    0.731657   -1.991344
