29 
1jsv_ligand_dft.xyz
 N    4.423996    2.513359   -0.388248
 C    4.209557    1.180495   -0.192813
 N    5.303646    0.434527    0.039006
 C    5.077576   -0.859044    0.237660
 N    3.914791   -1.496840    0.256050
 C    2.919776    0.634499   -0.208748
 C    2.827686   -0.730897    0.042679
 N    1.648776   -1.444945    0.049481
 C    0.329191   -0.994734    0.059781
 C   -0.650745   -1.792307   -0.544934
 C   -1.982876   -1.408216   -0.527363
 C   -0.054562    0.189108    0.707312
 C   -1.383373    0.582133    0.710132
 C   -2.340905   -0.211839    0.084914
 S   -4.039644    0.298283    0.092636
 O   -4.302701    1.011531    1.332556
 O   -4.838981   -0.844880   -0.323308
 N   -4.093648    1.467071   -1.112998
 H    5.380350    2.782669   -0.562458
 H    3.708285    3.068952   -0.828015
 H    5.958839   -1.474670    0.407135
 H    2.054410    1.243987   -0.436435
 H    1.801907   -2.443983    0.043643
 H   -0.358979   -2.715723   -1.036647
 H   -2.745071   -2.029877   -0.984384
 H    0.681441    0.777283    1.242809
 H   -1.684104    1.487930    1.226028
 H   -4.626689    2.263967   -0.777113
 H   -4.493496    1.086346   -1.965468
