15 
1k03_ligand_xtb.xyz
 C   -2.456173    0.386123    0.000632
 O   -3.263155   -0.510073    0.003462
 C   -1.003223    0.222618   -0.001861
 C   -0.440335   -1.057751   -0.002692
 C    0.924297   -1.224958   -0.001944
 C    1.761347   -0.107246    0.000085
 C    1.208328    1.172657   -0.000697
 C   -0.160824    1.333974   -0.001798
 O    3.097013   -0.312263    0.002978
 H   -2.784400    1.445989    0.000575
 H   -1.103826   -1.909220   -0.003587
 H    1.373961   -2.204976   -0.002323
 H    1.860141    2.036698   -0.000094
 H   -0.585930    2.327389   -0.002191
 H    3.568691    0.530310    0.005747
