20 
1k2i_ligand_xtb.xyz
 C    2.501157   -0.456149    0.002203
 C    1.463094    0.398837   -0.019104
 C    0.059358    0.070197   -0.015087
 C   -0.888886    1.117254   -0.002935
 C   -2.244917    0.837826    0.007753
 C   -0.424454   -1.240606   -0.020497
 C   -1.772681   -1.519141   -0.010903
 C   -2.696841   -0.476559    0.005305
 O   -4.032951   -0.689252    0.018857
 O   -0.443372    2.396076    0.000762
 C    3.871856    0.012210    0.001308
 O    4.851527   -0.696189    0.024035
 H    2.371137   -1.528151    0.024613
 H    1.675263    1.460741   -0.036700
 H   -2.973778    1.635402    0.019088
 H    0.278157   -2.057666   -0.033956
 H   -2.118322   -2.543539   -0.015234
 H   -4.218879   -1.636464    0.016899
 H   -1.192698    3.004427    0.009455
 H    3.971373    1.116956   -0.021665
