32 
1k4g_ligand_dft.xyz
 C   16.672182   17.850652   18.370956
 C   15.741747   17.786603   19.394145
 C   14.293762   18.051496   19.110818
 C   16.159051   17.405026   20.689316
 N   15.215685   17.330464   21.703696
 C   15.633230   16.997312   22.876387
 N   14.768782   16.972218   23.950988
 N   16.946027   16.697293   23.164100
 C   17.975940   16.721582   22.222328
 O   19.117574   16.452560   22.550295
 C   17.517366   17.101403   20.882765
 C   18.442108   17.155430   19.836024
 C   18.028262   17.524695   18.563975
 N   18.904114   17.510693   17.477452
 S   13.398013   16.536242   18.549156
 C   14.328026   16.220539   17.091044
 N   14.245528   16.861464   15.944219
 N   15.331564   15.295087   17.068847
 C   15.237281   16.330421   15.160883
 C   15.927207   15.358638   15.839515
 H   16.334909   18.128083   17.373670
 H   14.166608   18.806538   18.332138
 H   13.768759   18.364939   20.014580
 H   13.805522   17.063277   23.657041
 H   14.907186   16.230114   24.623553
 H   17.238881   16.525235   24.117093
 H   19.475801   16.896407   20.045566
 H   19.875374   17.655262   17.716340
 H   18.622007   18.094129   16.702003
 H   15.626972   14.747123   17.861941
 H   15.392046   16.669558   14.146073
 H   16.758486   14.727520   15.567092
