34 
1k4h_ligand_xtb.xyz
 C    2.399421    0.439380    1.233544
 C    2.865603   -0.968563    0.895270
 C    4.355186   -1.022995    0.584370
 S    2.650105    1.635569   -0.116678
 C    1.413162    1.057636   -1.342647
 C    0.033723    1.075796   -0.779223
 C   -0.622828   -0.133928   -0.482762
 N    0.010681   -1.324923   -0.741186
 C   -0.610590   -2.417452   -0.466239
 N   -1.866044   -2.456516    0.084196
 C   -2.607314   -1.320204    0.391033
 O   -3.713436   -1.432957    0.877806
 C   -1.913984   -0.077604    0.076564
 C   -2.528831    1.143195    0.338891
 C   -1.875882    2.333162    0.051610
 N   -2.494800    3.548661    0.241219
 C   -0.591263    2.273810   -0.505932
 N   -0.038409   -3.617604   -0.773998
 H    1.337361    0.452645    1.481958
 H    2.968747    0.849155    2.067989
 H    2.287611   -1.336267    0.044997
 H    2.641142   -1.611691    1.751381
 H    4.590926   -0.352371   -0.238548
 H    4.937120   -0.715578    1.450766
 H    4.653321   -2.031725    0.307725
 H    1.688176    0.056353   -1.664901
 H    1.518534    1.760215   -2.168512
 H   -2.318570   -3.345217    0.260071
 H   -3.518903    1.138145    0.769279
 H   -3.284734    3.556152    0.865204
 H   -1.896916    4.356243    0.300159
 H   -0.069141    3.195701   -0.722872
 H    0.936655   -3.578869   -1.018353
 H   -0.343941   -4.439062   -0.280443
