15 
1kc7_ligand_xtb.xyz
 C   -2.168254   -0.212895   -0.067490
 O   -1.892970   -1.355217    0.534490
 O   -3.228262    0.054517   -0.555267
 C   -0.984544    0.767173   -0.148729
 C    0.051588    0.406723   -1.174327
 O   -0.832477    1.696150    0.606467
 P    1.341853   -0.203566    0.011382
 O    2.529633   -0.820154   -0.822450
 O    0.766185   -1.138119    0.983478
 O    2.002828    1.111552    0.615084
 H   -0.957539   -1.428837    0.848769
 H    0.405169    1.281355   -1.716085
 H   -0.269610   -0.377712   -1.854273
 H    3.139339   -0.176575   -1.186373
 H    1.402614    1.599434    1.186082
