19 
1kdw_ligand_dft.xyz
 B    2.954962    0.006398    0.010670
 O    3.674117   -0.953854    0.656820
 O    3.677579    0.976814   -0.617084
 C    1.370657   -0.003053   -0.006091
 C    0.652325   -1.204506   -0.091997
 C   -0.735252   -1.218475   -0.116498
 C   -1.447316   -0.021728   -0.021627
 C   -2.946259   -0.097525   -0.049964
 O   -3.614676    0.927748    0.521138
 O   -3.547922   -1.012649   -0.547240
 C   -0.750824    1.186108    0.058860
 C    0.639418    1.189346    0.057300
 H    3.115672   -1.552503    1.161671
 H    3.125252    1.560670   -1.145329
 H    1.187259   -2.149074   -0.164697
 H   -1.287873   -2.147566   -0.209200
 H   -3.005585    1.492661    1.014225
 H   -1.279839    2.136333    0.081701
 H    1.161029    2.142012    0.119322
