23 
1ke0_ligand_dft.xyz
 B    3.932493   -0.151384   -0.001011
 O    4.448242   -1.421192    0.001720
 O    4.690364    0.990119   -0.004725
 C    2.373730    0.005372    0.000152
 C    1.533853   -1.118016    0.003280
 C    0.154121   -0.986049    0.004329
 C   -0.440341    0.284048    0.002299
 C   -1.891346    0.491005    0.002841
 C   -2.852340   -0.441598   -0.002072
 C   -4.278155   -0.022295   -0.000632
 O   -5.186212   -1.026838   -0.006559
 O   -4.652893    1.123237    0.005249
 C    0.393775    1.408870   -0.000422
 C    1.775784    1.270337   -0.001636
 H    5.409027   -1.473659    0.000449
 H    5.642525    0.851575   -0.004973
 H    1.976415   -2.109915    0.005088
 H   -0.464413   -1.878810    0.007361
 H   -2.230183    1.526287    0.007135
 H   -2.616989   -1.504024   -0.007552
 H   -4.741412   -1.883825   -0.011070
 H   -0.051876    2.400377   -0.001742
 H    2.403954    2.156256   -0.003951
