30 
1ke3_ligand_dft.xyz
 B    5.135386    0.000035   -0.000017
 O    5.782302   -1.137803    0.413631
 O    5.782278    1.137864   -0.413735
 C    3.572759    0.000021    0.000026
 C    2.848147   -1.125357    0.412823
 C    1.459388   -1.128460    0.414004
 C    0.742064   -0.000061   -0.000011
 C    1.459334    1.128404   -0.413934
 C    2.848091    1.125372   -0.412746
 C   -0.742062   -0.000060    0.000021
 C   -1.459378   -1.128512   -0.413854
 C   -2.848137   -1.125413   -0.412689
 C   -3.572760   -0.000008    0.000017
 C   -2.848096    1.125377    0.412704
 C   -1.459339    1.128427    0.413870
 B   -5.135395    0.000027   -0.000005
 O   -5.782310   -1.137749   -0.413852
 O   -5.782273    1.137839    0.413808
 H    6.742975   -1.088458    0.397119
 H    6.742952    1.088519   -0.397286
 H    3.384832   -2.009688    0.745042
 H    0.920542   -2.005648    0.761876
 H    0.920435    2.005579   -0.761760
 H    3.384740    2.009745   -0.744910
 H   -0.920526   -2.005738   -0.761619
 H   -3.384818   -2.009770   -0.744847
 H   -3.384746    2.009761    0.744842
 H   -0.920449    2.005644    0.761605
 H   -6.742982   -1.088258   -0.397819
 H   -6.742948    1.088421    0.397664
