41 
1ke8_ligand_xtb.xyz
 O   -3.495324    0.707932    2.440316
 C   -4.259228    0.533272    1.497726
 N   -5.594878    0.823782    1.493701
 C   -6.172190    0.511387    0.273301
 C   -7.480184    0.652582   -0.139378
 C   -7.793938    0.257766   -1.433337
 C   -6.826014   -0.261047   -2.280736
 C   -5.511053   -0.402657   -1.864279
 C   -5.178729   -0.013749   -0.577957
 C   -3.943206   -0.014652    0.170570
 C   -2.692164   -0.412290   -0.183889
 N   -1.668565   -0.317169    0.686130
 C   -0.348317   -0.657308    0.518291
 C    0.156914   -1.217163   -0.661465
 C    1.498335   -1.529259   -0.758334
 C    2.335428   -1.285887    0.312305
 C    1.860331   -0.738766    1.489902
 C    0.522679   -0.427572    1.593639
 S    4.057516   -1.659664    0.144694
 O    4.751169   -1.467571    1.378647
 O    4.255236   -2.881664   -0.572735
 N    4.559565   -0.458012   -0.976531
 C    4.521646    0.841202   -0.588426
 S    5.610710    2.048045   -1.269776
 C    4.815400    3.225466   -0.283234
 C    3.843274    2.640106    0.452459
 N    3.684118    1.303725    0.269048
 H   -6.086900    1.215120    2.280389
 H   -8.235132    1.055882    0.518289
 H   -8.810021    0.357613   -1.783911
 H   -7.102212   -0.558984   -3.280979
 H   -4.763984   -0.807127   -2.529957
 H   -2.497079   -0.809292   -1.170257
 H   -1.947726    0.074814    1.593753
 H   -0.492178   -1.409086   -1.500386
 H    1.908136   -1.968461   -1.653529
 H    2.552916   -0.563527    2.295932
 H    0.128334    0.001571    2.502516
 H    5.297845   -0.738413   -1.602584
 H    5.115293    4.252049   -0.317581
 H    3.196873    3.139312    1.150412
