59 
1ksn_ligand_dft.xyz
 C   -5.706185   -0.820209    0.016293
 C   -4.899131    0.322007   -0.004438
 C   -5.522706    1.512552   -0.390499
 C   -6.858720    1.544210   -0.725998
 N   -7.628864    0.415553   -0.698825
 C   -7.039137   -0.760101   -0.326746
 C   -1.676505   -0.589851    1.745240
 C   -0.741445    0.172860    1.044829
 C   -1.176478    0.978971   -0.009279
 C   -2.522577    1.026282   -0.346627
 C   -3.466178    0.272534    0.359594
 C   -3.021104   -0.536308    1.412468
 C    0.699518    0.040698    1.436611
 N    1.523093    1.035040    1.038691
 C    2.962410    0.984746    1.228573
 C    3.391572    1.783990    2.459623
 C    3.686334    1.438729   -0.055212
 C    3.397768    2.893090   -0.367328
 O    4.486608    3.554593   -0.762985
 C    3.300024    0.604447   -1.304456
 C    2.402248   -1.706237   -0.860922
 C    2.566911   -3.064968   -0.588384
 C    3.854831   -3.600355   -0.562529
 C    4.955934   -2.785438   -0.804624
 C    4.779148   -1.430507   -1.063445
 C    3.497307   -0.876477   -1.091346
 C    1.380969   -3.938078   -0.313576
 N    1.250285   -5.153743   -0.702648
 N    0.368291   -3.319501    0.379841
 O    2.295726    3.404429   -0.310503
 O    1.101592   -0.942714    2.060227
 C    4.281085    4.921210   -1.133359
 O   -8.855493    0.457887   -1.010045
 H   -5.289660   -1.787154    0.278852
 H   -4.970041    2.446343   -0.410112
 H   -7.399296    2.432829   -1.021342
 H   -7.711557   -1.606777   -0.340627
 H   -1.329548   -1.218751    2.558441
 H   -0.468439    1.550983   -0.602731
 H   -2.839544    1.629121   -1.192741
 H   -3.738364   -1.112271    1.990022
 H    1.155670    1.898534    0.661305
 H    3.206763   -0.067449    1.391560
 H    2.908133    1.371387    3.348964
 H    3.105242    2.837629    2.369505
 H    4.476426    1.728199    2.599506
 H    4.762504    1.332739    0.114228
 H    2.253002    0.806639   -1.551622
 H    3.906538    0.953190   -2.148653
 H    1.397469   -1.295149   -0.894038
 H    3.993836   -4.652445   -0.330492
 H    5.956164   -3.207397   -0.779998
 H    5.644274   -0.796307   -1.245246
 H    2.034821   -5.415677   -1.297871
 H    0.617829   -2.613011    1.067710
 H   -0.372126   -3.950516    0.654343
 H    3.556979    4.990934   -1.948075
 H    5.255814    5.288021   -1.451753
 H    3.914658    5.494555   -0.278866
