34 
1kti_ligand_xtb.xyz
 C    0.145086   -0.240236    0.489318
 C    0.819312   -1.424026   -0.236104
 O    0.455316   -2.672500    0.288597
 C    2.344559   -1.324945   -0.076724
 O    2.996058   -2.282090   -0.874327
 C    2.857240    0.061405   -0.472175
 O    4.229668    0.181693   -0.219434
 C    2.100963    1.110375    0.347078
 O    0.703372    0.991113    0.127439
 C    2.488367    2.536360   -0.057208
 O    1.845698    3.496148    0.732794
 N   -1.248462   -0.088311    0.127329
 C   -2.232534   -0.922568    0.476127
 O   -2.090138   -2.008020    1.008974
 N   -3.531179   -0.490451    0.166251
 C   -3.934289    0.690989   -0.405932
 C   -5.428276    0.792153   -0.560108
 O   -3.161206    1.556033   -0.749242
 H    0.234960   -0.413957    1.580562
 H    0.565672   -1.361959   -1.308581
 H   -0.472540   -2.646615    0.594972
 H    2.583989   -1.502009    0.985691
 H    2.545631   -3.123252   -0.727182
 H    2.646921    0.219304   -1.542722
 H    4.649808   -0.615990   -0.567524
 H    2.326094    0.961794    1.413885
 H    2.245025    2.675140   -1.119380
 H    3.561443    2.663358    0.088681
 H    0.896229    3.334823    0.672189
 H   -1.497758    0.800236   -0.306310
 H   -4.238024   -1.165660    0.429054
 H   -5.677853    1.741342   -1.025154
 H   -5.795759   -0.021908   -1.181183
 H   -5.909056    0.730613    0.413892
