51 
1ktt_ligand_xtb.xyz
 N   -8.239487   -1.257862    1.322049
 C   -7.149243   -1.695974    0.844214
 N   -6.803637   -3.019875    0.740239
 C   -6.179166   -0.718086    0.309435
 C   -6.217699    0.590434    0.781803
 C   -5.327889    1.535093    0.308005
 C   -4.384701    1.196181   -0.653732
 C   -4.355682   -0.106253   -1.137467
 C   -5.241955   -1.054448   -0.664259
 C   -3.391390    2.203599   -1.176866
 C   -2.001452    1.713574   -0.965720
 N   -1.233757    1.248222   -1.910847
 C   -0.067488    0.877911   -1.295848
 C   -0.164551    1.144782    0.090666
 N   -1.419681    1.676242    0.272789
 C   -2.007950    2.102885    1.509791
 C    0.887414    0.874892    0.949907
 C    2.034436    0.333892    0.407407
 C    2.132662    0.046137   -0.960685
 C    1.085386    0.314725   -1.826894
 N    3.328998   -0.488901   -1.448193
 S    4.253319   -1.582620   -0.571746
 C    5.341831   -0.505647    0.352335
 C    6.096438    0.418906   -0.341633
 C    6.955472    1.249631    0.358452
 C    7.049541    1.141570    1.737764
 C    6.290903    0.205124    2.422155
 C    5.430035   -0.627453    1.724616
 O    3.447501   -2.341328    0.338621
 O    5.024990   -2.278685   -1.559007
 H   -8.867754   -1.978377    1.669973
 H   -7.383161   -3.696418    1.210115
 H   -5.842568   -3.278339    0.600931
 H   -6.961083    0.844020    1.520370
 H   -5.372249    2.547918    0.684175
 H   -3.629044   -0.368371   -1.892473
 H   -5.217424   -2.051006   -1.080468
 H   -3.533335    3.166435   -0.681074
 H   -3.530568    2.334347   -2.251396
 H   -2.944163    1.570353    1.691571
 H   -1.316589    1.892797    2.322817
 H   -2.212030    3.176738    1.490874
 H    0.828668    1.078513    2.008697
 H    2.874846    0.110640    1.042847
 H    1.156382    0.099525   -2.881240
 H    3.326724   -0.711325   -2.431740
 H    6.005045    0.471523   -1.414486
 H    7.551900    1.978361   -0.169176
 H    7.720840    1.789363    2.281737
 H    6.371132    0.121965    3.495413
 H    4.824619   -1.370272    2.220645
