40 
1kv1_ligand_xtb.xyz
 C    0.440742    0.350645   -0.021082
 O    0.329322   -0.850204   -0.021722
 N    1.639751    1.034167   -0.021789
 C    2.931604    0.506420   -0.013431
 C    3.999289    1.403760   -0.009256
 C    5.303235    0.950227    0.000804
 C    5.548771   -0.413373    0.006911
 C    4.498554   -1.316787    0.002008
 C    3.194078   -0.861255   -0.008200
 N   -0.632398    1.214049   -0.019880
 C   -1.961422    0.807807   -0.010998
 C   -2.548140   -0.437303   -0.018004
 C   -3.933090   -0.177431   -0.000854
 N   -4.160945    1.122842    0.015421
 N   -2.963616    1.722801    0.009302
 C   -2.870698    3.153330    0.024385
 C   -4.905497   -2.080628   -1.238031
 C   -6.395913   -0.487547   -0.008142
 C   -4.914650   -2.052021    1.267852
 C   -5.039171   -1.192033    0.004278
Cl    7.180489   -0.987422    0.020963
 H    1.607795    2.043788   -0.024368
 H    3.808257    2.468008   -0.013663
 H    6.124217    1.649544    0.004050
 H    4.698660   -2.376468    0.006292
 H    2.374388   -1.559171   -0.011917
 H   -0.477195    2.210724   -0.017579
 H   -2.041027   -1.376923   -0.032772
 H   -2.344560    3.507434    0.915632
 H   -2.366822    3.527956   -0.871300
 H   -3.888879    3.535956    0.041439
 H   -4.978879   -1.479734   -2.141824
 H   -3.946997   -2.593070   -1.242572
 H   -5.697643   -2.826164   -1.252491
 H   -6.493163    0.154542    0.862474
 H   -6.489176    0.132263   -0.895264
 H   -7.200150   -1.219942   -0.000987
 H   -3.953033   -2.558094    1.294505
 H   -5.001697   -1.431035    2.156715
 H   -5.702688   -2.801690    1.290208
