14 
1kv5_ligand_dft.xyz
 P    1.259959    0.003691   -0.149516
 O    0.173396    0.648843    0.884166
 O    1.086677    0.525764   -1.517730
 O    1.163406   -1.552382    0.124982
 O    2.652591    0.332132    0.555583
 C   -1.064482    1.057105    0.368007
 C   -1.972178   -0.134040    0.066367
 O   -3.240311    0.166693   -0.233258
 O   -1.602417   -1.281858    0.066102
 H    0.216696   -1.804112    0.148603
 H    3.101571    1.045602    0.083074
 H   -0.939903    1.636095   -0.557067
 H   -1.532661    1.693233    1.126592
 H   -3.391863    1.121884   -0.203467
