24 
1l5q_ligand_dft.xyz
 N   -1.262590    1.084706   -0.000017
 C   -1.863169   -0.188639    0.000034
 C   -2.149644    2.245660   -0.000363
 C    0.113022    1.376375    0.000349
 N   -1.002695   -1.277042   -0.000070
 O   -3.073282   -0.325039    0.000295
 C   -1.537648   -2.630735    0.000071
 C    0.355426   -1.077648   -0.000039
 C    0.901228    0.181017    0.000181
 N    1.307030   -2.042968   -0.000215
 O    0.525821    2.526181   -0.000067
 N    2.266809   -0.016206   -0.000157
 C    2.440633   -1.355043   -0.000209
 C    3.285176    1.017997    0.000257
 H   -1.959098    2.854167    0.886213
 H   -1.957077    2.855065   -0.885864
 H   -3.174775    1.884821   -0.001660
 H   -1.193153   -3.166226   -0.888062
 H   -1.194944   -3.165459    0.889375
 H   -2.623016   -2.556594   -0.001007
 H    3.427435   -1.798421   -0.000352
 H    3.178154    1.647321   -0.884804
 H    3.180589    1.644388    0.887710
 H    4.265561    0.538472   -0.001852
