23 
1lah_ligand_xtb.xyz
 N    5.012298    0.298271    0.190004
 C    1.807612    0.685217   -0.197469
 C    1.324635   -0.703549   -0.116039
 O    2.334321   -1.584338    0.016219
 C    0.959748    1.695846   -0.339435
 C   -2.571140    0.690915    0.793259
 C   -3.170657    1.415823   -0.129996
 N   -5.671327   -1.024373   -0.169868
 O    0.174273   -1.065285   -0.156619
 H    5.498001    0.481894    1.059679
 H    4.624717   -0.636927    0.245779
 H    5.701423    0.300739   -0.552305
 H    2.880004    0.811869   -0.132222
 H    1.979211   -2.485898    0.061879
 H    1.299764    2.715257   -0.400180
 H   -0.103904    1.526076   -0.395250
 H   -1.845888   -0.066855    0.544618
 H   -2.780158    0.825667    1.842923
 H   -3.896264    2.175821    0.115063
 H   -2.962976    1.284454   -1.180341
 H   -5.055489   -0.218564   -0.182784
 H   -5.314117   -1.685195   -0.849609
 H   -5.581056   -1.454149    0.743077
