23 
1lan_ligand_dft.xyz
 N    0.697376    1.670418   -0.363966
 C    0.607482    0.302506    0.270486
 C    2.002597   -0.293373    0.077245
 O    2.916979    0.370454   -0.355144
 C   -0.537065   -0.516517   -0.321902
 C   -1.926425    0.134721   -0.196413
 C   -2.283195    0.473342    1.253854
 C   -2.971501   -0.798823   -0.814085
 O    2.057600   -1.553120    0.454592
 H    0.351184    1.653837   -1.328792
 H    1.703083    1.921478   -0.403856
 H    0.166752    2.380272    0.146767
 H    0.457613    0.463359    1.342106
 H   -0.315219   -0.735977   -1.375199
 H   -0.534871   -1.478859    0.200741
 H   -1.937278    1.067671   -0.783877
 H   -2.243799   -0.421733    1.885139
 H   -3.298103    0.875482    1.312357
 H   -1.620964    1.227017    1.700621
 H   -3.024876   -1.741808   -0.258777
 H   -2.737848   -1.031600   -1.857971
 H   -3.962035   -0.337092   -0.786630
 H    2.966735   -1.884775    0.344443
