54 
1ld8_ligand_xtb.xyz
 C   15.416604  134.357923   -2.901302
 C   15.586756  135.713222   -2.513530
 C   14.103429  133.878935   -3.147497
 C   16.502666  133.475845   -3.048558
 N   16.863925  136.153170   -2.105950
 C   14.506711  136.560491   -2.471559
 C   13.926135  132.510906   -3.451228
 C   13.019976  134.777349   -3.089560
 C   16.289718  132.146500   -3.299457
 C   17.507361  137.337721   -2.638922
 C   17.607996  135.499097   -1.178831
 C   13.223569  136.094106   -2.781939
 C   14.985777  131.653963   -3.501311
 O   17.321083  131.256849   -3.459706
 C   18.633622  137.621178   -1.644636
 C   18.945026  136.247953   -1.038612
 C   18.510646  131.455818   -2.824121
 C   19.673470  131.187604   -3.564811
 C   18.615930  131.794734   -1.476838
 C   20.068985  135.151021    0.869375
 C   20.922621  131.276206   -2.952229
 C   19.577501  130.846712   -4.932321
 C   19.860889  131.849753   -0.868528
 C   19.064424  134.222297    1.476206
 C   21.011284  131.604435   -1.617434
 N   19.522988  130.587187   -6.047544
 C   20.018257  132.049403    0.622835
 N   19.032661  132.863567    1.275806
 C   17.999297  134.493157    2.293343
 C   17.957504  132.404534    1.966534
 N   17.321717  133.354864    2.585772
 O   17.278875  134.497236   -0.585623
 N   19.503513  136.360683    0.288117
 H   17.514492  133.841696   -2.967055
 H   14.635947  137.589197   -2.169570
 H   12.925350  132.147925   -3.633153
 H   12.025574  134.407024   -3.290083
 H   16.800665  138.165232   -2.723155
 H   17.902572  137.121958   -3.640462
 H   12.392666  136.782430   -2.744211
 H   14.859798  130.604207   -3.714394
 H   18.285841  138.283374   -0.850804
 H   19.500980  138.076390   -2.115814
 H   19.677337  135.711800   -1.659262
 H   17.723686  132.013522   -0.908358
 H   20.639827  134.640993    0.088661
 H   20.773229  135.484453    1.644554
 H   21.810439  131.079288   -3.534127
 H   21.980278  131.656096   -1.143183
 H   21.012855  132.460841    0.827650
 H   19.975581  131.054558    1.086484
 H   17.675471  135.436992    2.686595
 H   17.689736  131.366370    1.994595
 H   18.815760  136.748233    0.926151
