28 
1lev_ligand_dft.xyz
 O    7.791700  -33.535670    5.469773
 C    8.600530  -32.890398    6.340156
 O    9.220659  -33.498746    7.169499
 C    8.635515  -31.381438    6.159121
 C    9.209429  -30.973574    4.782195
 C    8.712624  -29.630306    4.339063
 C    9.305746  -28.337282    4.534223
 C    7.533396  -29.398430    3.660442
 C    6.452385  -30.259582    3.186110
 O    6.558032  -31.565462    3.538181
 O    5.514757  -29.851977    2.537424
 N    7.385526  -28.050285    3.412109
 C    8.447860  -27.379980    3.930509
 C    8.711179  -26.004550    3.914393
 C    9.869821  -25.597137    4.534304
Cl   10.273869  -23.900690    4.559895
 C   10.751916  -26.498167    5.163323
 C   10.468770  -27.845889    5.162272
Cl   11.575272  -28.918469    5.979044
 H    7.361300  -32.891546    4.884471
 H    9.226308  -30.948004    6.967552
 H    7.609406  -31.004441    6.251749
 H    8.931734  -31.710084    4.024153
 H   10.298954  -30.979959    4.829579
 H    5.788647  -32.004593    3.138177
 H    6.599815  -27.666450    2.909465
 H    8.040166  -25.296255    3.442904
 H   11.645687  -26.127635    5.649916
