110 
1lf3_ligand_dft.xyz
 C   17.537308    3.965629   27.388292
 C   18.141017    2.640889   26.879233
 C   18.097386    1.512294   27.886618
 C   18.441672    1.708540   29.228649
 C   17.671746    0.242597   27.491411
 C   18.346180    0.669855   30.147794
 C   17.599984   -0.807893   28.403907
 C   17.931260   -0.594847   29.737956
 N   16.321314    3.723565   28.139320
 C   17.280781    4.936339   26.236317
 C   16.890793    6.317143   26.770261
 N   16.322673    7.169384   25.730247
 O   16.238546    4.377187   25.450573
 C   14.885639    7.423978   25.799277
 C   14.424261    8.327537   26.950648
 C   17.195427    7.793464   24.884073
 C   16.634574    8.770066   23.860650
 O   18.400698    7.576971   24.941730
 C   17.762762    9.503715   23.140335
 C   16.212628    4.048883   29.457669
 O   16.955903    4.865444   29.992163
 C   15.403345   13.129962   18.895242
 C   15.904835   11.840225   19.090574
 C   16.353650   11.521397   20.358452
 C   16.309319   12.441235   21.399885
 C   15.814032   13.719048   21.219836
 C   15.358422   14.053497   19.941845
 C   16.928244   10.247975   20.886498
 N   17.228002   10.499499   22.229999
 C   16.855702   11.783640   22.622410
 O   16.965222   12.232420   23.742325
 O   17.105378    9.196824   20.317133
 C   16.338171    9.981195   27.412834
 C   16.790591   11.428972   27.217343
 C   15.872209   12.425631   27.930939
 C   14.383076   12.142821   27.718746
 C   13.967201   10.680961   27.729623
 C   14.900619    9.785637   26.906762
 O   15.978574   13.730498   27.377895
 C   15.096041   13.763285   26.278457
 O   14.170695   12.704533   26.428893
 C   13.285552    2.020463   31.821063
 C   13.826245    1.377970   30.700348
 C   14.761968    2.035798   29.901080
 C   15.141281    3.337868   30.224030
 C   14.605026    3.990389   31.330410
 C   13.673476    3.332032   32.128489
 O   12.424989    1.328700   32.621768
 O   13.399037    0.111979   30.493007
 O   13.111478    3.857690   33.247129
 C   13.499939    5.160154   33.624660
 C   14.144511   -0.690722   29.604546
 C   12.993691    0.912827   33.872320
 C   16.842944   -0.918355   33.261516
 C   15.678487   -1.616095   32.942743
 C   14.435702   -1.033482   33.163432
 C   14.339783    0.249749   33.706259
 C   15.510386    0.941734   34.014525
 C   16.757942    0.362991   33.796338
 H   18.223796    4.450625   28.088047
 H   19.175878    2.838802   26.571511
 H   17.600837    2.339273   25.975018
 H   18.749640    2.692573   29.572298
 H   17.393377    0.073213   26.453755
 H   18.580996    0.851204   31.192168
 H   17.271134   -1.788999   28.072270
 H   17.849891   -1.402157   30.459648
 H   15.637528    3.108225   27.726414
 H   18.197178    5.033549   25.638500
 H   17.767537    6.803333   27.207423
 H   16.141121    6.196476   27.554791
 H   16.106493    4.968921   24.699845
 H   14.395896    6.448512   25.897614
 H   14.553351    7.845931   24.847612
 H   14.709664    7.879860   27.912389
 H   13.326383    8.308218   26.925038
 H   15.990718    9.506410   24.348899
 H   16.017106    8.235561   23.127760
 H   18.375138    8.811911   22.561538
 H   18.405777   10.012800   23.859999
 H   15.041217   13.420687   17.914037
 H   15.943454   11.113845   18.285582
 H   15.783059   14.427464   22.041067
 H   14.961849   15.047041   19.757696
 H   16.373845    9.704831   28.477807
 H   17.040599    9.316189   26.903896
 H   16.796888   11.656292   26.144938
 H   17.816918   11.569176   27.571829
 H   16.122542   12.500341   28.993601
 H   13.798356   12.702762   28.465212
 H   12.936832   10.609446   27.361877
 H   13.958278   10.334273   28.772947
 H   14.843091   10.148049   25.871071
 H   15.625454   13.616874   25.328582
 H   14.587805   14.736364   26.291483
 H   15.256157    1.508131   29.092930
 H   14.960570    4.987221   31.559163
 H   13.245085    5.894514   32.850502
 H   12.941952    5.386613   34.533910
 H   14.575936    5.215812   33.832920
 H   15.199156   -0.730662   29.899364
 H   13.706423   -1.688207   29.666141
 H   14.071389   -0.331787   28.569479
 H   12.258414    0.217111   34.283877
 H   13.073380    1.776913   34.540793
 H   17.814856   -1.375575   33.096245
 H   15.741184   -2.616986   32.524780
 H   13.527082   -1.565013   32.895431
 H   15.442321    1.949250   34.417438
 H   17.661153    0.914111   34.041387
