104 
1lf3_ligand_xtb.xyz
 C    4.388308   -1.490970    0.053346
 C    5.219106   -2.749327   -0.271246
 C    6.666715   -2.551484    0.067853
 C    7.613378   -2.332350   -0.924212
 C    7.076393   -2.561282    1.396427
 C    8.942937   -2.129338   -0.596408
 C    8.404138   -2.358694    1.725484
 C    9.341330   -2.141449    0.729028
 N    2.980949   -1.790222   -0.033900
 C    4.717729   -0.359418   -0.942415
 C    4.252584    1.029539   -0.469547
 N    2.810146    1.197090   -0.326453
 O    4.193307   -0.721855   -2.198669
 C    2.301808    1.277785    1.028454
 C    2.620246    2.628126    1.703444
 C    2.121081    1.502537   -1.447381
 C    0.631054    1.765889   -1.349407
 O    2.674526    1.510944   -2.540745
 C   -0.123151    0.430918   -1.277326
 C    2.211905   -2.067746    1.037241
 O    2.634402   -2.036406    2.180241
 C   -6.014212    0.886704   -0.066372
 C   -5.125053    0.511606   -1.068414
 C   -3.777795    0.604718   -0.795106
 C   -3.320037    1.060031    0.444262
 C   -4.200098    1.424666    1.440414
 C   -5.560472    1.329038    1.165576
 C   -2.598684    0.288323   -1.631396
 N   -1.492747    0.611808   -0.849883
 C   -1.842413    1.041201    0.417179
 O   -1.053236    1.326457    1.288713
 O   -2.541744   -0.156794   -2.748029
 C    2.593093    4.457360   -0.011275
 C    1.969842    5.470508   -0.736761
 C    0.667423    5.757526   -0.413451
 C    0.000456    5.066141    0.599767
 C    0.612015    4.070466    1.318064
 C    1.940137    3.764165    0.996023
 O   -0.176929    6.689595   -0.959197
 C   -1.391346    6.571679   -0.252310
 O   -1.280131    5.544607    0.709002
 C   -1.953602   -2.413232    0.100544
 C   -1.011414   -2.933815   -0.795026
 C    0.348631   -2.866052   -0.473368
 C    0.772586   -2.297504    0.711659
 C   -0.162952   -1.831020    1.630835
 C   -1.512196   -1.877182    1.330486
 O   -3.292390   -2.337607   -0.233330
 O   -1.247118   -3.505126   -1.999578
 O   -2.489887   -1.399724    2.152528
 C   -2.107464   -0.828966    3.384394
 C   -2.536457   -3.536173   -2.573617
 C   -4.181961   -3.113440    0.564811
 C   -8.201755   -1.834149   -0.180693
 C   -7.398649   -2.253736   -1.227818
 C   -6.099729   -2.662544   -0.985957
 C   -5.588290   -2.651822    0.305455
 C   -6.392053   -2.212676    1.347594
 C   -7.694733   -1.811881    1.107084
 H    4.600153   -1.176588    1.080161
 H    4.812161   -3.575449    0.315907
 H    5.098549   -2.972442   -1.331931
 H    7.305711   -2.325127   -1.960036
 H    6.346867   -2.736027    2.174279
 H    9.670092   -1.963020   -1.377912
 H    8.710551   -2.373331    2.761354
 H   10.379009   -1.985633    0.985171
 H    2.616847   -1.827500   -0.974442
 H    5.817796   -0.299164   -1.016275
 H    4.604819    1.760997   -1.206547
 H    4.726725    1.239077    0.489166
 H    3.785417    0.065562   -2.603440
 H    1.224333    1.126731    1.041048
 H    2.759282    0.475846    1.611725
 H    3.698735    2.792087    1.715864
 H    2.270353    2.566878    2.734054
 H    0.392475    2.375655   -0.481428
 H    0.339621    2.307747   -2.250319
 H   -0.154618   -0.051001   -2.256970
 H    0.370916   -0.236913   -0.567074
 H   -7.075693    0.825948   -0.251206
 H   -5.473176    0.160127   -2.026433
 H   -3.841285    1.776226    2.395119
 H   -6.276061    1.606658    1.925094
 H    3.617903    4.211840   -0.244166
 H    2.482271    6.003876   -1.518906
 H    0.082522    3.529435    2.084355
 H   -1.618583    7.525520    0.251762
 H   -2.205904    6.331750   -0.954508
 H    1.038694   -3.283387   -1.189250
 H    0.201556   -1.404700    2.549957
 H   -1.571443   -1.549305    4.009116
 H   -1.489306    0.059287    3.229322
 H   -3.039349   -0.547643    3.872637
 H   -2.950413   -2.531448   -2.675077
 H   -2.390786   -3.973223   -3.561551
 H   -3.219044   -4.168164   -1.999728
 H   -4.078084   -4.176976    0.288702
 H   -3.940733   -3.007957    1.625522
 H   -9.219736   -1.525114   -0.368204
 H   -7.788200   -2.268554   -2.235160
 H   -5.472568   -2.989457   -1.801238
 H   -5.997778   -2.190855    2.353051
 H   -8.315694   -1.481779    1.927097
