87 
1lf9_ligand_xtb.xyz
 C    4.080346    4.599507  -25.821597
 C    2.701328    5.264383  -25.700886
 C    1.877103    4.470550  -24.684686
 C    1.788429    3.012105  -25.166872
 C    3.201539    2.445578  -25.375945
 C    3.201525    1.029153  -25.959674
 O    4.724435    4.668711  -24.593781
 O    2.844987    6.604632  -25.337274
 O    0.610771    5.074656  -24.584138
 O    1.109244    2.243975  -24.189084
 O    3.940107    3.268712  -26.267437
 O    3.408798    0.101619  -24.917321
 C   -0.202504    1.857515  -24.464717
 C   -1.028478    2.042929  -23.184037
 C   -0.438203    1.148929  -22.084981
 C   -0.428263   -0.301970  -22.579079
 C    0.258214   -0.392203  -23.954228
 C    0.111910   -1.790674  -24.560597
 O   -1.003934    3.393896  -22.800951
 O   -1.159173    1.346230  -20.888111
 O    0.311775   -1.172838  -21.739750
 O   -0.283656    0.526122  -24.889519
 O   -1.220284   -2.234887  -24.444845
 C   -0.244310   -1.447415  -20.465882
 O    2.017700   -2.107450  -19.844754
 C    0.674145   -2.514904  -19.855352
 C   -1.648935   -9.004128  -22.745008
 C    0.515481   -3.819321  -20.644901
 O    1.339311   -4.817474  -20.069381
 C   -0.963456   -4.252579  -20.651332
 N   -1.250965   -5.414645  -21.459147
 C   -1.811104   -3.088321  -21.200569
 O   -1.568400   -1.861000  -20.505208
 C   -3.295357   -3.389312  -21.061178
 C   -0.903103   -6.727446  -20.914551
 C    0.112008   -7.463104  -21.800348
 O    1.164610   -6.615131  -22.207512
 C   -0.540084   -8.005955  -23.077762
 O    0.427773   -8.653329  -23.864453
 O   -2.418200   -9.205108  -23.906818
 C   -2.510141   -8.522863  -21.597322
 C   -2.163308   -7.537018  -20.783277
 C   -3.839760   -9.224284  -21.454620
 O   -3.720055  -10.586191  -21.825951
 H    4.658075    5.099803  -26.611900
 H    2.206401    5.186941  -26.684429
 H    2.393104    4.491628  -23.713968
 H    1.245639    2.987505  -26.121603
 H    3.698428    2.405669  -24.396563
 H    2.249807    0.828382  -26.468630
 H    4.014397    0.982537  -26.694666
 H    5.631691    4.356452  -24.692591
 H    1.996639    6.879831  -24.964274
 H    0.073991    4.567993  -23.951969
 H    3.521938   -0.773863  -25.302661
 H   -0.637987    2.449901  -25.280290
 H   -2.064894    1.728238  -23.392396
 H    0.586504    1.477103  -21.878277
 H   -1.465802   -0.653827  -22.666701
 H    1.326046   -0.174916  -23.811935
 H    0.413600   -1.723264  -25.610787
 H    0.788767   -2.474649  -24.030592
 H   -1.102762    3.417834  -21.837564
 H   -1.982037    0.841119  -20.923111
 H   -1.380774   -2.929276  -25.091961
 H   -0.238403   -0.542701  -19.841250
 H    2.191527   -1.661980  -20.685080
 H    0.388285   -2.686721  -18.811694
 H   -1.166789   -9.949625  -22.448241
 H    0.838710   -3.636175  -21.683706
 H    2.133804   -4.368422  -19.746121
 H   -1.268294   -4.466916  -19.621326
 H   -0.850096   -5.307988  -22.384411
 H   -1.558656   -2.958054  -22.261279
 H   -3.569437   -3.388422  -20.010032
 H   -3.882002   -2.635560  -21.577215
 H   -3.493460   -4.366612  -21.488743
 H   -0.460734   -6.592807  -19.919295
 H    0.518054   -8.319364  -21.236680
 H    1.428542   -6.088859  -21.433134
 H   -0.991262   -7.174928  -23.642188
 H    1.206701   -8.082097  -23.867357
 H   -2.978372   -9.973515  -23.738361
 H   -2.828479   -7.227568  -19.988971
 H   -4.190337   -9.133468  -20.419167
 H   -4.569763   -8.721909  -22.109638
 H   -4.552183  -11.033101  -21.643410
