54 
1lfo_ligand_dft.xyz
 C   -7.044045    2.150481    0.045499
 O   -6.936508    2.348809    1.381681
 O   -8.123450    1.964746   -0.446827
 C   -5.738359    2.189408   -0.733645
 C   -4.666239    1.221199   -0.211764
 C   -5.138155   -0.233910   -0.178173
 C   -4.095444   -1.214460    0.366044
 C   -2.825937   -1.326224   -0.480527
 C   -1.869220   -2.405155    0.026100
 C   -0.581065   -2.502129   -0.802959
 C    0.319649   -3.610709   -0.331647
 C    1.438883   -3.487044    0.384298
 C    2.083283   -2.210298    0.848768
 C    3.352769   -1.873503    0.054132
 C    4.054002   -0.611482    0.554963
 C    5.314222   -0.266836   -0.238221
 C    6.016321    0.995882    0.261517
 C    7.271028    1.339414   -0.543356
 C    8.057374    2.539734   -0.006329
 C    7.285747    3.859164   -0.049646
 H   -6.011586    2.488074    1.624144
 H   -5.355775    3.218579   -0.714532
 H   -5.989959    1.953301   -1.770014
 H   -4.327544    1.516069    0.793715
 H   -3.785613    1.320627   -0.855403
 H   -5.433484   -0.536060   -1.192129
 H   -6.043795   -0.303093    0.438008
 H   -4.557993   -2.206921    0.442473
 H   -3.823353   -0.925830    1.391478
 H   -2.296593   -0.363768   -0.497331
 H   -3.102457   -1.543600   -1.522398
 H   -2.379604   -3.378144    0.022643
 H   -1.602592   -2.203098    1.072113
 H   -0.061841   -1.537016   -0.778307
 H   -0.848055   -2.679626   -1.853890
 H   -0.012634   -4.617056   -0.587710
 H    1.977161   -4.397885    0.648049
 H    2.346254   -2.308788    1.911192
 H    1.382806   -1.369567    0.784449
 H    3.087174   -1.755127   -1.004819
 H    4.048382   -2.722841    0.102287
 H    4.314767   -0.736711    1.615656
 H    3.353883    0.235203    0.510453
 H    5.052802   -0.141274   -1.298618
 H    6.013714   -1.113724   -0.194548
 H    6.288310    0.866679    1.319291
 H    5.307716    1.834086    0.226931
 H    6.988055    1.530358   -1.588616
 H    7.931169    0.461612   -0.560345
 H    8.980022    2.645703   -0.590428
 H    8.369656    2.333199    1.026326
 H    6.932060    4.071902   -1.065635
 H    6.411751    3.839755    0.609844
 H    7.917991    4.695340    0.266527
