24 
1lgt_ligand_dft.xyz
 C    0.490846   -0.589325   -0.164389
 C    1.357016    0.208454    0.581281
 O    0.865831    1.059981    1.511909
 C    2.739948    0.116971    0.373880
 O    3.489884    0.951150    1.161795
 C    3.261224   -0.766209   -0.557647
 C    2.397127   -1.575208   -1.295381
 C    1.027103   -1.486300   -1.095357
 C   -0.978827   -0.520633    0.053943
 C   -1.755107    0.581639   -0.318548
 C   -3.130399    0.606925   -0.112338
 C   -3.759052   -0.487194    0.470896
 C   -3.012714   -1.601412    0.839832
 C   -1.638952   -1.610246    0.630285
Cl   -1.016388    1.961714   -1.098574
 H    1.612123    1.555365    1.878489
 H    4.422895    0.860427    0.938994
 H    4.337213   -0.825833   -0.705739
 H    2.800313   -2.268483   -2.025986
 H    0.347208   -2.105421   -1.672485
 H   -3.699735    1.478923   -0.415109
 H   -4.832487   -0.465545    0.631574
 H   -3.497058   -2.460468    1.293358
 H   -1.046871   -2.471924    0.924299
