24 
1lgt_ligand_xtb.xyz
 C    0.462771   -0.652866   -0.106553
 C    1.309077    0.246818    0.539453
 O    0.803330    1.197554    1.364111
 C    2.693498    0.142582    0.352691
 O    3.470805    1.063985    1.016345
 C    3.220385   -0.845632   -0.457156
 C    2.374765   -1.748698   -1.082211
 C    1.009561   -1.653532   -0.903731
 C   -0.998638   -0.546060    0.065644
 C   -1.700287    0.590436   -0.329577
 C   -3.070593    0.685088   -0.153235
 C   -3.761613   -0.368373    0.418202
 C   -3.084991   -1.514639    0.799989
 C   -1.716500   -1.599408    0.622359
Cl   -0.868355    1.892829   -1.099435
 H    1.543277    1.725748    1.693957
 H    4.396949    0.911666    0.801794
 H    4.291321   -0.910181   -0.594802
 H    2.789095   -2.522274   -1.709759
 H    0.344595   -2.346507   -1.396291
 H   -3.587978    1.578217   -0.467455
 H   -4.829178   -0.293387    0.559015
 H   -3.623182   -2.341451    1.238594
 H   -1.180557   -2.486544    0.926459
