14 
1lgw_ligand_xtb.xyz
 C   -1.936876    0.559030    0.001729
 C   -1.817712   -0.820333   -0.004088
 C   -0.794629    1.343601    0.003465
 C   -0.573851   -1.422163   -0.006541
 C    0.438389    0.731851    0.002993
 C    0.593165   -0.657511    0.000083
 N    1.841285   -1.228381    0.071609
 F    1.563038    1.500519   -0.010049
 H   -2.909387    1.024916    0.001981
 H   -2.703940   -1.436813   -0.009315
 H   -0.848657    2.420808    0.002406
 H   -0.488557   -2.498975   -0.012171
 H    1.923383   -2.188466   -0.216547
 H    2.619902   -0.634315   -0.163020
