13 
1li2_ligand_dft.xyz
 C   -0.939449   -0.024313    0.000285
 C   -0.263934    1.196351    0.000091
 C    1.127949    1.215422   -0.000040
 C    1.851819    0.027639    0.000025
 C    1.167809   -1.187079   -0.000159
 C   -0.220844   -1.220160   -0.000054
 O   -2.297797   -0.111401    0.000299
 H   -0.824328    2.129323   -0.000127
 H    1.645822    2.170041    0.000041
 H    2.936877    0.047149    0.000338
 H    1.720836   -2.121771   -0.000586
 H   -0.765539   -2.158606    0.000128
 H   -2.671386    0.777912   -0.003072
