13 
1li6_ligand_dft.xyz
 C   26.712116    5.962711    4.385876
 C   27.137023    7.054691    5.200014
 C   27.317168    6.127458    3.162652
 C   25.787035    4.851359    4.782485
 C   27.977573    7.837319    4.448148
 N   28.081107    7.266038    3.208682
 H   26.850605    7.237761    6.227083
 H   27.262506    5.525350    2.266852
 H   24.802259    5.233325    5.075813
 H   25.637001    4.148838    3.956451
 H   26.182227    4.283603    5.632886
 H   28.506657    8.747291    4.690133
 H   28.634723    7.623258    2.448926
