13 
1li6_ligand_xtb.xyz
 C    0.684536   -0.004610   -0.001544
 C   -0.142928    1.142473   -0.000705
 C   -0.152544   -1.088954   -0.000869
 C    2.175829   -0.016599    0.000759
 C   -1.440900    0.714552    0.000449
 N   -1.438754   -0.643301    0.000701
 H    0.191533    2.161103   -0.001226
 H    0.075771   -2.136740   -0.001180
 H    2.564826    0.520141   -0.863964
 H    2.560612    0.470294    0.896606
 H    2.547882   -1.037966   -0.026413
 H   -2.356327    1.273144    0.001681
 H   -2.256973   -1.228046    0.001053
