30 
1ljt_ligand_xtb.xyz
 C   -5.375563   -1.788491   -0.612242
 C   -3.657168   -0.323085    0.014607
 O   -3.633773   -0.798841    1.118295
 O   -4.483057   -0.734662   -0.953058
 C   -2.778803    0.804171   -0.475277
 N    0.300301    2.053769   -0.104490
 O   -1.011551    2.349530    0.102172
 C   -1.723218    1.183414    0.563809
 C   -0.642688    0.111301    0.753036
 C    0.569326    0.851404    0.227846
 O    5.675526   -1.378542   -0.274759
 C    2.937758    1.039417   -0.423756
 C    1.891502    0.277874    0.102152
 C    2.150311   -1.036665    0.495909
 C    3.412421   -1.575301    0.366442
 C    4.448872   -0.809654   -0.161455
 C    4.200268    0.503345   -0.554374
 H   -4.815927   -2.690018   -0.355199
 H   -5.991213   -1.501939    0.242329
 H   -5.992678   -1.958992   -1.490168
 H   -3.408965    1.670706   -0.687075
 H   -2.305102    0.509056   -1.414105
 H   -2.217625    1.450620    1.502898
 H   -0.850932   -0.788677    0.173956
 H   -0.514163   -0.169740    1.798181
 H    6.299841   -0.744908   -0.649234
 H    2.734590    2.054307   -0.725178
 H    1.359881   -1.644049    0.909242
 H    3.620261   -2.589484    0.668200
 H    5.004659    1.100476   -0.963797
