62 
1lke_ligand_xtb.xyz
 O    6.955484    0.096092    0.807085
 C    5.891848   -0.134110    0.300653
 C    4.810549    0.791524   -0.064772
 O    5.489057   -1.389321   -0.030559
 C    4.201369   -1.350057   -0.607658
 C    3.796827    0.094300   -0.590066
 C    2.487317    0.626251   -1.062608
 C    1.825047   -0.230899   -2.154936
 C    1.397408    0.717381    0.050067
 C    1.967802    1.073910    1.420885
 C    0.400762    1.806168   -0.403574
 O    1.052176    3.057407   -0.298241
 C    0.708232   -0.673686    0.013696
 C    0.738934   -1.077112   -1.470878
 O    1.501091   -1.640912    0.688657
 C   -0.693656   -0.684811    0.669218
 C   -1.337626   -2.062676    0.501552
 C   -1.615353    0.438620    0.178356
 C   -0.902846    1.774671    0.391392
 C   -3.013311    0.380953    0.846222
 C   -2.932333    0.713283    2.344181
 C   -3.631681   -1.023545    0.665116
 C   -2.697983   -2.118840    1.184161
 C   -4.041022   -1.308971   -0.784749
 C   -5.014612   -0.259605   -1.324893
 O   -6.234655   -0.241776   -0.612049
 C   -4.385236    1.126319   -1.209713
 C   -3.992683    1.403296    0.236204
 H    4.878503    1.848956    0.098580
 H    3.511237   -1.972279   -0.028819
 H    4.266234   -1.757838   -1.622123
 H    2.673481    1.644204   -1.414572
 H    1.379786    0.417612   -2.909600
 H    2.553828   -0.856178   -2.664774
 H    1.190625    1.049964    2.181639
 H    2.376859    2.078861    1.381836
 H    2.762863    0.391211    1.707906
 H    0.147035    1.626484   -1.460585
 H    0.419013    3.751924   -0.506444
 H    0.967154   -2.139737   -1.528526
 H   -0.229300   -0.908723   -1.937682
 H    1.511666   -1.428146    1.628824
 H   -0.521032   -0.530161    1.741652
 H   -1.449803   -2.291591   -0.557529
 H   -0.676919   -2.820571    0.926335
 H   -1.759872    0.313270   -0.898505
 H   -0.688316    1.938740    1.446299
 H   -1.529937    2.598559    0.043734
 H   -2.717225    1.768932    2.488386
 H   -3.887528    0.503403    2.820300
 H   -2.170128    0.136236    2.857350
 H   -4.552128   -1.046411    1.260089
 H   -2.571743   -2.009175    2.262122
 H   -3.151664   -3.096909    1.008197
 H   -4.510177   -2.296933   -0.827346
 H   -3.172647   -1.331768   -1.441454
 H   -5.220361   -0.478882   -2.388145
 H   -6.604826   -1.130597   -0.610755
 H   -5.115730    1.870369   -1.529905
 H   -3.524667    1.185248   -1.877122
 H   -4.909300    1.373852    0.827656
 H   -3.586715    2.411967    0.316699
