77 
1lpg_ligand_dft.xyz
 C    4.010960   -0.991678   -0.371805
 C    3.725730    0.246524   -1.005216
 C    2.483467    0.827954   -0.928877
 C    1.492361    0.152743   -0.198185
 C    1.755704   -1.081545    0.427742
 C    3.038348   -1.663159    0.343690
 C    0.542579   -1.480175    1.053772
 N    0.182402    0.500530    0.035288
 C   -0.391525   -0.498251    0.797380
 C   -0.444687    1.696843   -0.513506
 C   -1.776417   -0.432920    1.292432
 N   -2.352712   -1.648769    1.532970
 C   -3.624853   -1.763925    2.214542
 C   -4.822888   -1.723026    1.282817
 O   -2.388673    0.614706    1.500341
 C    0.015479    2.970966    0.162578
 C    1.021042    5.175717    0.028276
 C    0.620559    3.982510   -0.578821
 C   -0.185437    3.152159    1.531112
 C    0.209420    4.337941    2.140697
 C    0.804534    5.349348    1.395019
 C    1.662267    6.274914   -0.753218
 N    2.330537    5.858762   -1.900605
 N    1.513416    7.479544   -0.353682
 C   -6.217750   -0.491293   -0.274714
 C   -7.031276   -1.609500   -0.423439
 C   -6.753279   -2.783722    0.269766
 C   -5.652113   -2.831004    1.116571
 C   -5.121200   -0.555892    0.577626
 N   -8.233595   -1.587778   -1.327145
 C   -9.474800   -1.861258   -0.521055
 C   -8.079183   -2.634655   -2.396967
 C   -8.419945   -0.265794   -2.010380
 O    5.286719   -1.420239   -0.545893
 C    5.684464   -2.612782    0.107705
 C    7.152013   -2.837338   -0.143934
 C    7.621529   -4.096879   -0.509920
 C    8.984111   -4.316232   -0.697837
 C    9.886038   -3.271066   -0.529746
 C    9.421242   -2.007095   -0.170838
 C    8.062300   -1.792170    0.025242
 H    4.532721    0.724978   -1.549755
 H    2.287909    1.783882   -1.402011
 H    3.233643   -2.611715    0.829653
 H    0.396984   -2.349877    1.680755
 H   -1.522574    1.582394   -0.401446
 H   -0.216751    1.734387   -1.584873
 H   -1.876444   -2.482199    1.225272
 H   -3.695676   -0.933770    2.923345
 H   -3.628089   -2.695349    2.787790
 H    0.751579    3.857264   -1.651817
 H   -0.668037    2.368052    2.106710
 H    0.048090    4.477500    3.205271
 H    1.106909    6.284431    1.853796
 H    2.898994    6.565141   -2.348731
 H    2.804354    4.968039   -1.833468
 H    2.019694    8.136811   -0.950497
 H   -6.405063    0.439744   -0.793453
 H   -7.371404   -3.670264    0.172848
 H   -5.446237   -3.751007    1.655954
 H   -4.479431    0.310816    0.705768
 H   -9.405511   -2.849098   -0.069813
 H   -9.550367   -1.104237    0.259570
 H  -10.340232   -1.816977   -1.184147
 H   -7.163738   -2.426358   -2.950811
 H   -8.014787   -3.618712   -1.936753
 H   -8.946258   -2.591196   -3.057979
 H   -8.564061    0.512218   -1.261446
 H   -7.548062   -0.050316   -2.627118
 H   -9.306397   -0.335855   -2.640975
 H    5.095581   -3.463158   -0.264218
 H    5.490403   -2.516181    1.186727
 H    6.918756   -4.914280   -0.653345
 H    9.338181   -5.302157   -0.983450
 H   10.948219   -3.438232   -0.680417
 H   10.121483   -1.187325   -0.041137
 H    7.698157   -0.806698    0.299795
