26 
1lst_ligand_xtb.xyz
 N   -3.598626    2.244403    0.243148
 C   -1.463586    0.037196   -0.726805
 C   -2.098734   -0.879981    0.132370
 O   -1.816850   -1.108127    1.305505
 C   -0.270507    0.766320   -0.278894
 C    0.930266   -0.189483   -0.509119
 C    2.259586    0.462451   -0.033995
 C    3.284122   -0.536965   -0.294528
 N    5.167578    0.246768    0.413499
 O   -3.156952   -1.535688   -0.454074
 H   -2.909954    1.702442   -0.275426
 H   -3.453042    2.026280    1.222735
 H   -4.509179    1.875331   -0.007648
 H   -1.750383    0.044122   -1.765141
 H   -0.112814    1.689157   -0.837724
 H   -0.331159    0.982474    0.788237
 H    0.750514   -1.101119    0.057987
 H    0.998745   -0.437849   -1.568400
 H    2.160397    0.694201    1.025857
 H    2.418076    1.382328   -0.596787
 H    3.307853   -1.411485    0.332278
 H    3.607390   -0.683621   -1.310932
 H    5.071966    0.390235    1.409502
 H    5.917454   -0.404175    0.222813
 H    5.339986    1.128425   -0.049864
 H   -3.544985   -2.121650    0.210355
