36 
1lt6_ligand_dft.xyz
 C    0.797115   -0.529322   -0.814958
 C    2.195371   -1.113225   -0.973173
 C    2.972643   -0.991623    0.340587
 C    2.994132    0.468509    0.795479
 C    1.565124    1.027449    0.818593
 C    1.496655    2.531076    1.050349
 C   -1.241902   -1.174144    0.240687
 C   -1.945700   -0.054253   -0.193267
 C   -3.324028   -0.044802   -0.014989
 C   -4.020765   -1.082912    0.581353
 C   -3.291637   -2.186563    1.017221
 C   -1.915366   -2.237659    0.848483
 N   -4.068846    1.140329   -0.467393
 O    0.108440   -1.310226    0.132926
 O    2.108768   -2.446461   -1.396306
 O    4.278460   -1.497618    0.162894
 O    3.857637    1.137481   -0.101936
 O    0.889226    0.817010   -0.422207
 O    2.115789    3.248443   -0.007432
 O   -5.280954    1.136880   -0.322554
 O   -3.431604    2.058955   -0.960133
 H    0.249344   -0.527857   -1.762919
 H    2.701511   -0.486164   -1.722766
 H    2.490340   -1.619031    1.096346
 H    3.394596    0.525543    1.820426
 H    1.018836    0.520637    1.626486
 H    0.448434    2.835141    1.162930
 H    2.033996    2.795112    1.964999
 H   -1.451299    0.800943   -0.632498
 H   -5.094631   -1.018128    0.698578
 H   -3.805435   -3.018760    1.486777
 H   -1.337953   -3.097118    1.171521
 H    2.992277   -2.816714   -1.255761
 H    4.774576   -0.785246   -0.270272
 H    3.577261    2.067629   -0.159462
 H    1.634121    3.010802   -0.812839
