61 
1lxf_ligand_xtb.xyz
 C    3.958686   12.720959   -3.007938
 C    3.878198   11.520372   -3.961912
 C    4.111008   10.241454   -3.139821
 O    2.951118   12.589407   -2.031045
 N    4.879455   11.650015   -5.006425
 N    3.557961    9.057019   -3.765386
 C    3.056701   13.470712   -0.935732
 C    2.713868   14.939940   -1.259624
 C    1.840377   15.538221   -0.158170
 C    3.968807   15.793097   -1.440765
 C    4.741906   12.856018   -5.823791
 C    5.249689   12.495592   -7.229131
 C    5.773806   11.068472   -7.076159
 C    4.919574   10.530823   -5.937239
 C    4.266907    7.835979   -3.413427
 C    4.210108    7.564793   -1.928263
 C    5.334103    7.711448   -1.127153
 C    5.256557    7.506884    0.239590
 C    4.049435    7.161427    0.821468
 C    2.921703    7.017621    0.030353
 C    3.001823    7.216291   -1.335699
 C    2.175752    8.971993   -3.937448
 C    1.274455    9.833418   -3.304500
 C   -0.083208    9.732126   -3.546183
 C   -0.582950    8.780141   -4.417193
 C    0.301266    7.929463   -5.060328
 C    1.658210    8.025944   -4.830198
 H    4.951638   12.737868   -2.534047
 H    3.823461   13.654137   -3.566808
 H    2.859534   11.495187   -4.390586
 H    5.190468   10.100359   -3.051977
 H    3.711609   10.396755   -2.129022
 H    2.340061   13.075978   -0.210561
 H    4.064567   13.405476   -0.498728
 H    2.141495   14.940058   -2.193546
 H    1.599817   16.573940   -0.387076
 H    0.910213   14.984141   -0.059113
 H    2.363579   15.510692    0.795569
 H    3.696102   16.810157   -1.714691
 H    4.532758   15.830584   -0.510492
 H    4.615081   15.392474   -2.217379
 H    3.695712   13.193395   -5.871588
 H    5.339314   13.655320   -5.376535
 H    4.427766   12.520472   -7.944855
 H    6.020016   13.183081   -7.573360
 H    5.677070   10.481598   -7.987305
 H    6.819998   11.081317   -6.771181
 H    5.360897    9.657019   -5.462459
 H    3.913320   10.261588   -6.297949
 H    3.821432    6.999299   -3.952680
 H    5.309151    7.935086   -3.735419
 H    6.279682    7.982181   -1.576540
 H    6.139877    7.620024    0.851437
 H    3.987145    7.004170    1.888310
 H    1.976755    6.748090    0.479069
 H    2.119941    7.106612   -1.950611
 H    1.625479   10.585840   -2.617230
 H   -0.759105   10.405499   -3.038238
 H   -1.644699    8.704480   -4.598297
 H   -0.068762    7.188813   -5.755279
 H    2.330312    7.368684   -5.362715
