111 
1lyb_ligand_xtb.xyz
 C    5.067381   -2.885127    0.319356
 C    5.681333   -2.715390   -1.076915
 C    7.174715   -2.422139   -0.973670
 C    4.965038   -1.598681   -1.831665
 C    3.642506   -3.387019    0.202168
 O    3.339368   -4.384617   -0.424539
 N    2.727833   -2.639999    0.860431
 C    1.323823   -2.949769    0.782794
 C    0.568575   -1.906852   -0.042338
 O    0.995150   -0.776112   -0.260480
 C    0.673271   -3.124488    2.175502
 C    0.527111   -1.789242    2.899244
 C    1.486879   -4.116411    3.002223
 N   -0.582960   -2.361608   -0.537919
 C   -1.539564   -1.571429   -1.275753
 C   -2.665273   -1.143328   -0.312967
 O   -2.587353   -1.400478    0.876986
 C   -2.019810   -2.334601   -2.524038
 C   -2.645199   -3.679726   -2.155263
 C   -0.856012   -2.524234   -3.494691
 N   -3.676105   -0.506241   -0.926556
 C   -4.717300    0.280031   -0.282635
 C   -5.361430   -0.418842    0.923147
 C   -6.485609   -1.387476    0.537039
 C   -5.960490   -2.563569   -0.280210
 C   -7.174427   -1.895688    1.802218
 C   -4.154357    1.679536    0.088409
 O   -2.929953    1.592849    0.776506
 C   -3.925900    2.571808   -1.152279
 C   -2.615422    2.210446   -1.836870
 O   -2.512600    1.271492   -2.614832
 N   -1.583855    2.987546   -1.499680
 C   -0.215961    2.737677   -1.920327
 C    0.657621    3.175172   -0.736840
 O    0.893899    4.352559   -0.537367
 C    0.140045    3.540918   -3.168409
 N    1.062529    2.181051    0.060640
 C    1.852296    2.424005    1.250855
 C    1.068874    2.066841    2.517785
 C   -0.292057    2.760592    2.634329
 C   -1.024621    2.222231    3.862843
 C   -0.149054    4.277662    2.728900
 C    3.175966    1.627649    1.181167
 O    2.978963    0.252673    1.363901
 C    3.901692    1.889419   -0.157037
 C    4.031226    3.365318   -0.435371
 O    3.525181    3.688481   -1.628298
 O    4.525322    4.170391    0.306596
 H    5.638688   -3.633583    0.872986
 H    5.100713   -1.941434    0.865075
 H    5.536162   -3.655682   -1.618270
 H    7.606825   -2.302435   -1.964416
 H    7.694397   -3.233901   -0.469921
 H    7.344047   -1.504762   -0.412939
 H    5.371553   -1.494740   -2.835079
 H    3.901817   -1.813025   -1.912935
 H    5.088291   -0.651760   -1.310867
 H    3.007690   -1.791137    1.327408
 H    1.277563   -3.907701    0.246684
 H   -0.330161   -3.536466    2.021107
 H    0.138920   -1.951674    3.902051
 H    1.485515   -1.282167    2.980975
 H   -0.174138   -1.150680    2.365838
 H    0.972567   -4.338806    3.933852
 H    1.631551   -5.044879    2.454810
 H    2.464328   -3.703275    3.237930
 H   -0.913842   -3.263144   -0.231207
 H   -1.029821   -0.654035   -1.592863
 H   -2.776615   -1.720207   -3.018472
 H   -1.882255   -4.399897   -1.867047
 H   -3.175496   -4.088544   -3.011715
 H   -3.353678   -3.567818   -1.338241
 H   -0.478528   -1.560353   -3.826624
 H   -1.183354   -3.083669   -4.367311
 H   -0.042646   -3.070014   -3.021349
 H   -3.453273   -0.158774   -1.857544
 H   -5.496576    0.435083   -1.039222
 H   -4.602275   -0.961848    1.484473
 H   -5.784058    0.347400    1.577370
 H   -7.223618   -0.843210   -0.064914
 H   -6.764758   -3.263165   -0.496656
 H   -5.537041   -2.225749   -1.222264
 H   -5.190278   -3.088749    0.280669
 H   -7.988142   -2.570445    1.547718
 H   -7.583494   -1.069449    2.379343
 H   -6.465118   -2.433684    2.426967
 H   -4.906654    2.179623    0.723132
 H   -2.959441    0.846828    1.389563
 H   -3.894462    3.613229   -0.834039
 H   -4.750606    2.439035   -1.852568
 H   -1.714059    3.753775   -0.856863
 H   -0.119091    1.666134   -2.120233
 H    0.091336    4.603096   -2.941651
 H    1.151517    3.297348   -3.481886
 H   -0.552648    3.307463   -3.972599
 H    0.801566    1.222054   -0.133689
 H    2.095274    3.489765    1.250670
 H    1.684990    2.327907    3.380322
 H    0.913498    0.987677    2.532890
 H   -0.889609    2.517118    1.749693
 H   -0.467871    2.453360    4.768678
 H   -2.011567    2.671527    3.943151
 H   -1.142851    1.142789    3.799028
 H    0.266519    4.690399    1.813855
 H   -1.121943    4.735664    2.894914
 H    0.501591    4.547718    3.558268
 H    3.816726    1.956477    2.006072
 H    2.314880   -0.050835    0.706382
 H    3.357717    1.415047   -0.974749
 H    4.902849    1.458768   -0.093055
 H    3.529766    4.651492   -1.751090
