14 
1lyx_ligand_xtb.xyz
 P   -1.477059    0.114416    0.003431
 O    0.078245    0.457349    0.073690
 O   -1.600559   -0.783401   -1.314109
 O   -2.346913    1.279724    0.046198
 O   -1.660556   -0.939949    1.187130
 C    1.007736   -0.616621    0.042537
 C    2.433222   -0.049043    0.000551
 O    2.495144    1.274435    0.026504
 O    3.396590   -0.754336   -0.050252
 H   -2.263628   -0.412080   -1.893381
 H   -2.463289   -0.749000    1.669020
 H    0.843868   -1.243500   -0.838475
 H    0.897829   -1.244530    0.931393
 H    1.599745    1.656278    0.068164
