14 
1lzo_ligand_xtb.xyz
 P    1.476428   -0.114028    0.007536
 O   -0.078270   -0.450822    0.109197
 O    1.584625    0.725184   -1.349434
 O    2.344974   -1.277894    0.090786
 O    1.675976    0.990261    1.142042
 C   -1.008612    0.620477    0.039569
 C   -2.432706    0.048822    0.001829
 O   -2.490296   -1.274652    0.035331
 O   -3.398206    0.750700   -0.054166
 H    2.249610    0.335416   -1.914143
 H    2.480138    0.813925    1.627092
 H   -0.838821    1.220647   -0.858820
 H   -0.906277    1.275062    0.909686
 H   -1.593594   -1.652634    0.084699
