52 
1m7q_ligand_dft.xyz
 C   -0.945774   -0.963990   -0.150902
 C   -1.923131    0.053440   -0.171458
 C   -1.522137    1.378788   -0.177506
 C   -0.160458    1.713284   -0.127670
 C    0.808110    0.725709   -0.081224
 C    0.413197   -0.620175   -0.105666
 N    0.184709    3.098592   -0.124782
 C   -3.375651   -0.257785   -0.218673
 N    1.336121   -1.643857   -0.077316
 C    0.975872   -3.022012   -0.082273
 N   -0.382200   -3.323909   -0.199313
 C   -1.249593   -2.375029   -0.225130
 O    1.837829   -3.860439   -0.003960
 C    2.729804   -1.366441   -0.023684
 C   -4.180106    0.186206   -1.272849
 C   -5.544661   -0.069885   -1.305544
 C   -6.109226   -0.780875   -0.255129
 C   -5.357200   -1.238496    0.816856
 C   -4.000814   -0.963039    0.810491
 C    3.473102   -1.213493   -1.197208
 C    4.842640   -0.982679   -1.154754
 C    5.479516   -0.898680    0.077863
 C    4.760904   -1.029084    1.260583
 C    3.391830   -1.258907    1.202655
 F   -3.259567   -1.389004    1.841650
 F   -7.417308   -1.034215   -0.271020
Cl    2.486239   -1.408443    2.677484
Cl    2.669678   -1.307237   -2.735823
 C   -0.255897    3.837520    1.047540
 C   -0.262593    5.327693    0.748616
 N    1.119007    5.741209    0.301055
 C    1.613303    4.912997   -0.860529
 C    1.543930    3.439772   -0.487821
 H   -2.271994    2.161981   -0.233279
 H    1.862660    0.961494   -0.011432
 H   -2.290553   -2.676254   -0.335308
 H   -3.716912    0.727811   -2.092094
 H   -6.167584    0.261371   -2.127815
 H   -5.811986   -1.788319    1.631607
 H    5.399604   -0.886247   -2.079567
 H    6.551241   -0.734724    0.117240
 H    5.254292   -0.968784    2.223773
 H    0.381384    3.631310    1.928229
 H   -1.271687    3.543126    1.315897
 H   -0.519413    5.926888    1.624272
 H   -0.938729    5.559815   -0.076394
 H    1.768960    5.632024    1.087566
 H    1.128274    6.735224    0.055095
 H    2.631747    5.235557   -1.085279
 H    0.955944    5.134828   -1.703169
 H    1.845344    2.861275   -1.364551
 H    2.274794    3.227379    0.315963
