19 
1mcz_ligand_xtb.xyz
 C   -0.355074    0.166771   -0.398379
 C   -0.945464   -1.082696   -0.544964
 C   -2.259636   -1.277302   -0.161966
 C   -2.993618   -0.227796    0.367164
 C   -2.408598    1.017765    0.508421
 C   -1.091061    1.215705    0.130870
 C    1.103983    0.356294   -0.801796
 C    1.890446   -0.527365    0.159605
 O    1.537399    1.684966   -0.794365
 O    2.063306   -1.707769    0.034942
 O    2.321145    0.164356    1.224547
 H   -0.367287   -1.899642   -0.949868
 H   -2.712941   -2.250436   -0.277384
 H   -4.019950   -0.381317    0.665711
 H   -2.976873    1.841516    0.914479
 H   -0.643415    2.193571    0.227253
 H    1.248639   -0.018802   -1.820615
 H    1.667475    1.956717    0.122913
 H    2.783672   -0.422292    1.842791
