19 
1mdl_ligand_xtb.xyz
 C   -0.354547    0.165766   -0.400055
 C   -0.947609   -1.082210   -0.548343
 C   -2.261682   -1.275046   -0.164029
 C   -2.992852   -0.225149    0.368173
 C   -2.405168    1.018977    0.511122
 C   -1.087761    1.215110    0.132298
 C    1.104704    0.352895   -0.803705
 C    1.889291   -0.527725    0.161891
 O    1.538783    1.681415   -0.800750
 O    2.063042   -1.708426    0.041092
 O    2.316968    0.167278    1.226131
 H   -0.371556   -1.899453   -0.955683
 H   -2.716939   -2.247146   -0.280681
 H   -4.019002   -0.377129    0.668043
 H   -2.971185    1.842860    0.920045
 H   -0.638130    2.191897    0.230476
 H    1.250067   -0.026362   -1.820879
 H    1.672592    1.955222    0.115393
 H    2.777551   -0.417735    1.847401
