67 
1mfa_ligand_dft.xyz
 C    0.850672    1.306535    1.162695
 C    0.365742    2.646340    0.610416
 C    1.030182    2.939504   -0.734467
 C    2.549187    2.813646   -0.620543
 C    2.876959    1.440939   -0.048777
 C    4.352800    1.171971    0.174790
 O   -1.040500    2.669358    0.490980
 O    0.736653    4.258826   -1.148746
 O    3.069987    3.820265    0.216250
 O    2.244176    1.240507    1.221026
 O    4.607390   -0.222176    0.291144
 C    1.200616   -1.621417    1.482031
 C   -0.008678   -0.919261    0.851157
 C   -0.508813   -1.748397   -0.327985
 C    0.634952   -2.024636   -1.300646
 C    1.850341   -2.624571   -0.590360
 C    3.071901   -2.690172   -1.502505
 C    1.682576   -3.511050    2.789766
 O    0.714413   -2.802278    2.041300
 O    0.320333    0.336468    0.305157
 O   -1.503059   -1.075601   -1.092072
 O    0.235473   -2.958893   -2.281078
 O    2.222389   -1.838044    0.546333
 O    3.472514   -1.431936   -1.979072
 C   -2.752688   -0.891509   -0.498830
 C   -3.718972   -0.556979   -1.631575
 C   -5.122838   -0.279919   -1.088653
 C   -5.101956    0.188911    0.367626
 C   -3.821281    0.978521    0.651935
 C   -3.710042    1.504781    2.072709
 O   -3.265351    0.604873   -2.299292
 O   -5.198115   -0.976669    1.171661
 O   -2.654774    0.174400    0.430110
 H    0.489769    1.157388    2.188006
 H    0.650209    3.434333    1.312930
 H    0.667713    2.208836   -1.473474
 H    2.986679    2.878903   -1.630142
 H    2.504891    0.689018   -0.757119
 H    4.930920    1.525061   -0.683334
 H    4.691555    1.709722    1.067447
 H   -1.314372    1.787175    0.173737
 H   -0.208588    4.387918   -0.986963
 H    2.627404    4.637007   -0.057498
 H    3.873897   -0.620327    0.788863
 H    1.666393   -0.989916    2.249607
 H   -0.787591   -0.805594    1.613828
 H   -0.909658   -2.700949    0.041863
 H    0.938861   -1.074794   -1.758406
 H    1.592466   -3.641737   -0.263659
 H    3.884351   -3.191385   -0.955908
 H    2.809576   -3.308738   -2.365439
 H    2.085981   -2.886110    3.598995
 H    1.176223   -4.376243    3.219786
 H    2.511244   -3.847688    2.156590
 H   -0.523583   -2.571356   -2.734194
 H    3.995500   -1.007045   -1.271985
 H   -3.064338   -1.802589    0.030701
 H   -3.736013   -1.414623   -2.319607
 H   -5.744842   -1.177405   -1.142004
 H   -5.572931    0.482529   -1.730359
 H   -5.957780    0.854886    0.555758
 H   -3.799788    1.822017   -0.051056
 H   -3.676326    0.682899    2.797165
 H   -4.554830    2.160013    2.309961
 H   -2.785820    2.079141    2.171870
 H   -2.310426    0.498845   -2.416391
 H   -5.152937   -0.711410    2.098126
