67 
1mfd_ligand_xtb.xyz
 C    0.884737    1.323012    1.126833
 C    0.450113    2.696220    0.588684
 C    1.115094    2.940650   -0.774127
 C    2.635519    2.762021   -0.645014
 C    2.915018    1.373168   -0.062752
 C    4.398924    1.102115    0.173153
 O   -0.946157    2.772718    0.490434
 O    0.861353    4.253791   -1.217628
 O    3.187219    3.755044    0.177283
 O    2.269077    1.196054    1.198365
 O    4.652680   -0.277719    0.287365
 C    1.171281   -1.605665    1.471889
 C   -0.021954   -0.877574    0.825665
 C   -0.546495   -1.732725   -0.330554
 C    0.599437   -2.045966   -1.304022
 C    1.779128   -2.677789   -0.556607
 C    2.996249   -2.821998   -1.489080
 C    1.589893   -3.418698    2.913803
 O    0.655045   -2.749682    2.085400
 O    0.310613    0.372449    0.267737
 O   -1.544871   -1.078947   -1.093555
 O    0.178246   -2.961536   -2.281128
 O    2.184916   -1.886581    0.553708
 O    3.480199   -1.596974   -1.950139
 C   -2.773006   -0.859444   -0.458893
 C   -3.791376   -0.602478   -1.581252
 C   -5.186424   -0.364060   -0.999285
 C   -5.101256    0.200001    0.422372
 C   -3.828524    1.053289    0.555154
 C   -3.720608    1.759914    1.902927
 O   -3.405320    0.525163   -2.328923
 O   -5.112281   -0.892091    1.315007
 O   -2.660352    0.240661    0.414958
 H    0.514823    1.191687    2.155102
 H    0.774924    3.476135    1.286804
 H    0.720977    2.207755   -1.494812
 H    3.080541    2.815720   -1.652023
 H    2.523686    0.629697   -0.771960
 H    4.984551    1.457970   -0.675494
 H    4.708485    1.636567    1.077781
 H   -1.272529    1.904525    0.195528
 H   -0.071123    4.438584   -1.045668
 H    2.797183    4.593319   -0.108213
 H    3.991178   -0.653581    0.884982
 H    1.654828   -0.953506    2.218676
 H   -0.797326   -0.750043    1.594635
 H   -0.946901   -2.669852    0.084466
 H    0.929268   -1.103695   -1.764564
 H    1.465823   -3.674229   -0.214499
 H    3.776771   -3.383142   -0.959912
 H    2.671263   -3.389770   -2.363803
 H    1.899227   -2.773562    3.743216
 H    1.075899   -4.296432    3.297655
 H    2.473936   -3.721851    2.346821
 H   -0.597903   -2.585168   -2.712687
 H    3.950676   -1.151198   -1.220268
 H   -3.067405   -1.758212    0.113541
 H   -3.795536   -1.492476   -2.230309
 H   -5.744475   -1.298081   -0.958511
 H   -5.700573    0.337270   -1.654695
 H   -5.972907    0.845479    0.616925
 H   -3.852618    1.802725   -0.249023
 H   -3.599871    1.037518    2.707797
 H   -4.611378    2.356682    2.080127
 H   -2.852055    2.411642    1.897875
 H   -2.449331    0.476956   -2.456055
 H   -4.939531   -0.568181    2.206138
