14 
1ml1_ligand_xtb.xyz
 P   -1.143252    0.007203   -0.190604
 O   -0.212393   -0.852362    0.849168
 O   -0.629453   -0.030706   -1.552577
 O   -1.390429    1.411321    0.508155
 O   -2.550709   -0.674429    0.014486
 C    1.075465   -1.138593    0.388085
 C    1.838470    0.150361    0.116096
 O    3.096126    0.008980   -0.296718
 O    1.339247    1.227612    0.269614
 H   -0.607001    1.961318    0.423348
 H   -2.905654   -0.514574    0.889016
 H    1.025742   -1.708769   -0.549178
 H    1.573019   -1.728602    1.165127
 H    3.359945   -0.911366   -0.431354
