14 
1ml1_ligand_dft.xyz
 P   -1.260113   -0.003657    0.149420
 O   -0.173218   -0.648833   -0.883929
 O   -1.087472   -0.526055    1.517601
 O   -2.652470   -0.331891   -0.556325
 O   -1.163229    1.552472   -0.124534
 C    1.064427   -1.057099   -0.367335
 C    1.972335    0.133975   -0.066313
 O    3.240534   -0.166786    0.232889
 O    1.602715    1.281864   -0.066057
 H   -3.101631   -1.045365   -0.083968
 H   -0.216435    1.804092   -0.147672
 H    1.532548   -1.693910   -1.125401
 H    0.939508   -1.635462    0.558097
 H    3.392257   -1.121928    0.202361
