52 
1mnc_ligand_xtb.xyz
 C    1.434955   -1.895722   -0.526755
 C    0.346864   -2.144150    0.494267
 C   -1.012603   -1.575714    0.042730
 C   -2.173435   -2.410841    0.585514
 C   -3.541249   -2.004093    0.023418
 C   -3.672684   -2.343886   -1.459252
 C   -4.642904   -2.705144    0.816475
 C   -1.121921   -0.131369    0.527993
 C   -0.201100    2.112884    0.265507
 C   -1.311585    2.986766   -0.356516
 C   -3.733900    3.313172   -0.321623
 C    1.186859    2.617929   -0.122606
 C    2.279978    1.652487    0.245340
 C    2.332550    1.068200    1.505879
 C    3.335515    0.171306    1.828480
 C    4.312146   -0.145768    0.899944
 C    4.275507    0.438103   -0.354378
 C    3.262652    1.323082   -0.679498
 N    2.510710   -2.682976   -0.394198
 N   -0.372174    0.736220   -0.162748
 N   -2.522059    2.682939    0.139023
 O    3.589377   -2.503646   -1.261922
 O    1.375068   -1.091793   -1.447035
 O   -1.818028    0.208709    1.474167
 O   -1.100611    3.837656   -1.194837
 H    0.262287   -3.220369    0.658711
 H    0.651033   -1.686520    1.439489
 H   -1.031947   -1.572967   -1.050327
 H   -2.195842   -2.289427    1.670365
 H   -1.999054   -3.465872    0.360192
 H   -3.659328   -0.924416    0.152178
 H   -3.519164   -3.409471   -1.619399
 H   -4.667685   -2.086348   -1.814932
 H   -2.952082   -1.796398   -2.061318
 H   -4.589695   -2.431521    1.867294
 H   -5.623082   -2.423844    0.438961
 H   -4.541473   -3.785714    0.734631
 H   -0.342662    2.133268    1.353872
 H   -4.275474    3.753868    0.516638
 H   -4.381297    2.590465   -0.822877
 H   -3.454458    4.095391   -1.025661
 H    1.196814    2.805022   -1.197947
 H    1.352137    3.577263    0.374711
 H    1.584646    1.313333    2.245773
 H    3.357432   -0.277654    2.811717
 H    5.096757   -0.844435    1.149826
 H    5.035752    0.195841   -1.082491
 H    3.233513    1.766203   -1.664276
 H    2.730197   -3.290790    0.376299
 H    0.220492    0.393871   -0.911743
 H   -2.594626    1.932012    0.817445
 H    3.291157   -1.774939   -1.844166
