50 
1mu6_ligand_xtb.xyz
 N    5.120725    0.121162   -0.047493
 C    4.282022   -0.769146    0.456052
 C    3.425048   -0.501818    1.517675
 C    3.442766    0.774480    2.056483
 C    4.310740    1.714462    1.525601
 C    5.138344    1.328796    0.480934
 C    4.221183   -2.090598   -0.273213
 C    3.317611   -1.983816   -1.523757
 F    3.728294   -3.074107    0.542737
 F    5.452355   -2.525738   -0.641301
 N    1.991540   -1.567598   -1.174706
 C    1.701566   -0.254077   -0.965099
 C    0.516462   -0.003920   -0.148260
 N    0.248731    1.317025    0.095447
 C    0.981109    2.321757   -0.497435
 C    2.039769    1.967778   -1.277360
 N    2.420840    0.693165   -1.494961
 O   -0.176779   -0.908808    0.323526
 C    0.588114    3.742839   -0.264141
 C   -0.862200    1.602938    0.985020
 C   -2.172767    1.717377    0.189100
 N   -2.598262    0.532984   -0.271393
 O   -2.709696    2.783728   -0.028858
 C   -3.856047    0.381602   -0.950866
 C   -4.840634   -0.407442   -0.128475
 C   -6.111415   -0.707307   -0.618781
 C   -7.009594   -1.424935    0.146782
 C   -6.598179   -1.831241    1.407677
 N   -4.469088   -0.810406    1.074764
 F   -6.462092   -0.293591   -1.853346
 C   -5.317950   -1.498390    1.818966
 H    2.767674   -1.265603    1.902781
 H    2.785158    1.027702    2.875527
 H    4.347095    2.720518    1.913169
 H    5.843827    2.017276    0.036688
 H    3.285706   -2.961321   -2.010635
 H    3.756015   -1.237177   -2.188690
 H    1.436163   -2.197891   -0.606276
 H    2.648162    2.713709   -1.763396
 H    0.815915    4.051678    0.757007
 H    1.142570    4.384725   -0.942392
 H   -0.477659    3.884842   -0.435646
 H   -0.683980    2.530629    1.525566
 H   -0.943177    0.765611    1.684004
 H   -2.116375   -0.309508    0.024310
 H   -3.711568   -0.113242   -1.919108
 H   -4.253241    1.386234   -1.136131
 H   -7.991603   -1.651609   -0.238521
 H   -7.258654   -2.392411    2.048830
 H   -4.944333   -1.792973    2.789729
