49 
1mue_ligand_dft.xyz
 C    4.072512    1.479363   -1.420793
 N    3.800619    0.201561   -1.028423
 C    3.703523   -0.071992    0.310193
 C    3.870333    0.931362    1.248922
 C    4.143936    2.233626    0.856294
 C    4.242583    2.495985   -0.506609
 C    3.296308   -1.479058    0.684199
 C    1.882868   -1.849829    0.229509
 F    4.173870   -2.389298    0.195130
 F    3.349048   -1.584504    2.048736
 N    0.878836   -1.103067    0.936326
 C    0.342614    0.053909    0.486247
 C   -0.812108    0.513893    1.281143
 N   -1.436179    1.643943    0.809049
 C   -0.938769    2.295762   -0.316504
 C    0.146076    1.808162   -0.958529
 N    0.785515    0.665111   -0.573334
 C   -2.724704    1.987465    1.430678
 C   -3.834981    1.185061    0.727915
 N   -3.843529   -0.133546    1.073443
 C   -4.359173   -1.150083    0.169148
 C   -3.219498   -1.986322   -0.370665
 C   -3.028676   -3.317651   -0.002933
 C   -1.927640   -4.042761   -0.453745
 C   -0.989439   -3.435921   -1.283613
 C   -1.152739   -2.107789   -1.668544
 C   -2.259863   -1.417816   -1.206790
 O   -1.214627   -0.113455    2.266292
Cl   -1.714226    3.748368   -0.845268
 O   -4.574130    1.694431   -0.091299
 F   -2.408860   -0.129551   -1.568195
 O    3.626453   -0.702701   -1.901775
 H    4.127187    1.592930   -2.494481
 H    3.770233    0.667660    2.293971
 H    4.273269    3.020204    1.590319
 H    4.451910    3.493763   -0.876416
 H    1.744143   -2.916753    0.421873
 H    1.812993   -1.664733   -0.844252
 H    0.446298   -1.484332    1.764604
 H    0.542069    2.322792   -1.825437
 H   -2.920362    3.049095    1.309630
 H   -2.645331    1.737097    2.489354
 H   -3.117862   -0.432322    1.717635
 H   -4.890774   -0.624470   -0.627812
 H   -5.077201   -1.792954    0.688552
 H   -3.755787   -3.789040    0.653466
 H   -1.802688   -5.078308   -0.154073
 H   -0.126035   -3.991907   -1.636059
 H   -0.434130   -1.597195   -2.300671
