23 
1my2_ligand_xtb.xyz
 N   63.142661   69.755377   52.633985
 C   62.948124   68.325644   52.726196
 C   62.848557   67.903032   54.180193
 O   62.066701   67.105059   54.616497
 O   63.788321   68.480149   54.940164
 C   64.086843   67.472434   52.092246
 C   64.234800   67.789325   50.647890
 C   63.454072   67.258647   49.575524
 C   65.075107   68.662495   50.011317
 C   66.151464   69.556040   50.506058
 O   62.482042   66.356101   49.699609
 N   63.817176   67.770146   48.428848
 O   64.827352   68.644703   48.688318
 H   63.258333   70.031709   51.665530
 H   63.969103   70.033693   53.151487
 H   62.004505   68.069462   52.233333
 H   63.697607   68.186621   55.860442
 H   65.020911   67.679523   52.619581
 H   63.834089   66.417503   52.206450
 H   67.032552   69.453350   49.876351
 H   65.831128   70.596734   50.464876
 H   66.405197   69.302558   51.531302
 H   62.124357   66.161697   48.823803
