13 
1n1g_ligand_xtb.xyz
Cl    1.748041    2.576074    0.000100
 C    0.972951    1.043709   -0.000693
 N   -0.341051    1.017344   -0.000995
 C   -0.950087   -0.161017   -0.000735
Br   -2.818108   -0.085456    0.000487
 C    1.678226   -0.147513   -0.000365
 C    0.912046   -1.357830   -0.001225
 N   -0.413880   -1.353620   -0.001107
 N    2.980795   -0.551132    0.001146
 C    2.952896   -1.911286    0.001037
 N    1.757671   -2.418860   -0.000555
 H    3.846611   -2.504506    0.002451
 H    3.789545    0.049708    0.001280
