25 
1n7i_ligand_xtb.xyz
 C   -1.337303   -1.279116   -0.668960
 N   -2.277074   -1.482093    0.478176
 C   -3.496135   -0.629385    0.429730
 C   -3.184569    0.851848    0.594716
 C   -2.343794    1.453687   -0.539038
 C   -0.875926    1.174015   -0.373191
 C    0.017307    2.213161   -0.148843
 C    1.361647    1.966873    0.052155
 C    1.839660    0.663779    0.053691
 C    0.954147   -0.391480   -0.166312
 C   -0.398632   -0.138115   -0.399434
Cl    3.507915    0.352556    0.330717
Cl    1.561870   -2.010086   -0.139602
 H   -1.928653   -1.094992   -1.567328
 H   -0.748592   -2.187140   -0.808215
 H   -1.757119   -1.279566    1.341688
 H   -2.564465   -2.465755    0.506788
 H   -4.169213   -0.949930    1.227835
 H   -3.989986   -0.806337   -0.528142
 H   -2.682168    1.025790    1.547928
 H   -4.142546    1.371093    0.633702
 H   -2.489486    2.532877   -0.537803
 H   -2.700576    1.083497   -1.502417
 H   -0.340634    3.230339   -0.134317
 H    2.048195    2.781189    0.217006
