95 
1n7m_ligand_dft.xyz
 C    1.817728   -1.681910    1.800822
 N    2.405289   -1.625144    0.464878
 C    2.566939   -2.972740   -0.132055
 C    4.056642   -3.178269   -0.226608
 C    4.709548   -2.050227    0.092368
 C    3.721951   -0.950538    0.436124
 C    3.723725    0.205535   -0.578274
 C    4.607918   -4.501908   -0.653518
 C    6.158512   -1.878189    0.122973
 C    6.814043   -0.806217    0.576742
 N    2.390883    2.120992   -1.397363
 C    2.817669    1.380384   -0.192759
 C    3.426098    2.443813    0.711907
 C    3.123722    3.664086    0.241795
 C    2.207969    3.529031   -0.976513
 C    0.787845    3.875782   -0.585988
 C    4.139000    2.097664    1.979852
 C    3.503925    4.949696    0.812215
 C    3.221035    6.142904    0.279697
 N   -0.277124    1.681272   -0.823176
 C   -0.255538    3.030759   -0.496966
 C   -1.611613    3.361185   -0.009305
 C   -2.392101    2.273901   -0.117882
 C   -1.610136    1.118332   -0.698552
 C   -1.614643   -0.157421    0.167815
 C   -1.953552    4.721782    0.507177
 C   -3.843292    2.105065    0.221891
 C   -4.626923    1.476188   -0.939966
 C   -6.131175    1.467636   -0.736879
 O   -6.826845    0.957076   -1.836881
 O   -6.408688    0.717641    0.431625
 N    0.061534   -1.423241   -1.192533
 C   -1.332514   -1.405787   -0.616481
 C   -1.436172   -2.702925   -0.037762
 C   -0.448273   -3.571171   -0.433604
 C    0.372365   -2.866931   -1.480530
 C    1.880406   -3.114298   -1.500689
 C   -0.380311   -5.060896   -0.315230
 C   -2.544746   -3.003784    0.935624
 C   -3.940879   -2.651801    0.396934
 C   -4.972528   -2.411846    1.489137
 O   -4.466993   -1.391702    2.325166
 O   -6.224508   -2.054875    0.977881
 H    1.650498   -0.664297    2.168792
 H    2.456244   -2.219600    2.521824
 H    0.848887   -2.186832    1.736540
 H    0.788788   -1.092329   -0.520260
 H    2.116252   -3.715352    0.539914
 H    3.938717   -0.550158    1.435057
 H    3.366222   -0.202421   -1.532993
 H    4.747744    0.561747   -0.747047
 H    4.424264   -4.677517   -1.720851
 H    5.683558   -4.587160   -0.482799
 H    4.115094   -5.315743   -0.108085
 H    6.745349   -2.714785   -0.251368
 H    6.301863    0.066596    0.969843
 H    7.898612   -0.769410    0.575243
 H    3.178669    2.111467   -2.042367
 H    0.150333   -0.863260   -2.038104
 H    1.911527    0.980155    0.287912
 H    2.532028    4.182106   -1.799038
 H    0.634490    4.899002   -0.257445
 H    3.508383    1.459492    2.612477
 H    5.065950    1.543442    1.790723
 H    4.401788    2.983215    2.563947
 H    4.077229    4.923179    1.737632
 H    3.548792    7.061875    0.755241
 H    2.657912    6.247904   -0.643781
 H    0.381494    1.398542   -1.535352
 H   -2.021613    0.844693   -1.684914
 H   -2.594319   -0.277535    0.642680
 H   -0.901334    0.035601    0.996712
 H   -2.994226    4.788607    0.834654
 H   -1.789711    5.482932   -0.265144
 H   -1.312549    4.983949    1.357078
 H   -3.959167    1.463201    1.104301
 H   -4.287035    3.074260    0.477788
 H   -4.293155    0.440487   -1.096516
 H   -4.428687    2.021999   -1.868971
 H   -6.512508    2.489124   -0.615236
 H   -6.447000    0.092110   -2.046100
 H   -7.368195    0.722758    0.551905
 H   -0.031147   -3.053040   -2.495144
 H    2.040073   -4.135377   -1.868305
 H    2.366957   -2.443592   -2.223246
 H    0.612943   -5.420315   -0.002782
 H   -0.605939   -5.573040   -1.266850
 H   -1.095067   -5.435729    0.424104
 H   -2.522080   -4.056571    1.238502
 H   -2.369543   -2.415482    1.844516
 H   -4.313062   -3.446610   -0.258217
 H   -3.884037   -1.746002   -0.215981
 H   -5.147191   -3.331514    2.066806
 H   -5.174972   -1.168968    2.942556
 H   -6.121799   -1.159402    0.604120
