39 
1n8u_ligand_dft.xyz
 O   -8.174513   -0.739134   -0.985975
 C   -6.779731   -0.630882   -1.197972
 C   -6.102953   -0.503024    0.155874
 C   -4.583686   -0.378330    0.047914
 C   -3.906599   -0.235479    1.412622
 C   -2.376147   -0.223649    1.359596
 C   -1.779233    0.956739    0.590971
 C   -0.252791    1.002077    0.661848
 C    0.346243    2.167079   -0.128324
 C    1.864305    2.310620    0.014552
 C    2.654934    1.118220   -0.525286
 C    4.165257    1.332739   -0.445076
 C    4.988751    0.176404   -0.986741
Br    4.764934   -1.456588    0.077636
 H   -8.601741   -0.823974   -1.845265
 H   -6.538159    0.249911   -1.815825
 H   -6.386999   -1.516599   -1.724320
 H   -6.368265   -1.378645    0.761233
 H   -6.517462    0.373150    0.669986
 H   -4.336458    0.486103   -0.582636
 H   -4.176292   -1.261582   -0.465455
 H   -4.232669   -1.063239    2.056269
 H   -4.261032    0.686125    1.895609
 H   -2.020818   -1.162778    0.911910
 H   -1.987387   -0.208827    2.386693
 H   -2.191358    1.895209    0.989751
 H   -2.084548    0.911007   -0.462974
 H    0.148816    0.050306    0.289915
 H    0.061603    1.077440    1.712885
 H   -0.129257    3.100488    0.201537
 H    0.090927    2.052593   -1.191582
 H    2.115925    2.459058    1.074270
 H    2.186433    3.221363   -0.508537
 H    2.369173    0.933783   -1.571181
 H    2.398562    0.210467    0.032268
 H    4.461607    1.533992    0.591512
 H    4.441837    2.221701   -1.030590
 H    6.057449    0.388458   -0.963946
 H    4.693421   -0.096920   -2.000850
