39 
1n8v_ligand_xtb.xyz
 O    8.166078   -0.305539    0.462566
 C    6.833780    0.057713    0.162554
 C    5.917485   -1.057617    0.656259
 C    4.433888   -0.710352    0.556471
 C    3.948128   -0.555060   -0.884519
 C    2.424475   -0.491624   -0.999026
 C    1.820692    0.757232   -0.360335
 C    0.312755    0.835959   -0.588562
 C   -0.295402    2.072620    0.069935
 C   -1.784187    2.250303   -0.228897
 C   -2.656354    1.171362    0.408493
 C   -4.140759    1.430232    0.163073
 C   -5.030088    0.370963    0.786076
Br   -4.775537   -1.375747   -0.057982
 H    8.760859    0.378922    0.140337
 H    6.714350    0.199154   -0.920241
 H    6.572504    1.001027    0.665777
 H    6.177206   -1.256729    1.697594
 H    6.131567   -1.962198    0.084884
 H    4.246358    0.210724    1.111191
 H    3.862547   -1.509691    1.033833
 H    4.304512   -1.407900   -1.467113
 H    4.374885    0.348959   -1.323078
 H    1.990657   -1.379948   -0.534157
 H    2.152837   -0.509180   -2.057497
 H    2.298028    1.644998   -0.782625
 H    2.016082    0.753095    0.713246
 H   -0.150714   -0.065892   -0.185738
 H    0.110048    0.863096   -1.661857
 H    0.237853    2.956885   -0.288045
 H   -0.148464    2.016440    1.151236
 H   -1.936965    2.245282   -1.310643
 H   -2.102858    3.227148    0.145031
 H   -2.466418    1.142177    1.484896
 H   -2.392252    0.197623   -0.006742
 H   -4.329864    1.481122   -0.912064
 H   -4.422143    2.394659    0.596862
 H   -6.086191    0.607373    0.662018
 H   -4.805738    0.227928    1.842591
