66 
1n95_ligand_xtb.xyz
 C   47.403749   46.771178   -3.973901
 N   48.761253   46.915273   -3.536844
 C   49.878955   46.523528   -4.195394
 N   50.961672   46.769551   -3.515464
 C   50.543614   47.342123   -2.356947
 C   49.177730   47.449754   -2.342202
 C   48.211823   47.992469   -1.345374
 C   48.934212   48.747469   -0.210668
 N   49.717068   49.873900   -0.676406
 C   48.963707   51.014241   -1.175904
 C   49.894224   52.196249   -1.243752
 C   50.330757   52.798110   -0.067527
 C   51.198484   53.868918   -0.100884
 C   51.643735   54.354931   -1.330422
 C   52.523292   55.460027   -1.377418
 N   53.234960   56.357839   -1.420550
 C   51.222514   53.750854   -2.513601
 C   50.357005   52.675984   -2.462032
 C   49.710813   47.696102    0.611290
 O   49.283063   46.555301    0.645048
 N   50.783069   48.049163    1.352947
 C   51.570397   46.997947    1.973630
 C   52.814347   46.723509    1.126447
 C   53.409418   48.007355    0.607366
 C   52.810711   49.204224    0.719779
 C   51.469754   49.317227    1.404675
 C   53.357449   50.405113    0.060232
 C   53.449276   50.403522   -1.312195
 C   53.925678   51.521086   -2.007531
 C   54.309818   52.641540   -1.328006
 C   54.236629   52.686092    0.079374
 C   54.634268   53.833853    0.797308
 C   54.580535   53.859767    2.162110
 C   54.148717   52.727873    2.869256
 C   53.754965   51.601924    2.201468
 C   53.761955   51.552664    0.791768
 C   54.662538   47.889666   -0.034542
 N   55.692156   47.764234   -0.524157
 H   46.928391   47.748186   -4.096029
 H   47.391560   46.252371   -4.930906
 H   46.828904   46.192810   -3.247436
 H   49.853615   46.067076   -5.164700
 H   51.257997   47.615483   -1.605145
 H   47.503028   48.666520   -1.837478
 H   47.644111   47.169903   -0.901955
 H   48.171823   49.146835    0.474904
 H   50.383136   49.571501   -1.380162
 H   48.510824   50.841254   -2.164619
 H   48.158942   51.222356   -0.462788
 H   49.977441   52.425070    0.882242
 H   51.535856   54.334842    0.812893
 H   51.575616   54.127456   -3.462045
 H   50.031734   52.209148   -3.380531
 H   51.854539   47.328385    2.977237
 H   50.952725   46.102706    2.049901
 H   53.556456   46.171220    1.707436
 H   52.543854   46.102040    0.266027
 H   50.875246   50.087320    0.915737
 H   51.601636   49.588577    2.460929
 H   53.149376   49.527249   -1.868979
 H   53.987619   51.482078   -3.084602
 H   54.680893   53.509444   -1.853707
 H   54.981252   54.693566    0.243097
 H   54.883555   54.742911    2.704588
 H   54.137686   52.749453    3.949315
 H   53.455876   50.726679    2.757799
