58 
1n9a_ligand_dft.xyz
 C    3.634692    2.294579    0.005561
 C    3.790589    0.795021   -0.276885
 N    2.849911    0.368575   -1.315134
 C    1.926963    1.374208   -1.848340
 C    1.297625    2.122213   -0.690713
 C   -0.175549    2.225817   -0.576091
 C   -0.870760    1.574728    0.494522
 C   -2.276540    1.772334    0.606666
 C   -2.956080    2.555127   -0.361715
 C   -2.275564    3.115254   -1.411044
 C   -0.877237    2.950330   -1.513698
 C   -2.984634    1.140511    1.662520
 C    2.649138   -0.933017   -1.659618
 C   -0.234699    0.699809    1.416338
 C   -2.336980    0.320439    2.547321
 C   -0.948493    0.090259    2.414607
 C    0.429237   -3.308119   -0.625301
 N    1.767475   -2.298732    2.588213
 C    0.850773   -2.782635    1.786061
 N    1.231049   -2.774297    0.479556
 C    2.508421   -2.242309    0.448983
 C    2.805167   -1.961861    1.759793
 C    3.309003   -2.009985   -0.798653
 C   -1.070580   -1.446740   -1.418489
 C   -0.923829   -2.635337   -0.702588
 C   -2.023882   -3.168233   -0.028546
 C   -3.244880   -2.507638   -0.032362
 C   -3.372512   -1.304016   -0.730797
 C   -2.285618   -0.780247   -1.436715
 C   -4.612543   -0.579993   -0.699954
 N   -5.601024    0.024844   -0.661234
 C    2.170745    2.605739    0.210547
 O    1.899856   -1.261018   -2.576142
 C    1.769175    3.341491    1.370315
 N    1.498248    3.952412    2.318090
 H    4.031797    2.879926   -0.833734
 H    4.225066    2.554234    0.886721
 H    3.591527    0.248650    0.649335
 H    4.819271    0.585594   -0.591897
 H    1.184288    0.854749   -2.449862
 H    2.464477    2.067206   -2.510503
 H   -4.031895    2.676303   -0.271994
 H   -2.801948    3.701189   -2.157764
 H   -0.342805    3.430757   -2.329328
 H   -4.056659    1.300727    1.735787
 H    0.827149    0.494095    1.324086
 H   -2.888879   -0.163065    3.347666
 H   -0.433921   -0.571538    3.104019
 H    0.315575   -4.387299   -0.479391
 H    0.982306   -3.138830   -1.549977
 H   -0.122024   -3.142601    2.091189
 H    3.727456   -1.550738    2.150469
 H    4.327383   -1.744797   -0.503205
 H    3.370862   -2.909401   -1.417445
 H   -0.222101   -1.049938   -1.965839
 H   -1.925933   -4.106596    0.511653
 H   -4.095000   -2.913495    0.505366
 H   -2.391322    0.157019   -1.973008
