36 
1ndw_ligand_xtb.xyz
 C   -1.291047   -0.330671   -0.622451
 N   -0.845896    0.871815   -0.169253
 C   -1.807251    1.346921    0.662718
 N   -2.815883    0.531782    0.767545
 C   -2.513461   -0.538161   -0.033245
 C   -3.416899   -1.692056   -0.176088
 O   -3.165702   -2.664659   -0.862049
 N   -4.553708   -1.550454    0.540779
 C    0.400519    1.504660   -0.524845
 C    0.134667    2.758026   -1.375013
 O   -0.453458    3.752102   -0.569463
 C    1.224859    1.851061    0.720063
 C    1.538931    0.617409    1.574435
 C    2.329716   -0.402246    0.801886
 C    3.648710   -0.142231    0.447815
 C    4.373174   -1.055036   -0.296636
 C    3.787136   -2.243692   -0.698919
 C    2.477888   -2.516912   -0.343221
 C    1.755378   -1.602202    0.403812
 H   -0.735512   -0.937821   -1.306196
 H   -1.734778    2.295287    1.154195
 H   -5.252526   -2.272420    0.529602
 H   -4.678942   -0.713839    1.084613
 H    0.958153    0.790322   -1.141708
 H   -0.529449    2.488446   -2.208721
 H    1.090059    3.109508   -1.790077
 H   -0.674740    4.512968   -1.115071
 H    2.155418    2.312774    0.386366
 H    0.677817    2.583803    1.313065
 H    2.111756    0.941982    2.446250
 H    0.608048    0.172175    1.930579
 H    4.113276    0.781156    0.764675
 H    5.397962   -0.839769   -0.562619
 H    4.351369   -2.955804   -1.282625
 H    2.014812   -3.443842   -0.647436
 H    0.735049   -1.825691    0.681841
