49 
1nfu_ligand_xtb.xyz
 N    6.511332    2.974034   -1.917137
 C    6.524264    2.034605   -1.061370
 N    7.597434    1.188709   -1.029073
 C    5.426564    1.702498   -0.113323
 C    5.090970    0.375577    0.140496
 C    4.051132    0.061713    1.001243
 C    3.342146    1.087387    1.617532
 C    3.667851    2.408070    1.368051
 C    4.701365    2.717305    0.501320
 C    3.655524   -1.368354    1.256886
 N    2.301697   -1.623355    0.789914
 C    1.330466   -1.877825    1.688354
 O    1.521760   -1.849023    2.888709
 C   -0.067827   -2.165226    1.148577
 N   -0.121424   -2.335114   -0.276087
 C    0.662679   -1.368054   -0.997337
 C    2.119559   -1.635382   -0.646051
 S   -1.588675   -2.786908   -0.908036
 O   -1.424030   -2.899111   -2.322640
 O   -2.061638   -3.899480   -0.149375
 C   -2.658862   -1.408837   -0.561688
 C   -3.534323   -1.308739    0.463858
 C   -4.192012   -0.044987    0.496656
 C   -3.754271    0.797266   -0.547697
 S   -2.553604    0.013049   -1.542851
 C   -4.260162    2.078814   -0.710201
 C   -5.216153    2.511265    0.188427
Cl   -5.873855    4.095679    0.021418
 C   -5.666825    1.696539    1.231685
 C   -5.160127    0.428014    1.386992
 H    5.649433    3.508330   -1.943099
 H    8.383107    1.484293   -1.586158
 H    7.810090    0.720553   -0.164631
 H    5.640800   -0.413683   -0.352811
 H    2.539748    0.838764    2.296057
 H    3.117288    3.200612    1.852483
 H    4.962325    3.748883    0.311696
 H    3.657700   -1.574913    2.330776
 H    4.341693   -2.056194    0.752936
 H   -0.709890   -1.333735    1.488178
 H   -0.438286   -3.080969    1.613961
 H    0.389669   -0.337814   -0.719895
 H    0.478980   -1.520582   -2.060537
 H    2.414849   -2.612150   -1.049234
 H    2.761635   -0.863105   -1.080459
 H   -3.711766   -2.112756    1.154054
 H   -3.920574    2.712907   -1.512380
 H   -6.415253    2.074950    1.909371
 H   -5.503299   -0.207083    2.188447
