96 
1nh0_ligand_xtb.xyz
 O    2.100725    3.916448   -0.361603
 C    6.537338    1.918025    0.907307
 C    6.549646    3.274856    1.183478
 C    5.375768    4.005543    1.133731
 C    4.174720    3.386433    0.812602
 C    4.171300    2.025980    0.533862
 C    5.345278    1.296050    0.580230
 C    1.128057    2.998807   -0.240899
 O    0.857238    2.430178    0.803671
 N    0.465581    2.845906   -1.397344
 C   -0.438316    1.746878   -1.656838
 C   -1.633014    2.210584   -2.497732
 C   -2.633757    2.999059   -1.699184
 C   -3.900569    2.479600   -1.467220
 C   -4.835633    3.184433   -0.727729
 C   -4.508652    4.423216   -0.204632
 C   -3.249840    4.953357   -0.433982
 C   -2.320535    4.249162   -1.178968
 C    2.896016    4.186899    0.792036
 C    0.341330    0.618093   -2.388241
 O    1.687863    0.576819   -2.002627
 C   -0.355547   -0.742589   -2.217347
 O   -1.569531   -0.883209   -2.224770
 N    0.513835   -1.747690   -2.085449
 C    0.182128   -3.147833   -2.041802
 C   -0.281631   -3.662592   -0.668577
 O   -0.451119   -4.849417   -0.483227
 C    1.401215   -3.973454   -2.495842
 C    2.600527   -3.624744   -1.657741
 C    2.800307   -4.231756   -0.423471
 C    3.493619   -2.643506   -2.074552
 C    3.861090   -3.854370    0.380492
 C    4.553567   -2.263769   -1.268908
 C    4.735142   -2.863720   -0.035910
 N   -0.491329   -2.725802    0.272079
 C   -0.964722   -3.086194    1.584286
 C   -2.468411   -2.813013    1.779755
 O   -3.083752   -3.314864    2.695395
 C   -0.216695   -2.354944    2.717095
 C    1.257999   -2.056626    2.398087
 C    1.405443   -0.767283    1.627399
 O    1.145537    0.306041    2.352253
 O    1.727544   -0.703317    0.461081
 N   -3.011208   -1.969091    0.878039
 C   -4.333517   -1.426058    1.082498
 C   -5.026677   -0.966393   -0.205105
 O   -6.122060   -0.445286   -0.155473
 C   -4.346827   -0.278747    2.110987
 C   -3.525548    0.950805    1.687184
 C   -2.042720    0.731648    1.800619
 O   -1.348382    0.220818    0.946508
 O   -1.546055    1.144179    2.953800
 N   -4.389625   -1.192275   -1.366146
 H    7.454616    1.349519    0.945066
 H    7.477063    3.767457    1.434983
 H    5.391110    5.064345    1.348376
 H    3.253353    1.525473    0.269905
 H    5.318827    0.238880    0.363357
 H    0.866268    3.308335   -2.201113
 H   -0.777901    1.375541   -0.686556
 H   -1.258519    2.811632   -3.331377
 H   -2.116747    1.320663   -2.900349
 H   -4.159908    1.513343   -1.873916
 H   -5.812171    2.756572   -0.556861
 H   -5.232630    4.976617    0.374469
 H   -2.991782    5.923416   -0.034437
 H   -1.345054    4.676129   -1.359222
 H    2.301967    3.967270    1.689109
 H    3.114003    5.256704    0.756936
 H    0.354049    0.841656   -3.464326
 H    1.746172    0.290075   -1.071696
 H    1.499998   -1.515935   -2.020982
 H   -0.661635   -3.324560   -2.723215
 H    1.144517   -5.026470   -2.376685
 H    1.601002   -3.770401   -3.549226
 H    2.119804   -5.004047   -0.096731
 H    3.374909   -2.181672   -3.045693
 H    4.009512   -4.336472    1.336225
 H    5.235151   -1.498250   -1.610015
 H    5.559910   -2.569920    0.597076
 H   -0.325788   -1.751974    0.070853
 H   -0.814885   -4.168429    1.674081
 H   -0.726709   -1.419285    2.948626
 H   -0.278971   -2.979993    3.607389
 H    1.802664   -1.938626    3.335974
 H    1.699021   -2.867504    1.818395
 H    1.149011    1.126371    1.785303
 H   -2.393269   -1.443145    0.275646
 H   -4.945572   -2.237183    1.499452
 H   -5.385093    0.034074    2.223409
 H   -3.990567   -0.658447    3.070004
 H   -3.766184    1.210319    0.655429
 H   -3.785551    1.785171    2.338706
 H   -0.579773    0.991960    2.997582
 H   -3.426806   -1.474321   -1.455685
 H   -4.859561   -0.900372   -2.208402
