10 
1nki_ligand_xtb.xyz
 C   -1.249107   -0.197889   -0.036376
 O    1.276876   -0.600121   -1.230338
 O    1.167993   -0.717124    1.249137
 O    0.851775    1.568882    0.120280
 O   -1.735901   -1.284032   -0.111809
 O   -1.911797    0.937304    0.025263
 P    0.603395    0.127887    0.034502
 H    1.422040    0.013914   -1.950512
 H    1.114189   -1.666135    1.117293
 H   -1.284082    1.681986    0.113674
