10 
1nki_ligand_dft.xyz
 C   -1.193593   -0.156019   -0.059232
 O    1.256214   -0.073236   -1.383968
 O    1.100182   -1.137270    0.903545
 O    0.870968    1.505766    0.617218
 O   -1.630982   -1.280377   -0.071431
 O   -1.949797    0.934113   -0.104497
 P    0.632970    0.157387    0.075779
 H    1.526995   -0.987605   -1.544175
 H    0.351361   -1.743427    1.035361
 H   -1.384015    1.714371    0.040582
