58 
1nl4_ligand_dft.xyz
 C    1.522439    1.580765    0.718707
 N    2.114564    0.566078   -0.129174
 C    1.447790   -0.626684   -0.354344
 C    2.062484   -1.711573   -1.008876
 C    1.344035   -2.862532   -1.270181
 C    0.003639   -2.991277   -0.885756
 C   -0.616726   -1.936529   -0.193031
 C    0.116858   -0.783676    0.065060
 C   -2.014401   -2.023035    0.310384
 C   -2.986649   -1.020099   -0.016126
 C   -4.275581   -1.099890    0.586881
 C   -4.576416   -2.175837    1.461367
 C   -3.642792   -3.139454    1.728632
 C   -2.356707   -3.055035    1.154614
 C   -0.698826   -4.195828   -1.219004
 C   -5.243374   -0.102724    0.297539
 N   -1.232072   -5.185135   -1.506281
 C   -2.740415    0.040382   -0.931522
 C   -4.965409    0.919909   -0.569649
 C   -3.703174    0.978760   -1.200561
 N    5.537790   -0.862718    2.092456
 C    4.320452   -0.531177    1.552482
 C    4.479097    0.168256    0.385135
 N    5.842586    0.267383    0.202134
 C    6.420398   -0.370228    1.260731
 C    6.522882    0.923041   -0.893048
 C    0.394907    2.574273   -1.326003
 C    0.398203    2.360612    0.052305
 C   -0.643556    2.875536    0.817848
 C   -1.667037    3.608595    0.211022
 C   -1.652099    3.837759   -1.167499
 C   -0.618393    3.311236   -1.931078
 C   -2.755536    4.109907    1.004054
 N   -3.636500    4.517073    1.637422
 C    3.480319    0.757735   -0.566568
 H    2.319764    2.271611    1.010980
 H    1.159142    1.135424    1.654129
 H    3.108583   -1.675777   -1.286628
 H    1.827499   -3.688797   -1.781066
 H   -0.390315    0.013198    0.592211
 H   -5.564916   -2.223047    1.910620
 H   -3.877165   -3.965955    2.391869
 H   -1.616578   -3.810055    1.401699
 H   -6.216034   -0.168841    0.777969
 H   -1.780253    0.103702   -1.432047
 H   -5.712162    1.679209   -0.779888
 H   -3.491939    1.774122   -1.908440
 H    3.391708   -0.822198    2.023967
 H    7.496052   -0.438518    1.361822
 H    6.250699    0.467130   -1.850052
 H    6.278132    1.989484   -0.922816
 H    7.600082    0.817918   -0.752436
 H    1.186165    2.141810   -1.931398
 H   -0.678063    2.698004    1.889189
 H   -2.452034    4.407418   -1.628202
 H   -0.605685    3.470469   -3.004558
 H    3.646078    1.837152   -0.677966
 H    3.598194    0.340651   -1.575956
