58 
1nl4_ligand_xtb.xyz
 C    1.490304    1.734993    0.764281
 N    2.098989    0.789711   -0.148213
 C    1.503735   -0.432680   -0.352589
 C    2.166984   -1.493302   -0.989837
 C    1.523483   -2.685622   -1.228965
 C    0.195254   -2.879618   -0.844795
 C   -0.483370   -1.836977   -0.197557
 C    0.178640   -0.646606    0.043299
 C   -1.871981   -1.985543    0.270680
 C   -2.867532   -1.045143   -0.113833
 C   -4.159751   -1.142388    0.467234
 C   -4.434564   -2.188076    1.373036
 C   -3.476320   -3.111572    1.681583
 C   -2.191624   -3.005610    1.134167
 C   -0.446434   -4.099850   -1.132971
 C   -5.144300   -0.195487    0.114698
 N   -0.946293   -5.101423   -1.388282
 C   -2.640318   -0.043297   -1.081646
 C   -4.882551    0.781120   -0.803407
 C   -3.625295    0.841384   -1.421301
 N    5.447052   -0.795192    2.030711
 C    4.255480   -0.357417    1.550982
 C    4.441991    0.330712    0.382713
 N    5.795462    0.305849    0.150167
 C    6.342991   -0.387299    1.179275
 C    6.480322    0.893870   -0.963779
 C    0.291807    2.816483   -1.168051
 C    0.280346    2.416794    0.163428
 C   -0.854999    2.644914    0.925560
 C   -1.966587    3.264243    0.358072
 C   -1.940639    3.674306   -0.974314
 C   -0.807306    3.443994   -1.729900
 C   -3.132061    3.463452    1.134503
 N   -4.077480    3.625777    1.761496
 C    3.471642    1.011173   -0.532619
 H    2.234651    2.496912    1.013230
 H    1.208819    1.241984    1.703132
 H    3.199552   -1.404847   -1.283375
 H    2.051215   -3.491095   -1.718853
 H   -0.373535    0.123397    0.553727
 H   -5.420750   -2.248526    1.810123
 H   -3.693011   -3.921634    2.361760
 H   -1.434906   -3.723269    1.416653
 H   -6.117076   -0.265707    0.579332
 H   -1.678974    0.008650   -1.572304
 H   -5.642280    1.500831   -1.069521
 H   -3.439781    1.590400   -2.177614
 H    3.342251   -0.570669    2.068669
 H    7.396172   -0.566970    1.262329
 H    6.158589    0.436086   -1.902768
 H    6.284205    1.967447   -1.014542
 H    7.550880    0.736059   -0.845748
 H    1.167663    2.626209   -1.770303
 H   -0.891573    2.336228    1.961173
 H   -2.804688    4.161123   -1.400822
 H   -0.779905    3.751014   -2.764746
 H    3.656828    2.092851   -0.533833
 H    3.617446    0.664779   -1.564538
