15 
1nli_ligand_xtb.xyz
 N   -2.078942    0.568558   -0.000643
 C   -2.271423   -0.785799    0.001279
 N   -1.171278   -1.469699    0.001285
 C   -0.169699   -0.530157   -0.000905
 C    1.235049   -0.598413    0.000142
 N    1.909915   -1.760423   -0.010352
 N    1.924014    0.545548    0.002458
 C    1.267787    1.695017    0.001210
 N   -0.035809    1.897860   -0.001042
 C   -0.729104    0.759942   -0.001597
 H   -3.250394   -1.223593    0.002997
 H    1.401696   -2.624550    0.026978
 H    2.912823   -1.742788    0.024281
 H    1.884226    2.584047    0.003238
 H   -2.779310    1.290435   -0.000210
