37 
1nnb_ligand_xtb.xyz
 C   -3.722441   -0.530829   -0.069758
 C   -2.257467   -0.749199   -0.181255
 C   -1.719577   -1.952793    0.018480
 C   -0.239717   -2.194393    0.035546
 C    0.534358   -0.848129   -0.035721
 C   -0.225288    0.132395   -0.946309
 C    0.365886    1.543922   -1.150584
 C    0.168404    2.538212    0.011644
 C    0.799577    2.120052    1.346430
 C    2.852366   -1.737248    0.030069
 C    4.187663   -1.622705   -0.666972
 N    1.870218   -1.039173   -0.574941
 O   -4.066833    0.748612   -0.229059
 O   -4.522860   -1.403960    0.145430
 O    0.034856   -2.889823    1.217955
 O   -1.546435    0.367502   -0.506354
 O    1.726839    1.485053   -1.503208
 O    0.783488    3.727304   -0.443329
 O    0.885769    3.290203    2.138848
 O    2.680885   -2.421760    1.023973
 H   -2.348174   -2.784521    0.286562
 H    0.047237   -2.803518   -0.843590
 H    0.592957   -0.469286    0.990928
 H   -0.262562   -0.347795   -1.940110
 H   -0.202410    1.982101   -1.988162
 H   -0.906908    2.700899    0.160385
 H    0.164119    1.375028    1.834949
 H    1.801984    1.703754    1.174045
 H    4.940956   -2.148440   -0.087709
 H    4.121882   -2.070871   -1.655863
 H    4.471023   -0.578990   -0.777329
 H    2.127950   -0.400406   -1.313867
 H   -5.028937    0.844943   -0.143227
 H    1.008299   -2.904210    1.341716
 H    2.034133    2.404861   -1.466609
 H    0.881383    4.296862    0.331882
 H    1.197303    3.053040    3.017108
