24 
1noj_ligand_xtb.xyz
 C    0.544626   -1.212387    0.117319
 C   -0.875003   -1.310280    0.532086
 C   -1.655502   -0.250324   -0.259717
 C   -1.012382    1.133752   -0.067512
 C    0.426196    1.182536   -0.606149
 C    1.235714    2.281280    0.091233
 N    1.073318   -0.082266   -0.400072
 N    2.347797   -0.351409   -0.689885
 N    2.564317   -1.557169   -0.376043
 N    1.479075   -2.134242    0.125160
 O   -1.432005   -2.574328    0.268004
 O   -2.985306   -0.151525    0.181709
 O   -1.743477    2.114652   -0.751963
 O    1.275962    1.979819    1.468164
 H   -0.954766   -1.080256    1.610210
 H   -1.633202   -0.525321   -1.327697
 H   -0.997772    1.348666    1.012613
 H    0.389775    1.398598   -1.680902
 H    2.245970    2.297415   -0.336384
 H    0.739413    3.242028   -0.092663
 H   -0.759626   -3.246380    0.434306
 H   -3.344331   -1.046119    0.224350
 H   -2.675489    1.967168   -0.543003
 H    1.835193    2.623389    1.914177
