27 
1np0_ligand_xtb.xyz
 C   -0.380265   -0.809441    0.980477
 C   -0.874822    0.654002    0.945140
 C   -0.072798    1.499718   -0.064116
 C    1.426991    1.205071    0.034508
 C    1.637844   -0.298502   -0.155673
 C    3.116175   -0.685586   -0.070858
 C   -2.595891   -0.326956   -0.152464
 C   -3.922504   -0.483975   -0.786184
 N   -2.245430    0.674916    0.525563
 S   -1.407244   -1.633579   -0.339863
 O   -0.260790    2.874875    0.158118
 O    2.135961    1.900771   -0.951532
 O    0.970290   -1.010546    0.881715
 O    3.318787   -2.041569   -0.349129
 H   -0.683092   -1.296748    1.914984
 H   -0.781383    1.108204    1.936803
 H   -0.405452    1.234355   -1.083380
 H    1.776626    1.492055    1.040401
 H    1.237202   -0.605157   -1.133020
 H    3.672423   -0.116469   -0.816390
 H    3.483821   -0.429884    0.932939
 H   -3.801964   -0.638908   -1.856778
 H   -4.524101    0.402025   -0.604517
 H   -4.423378   -1.359732   -0.377822
 H   -1.209243    3.044327    0.204469
 H    1.827059    2.816325   -0.930640
 H    2.743033   -2.551777    0.233462
