76 
1npz_ligand_xtb.xyz
 N   -2.244581   -1.891045   -0.087452
 C   -2.774011   -0.683966   -0.472222
 O   -2.238167    0.382678   -0.194854
 N   -3.947025   -0.728164   -1.166281
 C   -4.848731   -1.855755   -1.254039
 C   -6.082092   -1.584892   -0.378573
 O   -6.720368   -0.385801   -0.746650
 C   -5.841381    0.713122   -0.635481
 C   -4.603027    0.517579   -1.514056
 C   -0.884786   -1.867460    0.425472
 C    0.080098   -1.617673   -0.747332
 O   -0.177362   -2.027550   -1.865115
 N    1.189527   -0.952950   -0.389748
 C    2.116251   -0.342460   -1.330514
 C    1.401751    0.695455   -2.212522
 C    0.461087    1.581940   -1.411879
 S    1.263933    2.268027    0.077177
 O    2.548101    2.811667   -0.282891
 O    1.259494    1.291081    1.147164
 C    0.173892    3.609932    0.567890
 C    0.681526    4.889893    0.672338
 C   -0.157987    5.921221    1.060881
 C   -1.490380    5.656972    1.335640
 C   -1.987388    4.367308    1.224931
 C   -1.152628    3.330250    0.840196
 C    2.818872   -1.403728   -2.179552
 C    3.622663   -2.385192   -1.316229
 C    4.704882   -1.678728   -0.550935
 C    4.507145   -1.286151    0.766802
 C    5.489566   -0.594777    1.452873
 C    6.686843   -0.288846    0.829629
 C    6.895868   -0.678140   -0.482396
 C    5.910202   -1.366090   -1.166722
 C   -0.548202   -3.193098    1.106652
 C   -1.443256   -3.505773    2.311841
 C   -1.227204   -4.952519    2.752053
 C   -1.162591   -2.558233    3.475305
 H   -2.393759   -2.661142   -0.724739
 H   -4.370776   -2.776330   -0.926414
 H   -5.164831   -1.963439   -2.298274
 H   -5.769383   -1.536703    0.676578
 H   -6.823717   -2.375751   -0.501730
 H   -6.408402    1.589675   -0.951467
 H   -5.527446    0.837138    0.412161
 H   -3.893537    1.331671   -1.365320
 H   -4.901862    0.469752   -2.566581
 H   -0.816522   -1.034546    1.129159
 H    1.183259   -0.485860    0.511326
 H    2.858722    0.183248   -0.721971
 H    0.826433    0.177703   -2.983874
 H    2.162266    1.313155   -2.691981
 H    0.158261    2.453580   -1.986985
 H   -0.421553    1.050959   -1.060481
 H    1.724403    5.052497    0.449309
 H    0.226004    6.926171    1.149605
 H   -2.145204    6.460619    1.638813
 H   -3.026547    4.168339    1.439799
 H   -1.521538    2.321108    0.748175
 H    2.066626   -1.954134   -2.745016
 H    3.487166   -0.899952   -2.879754
 H    4.064480   -3.140706   -1.969497
 H    2.941946   -2.885241   -0.625570
 H    3.573886   -1.521209    1.258218
 H    5.317925   -0.291523    2.475102
 H    7.454856    0.250858    1.363978
 H    7.829186   -0.443771   -0.973927
 H    6.077199   -1.667416   -2.191666
 H    0.495037   -3.160904    1.426897
 H   -0.645243   -3.991414    0.365746
 H   -2.487397   -3.383601    2.004412
 H   -0.191937   -5.105994    3.049069
 H   -1.457688   -5.643171    1.943915
 H   -1.865047   -5.192846    3.599373
 H   -1.788245   -2.813657    4.327638
 H   -0.121171   -2.630979    3.781473
 H   -1.369689   -1.527246    3.202502
