61 
1nqc_ligand_xtb.xyz
 N    0.881958   -0.142695   -0.462285
 C    0.613975    0.924754   -1.265144
 O    0.032007    0.800790   -2.338323
 N    1.019396    2.143993   -0.817841
 C    0.689435    3.324551   -1.591973
 C    0.182681    4.403136   -0.634641
 O    1.149849    4.697959    0.351820
 C    1.471527    3.554378    1.103532
 C    1.997167    2.422926    0.209121
 C    0.569692   -1.499420   -0.875216
 C   -0.909488   -1.812669   -0.593810
 O   -1.285437   -2.632521    0.219802
 N   -1.735289   -1.034921   -1.313451
 C   -3.154423   -1.037020   -1.098593
 C   -3.892907   -1.847337   -2.150160
 O   -3.390789   -2.354974   -3.106919
 C   -3.710173    0.390515   -1.103409
 S   -2.837874    1.517797    0.024845
 C   -3.254555    0.804433    1.668578
 C   -2.148647   -0.040178    2.218700
 C   -2.357637   -1.354981    2.608107
 C   -1.315788   -2.105420    3.125099
 C   -0.056895   -1.549108    3.260495
 C    0.160185   -0.235393    2.875386
 C   -0.880266    0.511038    2.355616
 C    1.481108   -2.482738   -0.133541
 C    2.910652   -2.031039   -0.201163
 C    3.640868   -2.175140   -1.374318
 C    4.941684   -1.712689   -1.456455
 C    5.531453   -1.096659   -0.365362
 C    4.814641   -0.951847    0.809473
 C    3.513160   -1.415989    0.888288
 H    1.001995   -0.012191    0.528826
 H   -0.075361    3.054290   -2.319201
 H    1.581409    3.687841   -2.118259
 H   -0.003452    5.337221   -1.165462
 H   -0.748039    4.057808   -0.159536
 H    2.235232    3.863027    1.819795
 H    0.580801    3.207356    1.649567
 H    2.218425    1.538816    0.803690
 H    2.928895    2.757426   -0.269304
 H    0.737304   -1.546299   -1.956806
 H   -1.329371   -0.381514   -1.985028
 H   -3.330253   -1.522807   -0.127166
 H   -4.981205   -1.924062   -1.949562
 H   -3.568262    0.839269   -2.087289
 H   -4.771152    0.399731   -0.850879
 H   -4.186481    0.251613    1.563358
 H   -3.425554    1.671294    2.309705
 H   -3.337931   -1.799033    2.510217
 H   -1.487901   -3.130547    3.412534
 H    0.754218   -2.136645    3.665795
 H    1.138004    0.213396    2.995162
 H   -0.722843    1.533754    2.042841
 H    1.361087   -3.466939   -0.588045
 H    1.141731   -2.548011    0.902060
 H    3.185501   -2.656098   -2.227840
 H    5.498335   -1.832825   -2.374321
 H    6.547035   -0.734885   -0.429178
 H    5.270598   -0.477545    1.666827
 H    2.961045   -1.311484    1.812325
