63 
1nvq_ligand_xtb.xyz
 O    0.384254    4.579035    1.083041
 C    1.071682    3.951849    0.041971
 N    2.502673    3.995775    0.216698
 C    3.132774    2.788060    0.180248
 O    4.318007    2.606812    0.319165
 C    2.048864    1.796433   -0.037628
 C    2.098196    0.409682   -0.193330
 C    3.150217   -0.565640   -0.216924
 C    2.544324   -1.817284   -0.461445
 C    3.292127   -2.980000   -0.549439
 C    4.663251   -2.867361   -0.403289
 C    5.271803   -1.636654   -0.164545
 C    4.530696   -0.476662   -0.067976
 N    1.168809   -1.649288   -0.543677
 C    0.890571   -0.296741   -0.416004
 C   -0.330077    0.371466   -0.471418
 N   -1.621865   -0.110984   -0.633536
 C   -2.491453    0.981779   -0.551190
 C   -1.737169    2.158424   -0.341295
 C   -2.357160    3.394664   -0.197871
 C   -3.732936    3.449815   -0.260372
 C   -4.477387    2.287706   -0.438436
 C   -3.876811    1.049971   -0.575822
 C   -0.357830    1.774401   -0.288732
 C    0.834649    2.465828   -0.099210
 C   -1.943569   -1.471987   -1.042041
 O   -0.847813   -2.095341   -1.681324
 C    0.223821   -2.648731   -0.974812
 C   -0.220675   -3.522168    0.215806
 C   -1.252238   -2.805520    1.069216
 N   -0.721101   -1.612021    1.791267
 C    0.049644   -1.894229    3.010399
 C   -2.426451   -2.302131    0.198296
 O   -3.241601   -1.481866    1.007744
 C   -4.422978   -2.084479    1.509902
 C   -3.030849   -1.491136   -2.127731
 H    0.699679    4.242231    1.930510
 H    0.759013    4.488080   -0.866336
 H    3.006547    4.863667    0.298531
 H    2.833338   -3.938373   -0.741449
 H    5.273197   -3.754308   -0.478000
 H    6.344226   -1.593797   -0.058477
 H    4.990076    0.482088    0.111418
 H   -1.765855    4.278278   -0.022716
 H   -4.240028    4.396010   -0.157753
 H   -5.554627    2.348647   -0.464377
 H   -4.496039    0.177485   -0.679529
 H    0.725538   -3.287514   -1.716229
 H    0.657700   -3.802714    0.797615
 H   -0.675451   -4.435768   -0.168720
 H   -1.646988   -3.484338    1.834801
 H   -1.574876   -1.056358    2.000467
 H   -0.139921   -1.037097    1.141451
 H   -0.547192   -2.474505    3.711884
 H    0.950846   -2.452124    2.762911
 H    0.342153   -0.960261    3.485288
 H   -2.976464   -3.171464   -0.179529
 H   -4.932706   -1.307214    2.074249
 H   -5.069492   -2.425749    0.698801
 H   -4.196160   -2.928266    2.168094
 H   -2.900445   -2.396449   -2.714609
 H   -4.027856   -1.483576   -1.704771
 H   -2.910812   -0.636233   -2.785748
