52 
1nw5_ligand_xtb.xyz
 N    2.557151    2.169995    0.522234
 C    3.019057    0.811886    0.196705
 C    4.521597    0.742920   -0.062756
 O    5.180966   -0.249398    0.047755
 O    5.012671    1.923861   -0.453448
 C    2.291201    0.277998   -1.054018
 C    2.486061   -1.217929   -1.220768
 S    1.640873   -2.151540    0.344585
 C    2.797359   -3.534367    0.090705
 C    0.133723   -2.472754   -0.670654
 C   -1.088353   -2.872038    0.151434
 O   -1.319617   -1.974656    1.236099
 C   -2.386355   -2.829007   -0.676092
 O   -3.303951   -3.709793   -0.119230
 C   -2.825408   -1.355056   -0.510423
 O   -4.202560   -1.233777   -0.589918
 C   -2.242971   -1.006142    0.890466
 N   -1.584291    0.295936    0.841964
 C   -0.325357    0.560385    1.196731
 N    0.001017    1.818178    0.936076
 C   -1.107668    2.418242    0.378814
 C   -1.450338    3.704395   -0.103929
 N   -0.625193    4.756035   -0.121868
 N   -2.678405    3.860617   -0.599221
 C   -3.532896    2.859412   -0.621453
 N   -3.337115    1.624341   -0.181183
 C   -2.119953    1.445854    0.318697
 H    1.060288    2.113240    0.853571
 H    2.770938    2.783178   -0.262146
 H    3.073819    2.521448    1.324955
 H    2.801244    0.155406    1.044443
 H    5.961333    1.856157   -0.648181
 H    2.656482    0.823328   -1.931297
 H    1.224742    0.500282   -0.954949
 H    2.084987   -1.551482   -2.173805
 H    3.543678   -1.453178   -1.186212
 H    2.777989   -3.819015   -0.954720
 H    3.788862   -3.178337    0.353340
 H    2.508711   -4.357887    0.732532
 H   -0.051632   -1.554163   -1.224102
 H    0.386332   -3.268035   -1.367784
 H   -0.953277   -3.858715    0.598811
 H   -2.206051   -3.064498   -1.735288
 H   -4.196667   -3.398715   -0.326612
 H   -2.324852   -0.736987   -1.271955
 H   -4.443105   -0.295468   -0.548927
 H   -3.045001   -0.957102    1.640947
 H    0.319733   -0.181569    1.627312
 H   -1.004117    5.632846   -0.441838
 H    0.261745    4.744589    0.348591
 H   -4.504277    3.069546   -1.044526
 H    0.963707   -3.028640    1.457645
