36 
1ny0_ligand_xtb.xyz
 C    1.227181    3.629306    1.252200
 C    0.853170    3.380299   -0.203503
 O    1.736144    2.476904   -0.843868
 C    1.771586    1.151645   -0.546819
 C    0.787847    0.376301    0.031891
 C   -0.551982    0.880946    0.494662
 O   -0.777048    1.284078    1.619867
 N   -1.492927    0.809024   -0.475544
 C   -2.905110    0.994763   -0.191371
 B   -3.771711   -0.322879   -0.473944
 O   -3.138977   -1.368869   -1.055590
 O   -5.077588   -0.311137   -0.135580
 C    1.000954   -1.019807    0.209279
 C    2.213109   -1.616287   -0.221390
 C    2.406461   -2.999851   -0.044318
 C    1.440357   -3.773463    0.536603
 C    0.241311   -3.187617    0.965417
 C    0.024426   -1.846543    0.806752
 C    3.191406   -0.796019   -0.823377
 C    2.976169    0.536875   -0.975868
 H    1.016683    2.749415    1.854198
 H    2.284565    3.872582    1.328017
 H    0.641686    4.458557    1.638699
 H    0.965866    4.300355   -0.785688
 H   -0.184991    3.044709   -0.282480
 H   -1.269649    0.305054   -1.319589
 H   -3.284037    1.840878   -0.775665
 H   -2.972771    1.286716    0.859881
 H   -3.642192   -2.167657   -1.217186
 H   -5.593622   -1.101325   -0.302605
 H    3.337126   -3.437554   -0.376912
 H    1.594371   -4.834171    0.670842
 H   -0.514119   -3.805758    1.428700
 H   -0.900403   -1.407377    1.148929
 H    4.116176   -1.243693   -1.157467
 H    3.712787    1.179391   -1.432732
