68 
1o0d_ligand_dft.xyz
 N    3.467387   -2.942191   -1.065156
 C    2.787594   -1.790482   -1.349310
 N    1.554619   -1.873815   -1.759189
 C    3.471596   -0.551080   -0.969085
 N    3.040559    0.702030   -1.366098
 C    2.418629    1.034634   -2.642221
 C    4.290897   -0.389781    0.136940
 C    4.335929    0.984601    0.432960
 C    3.553354    1.629162   -0.498616
 C    3.112292    3.061053   -0.521274
 N    1.653189    3.186032   -0.465031
 C    0.905376    2.520199    0.444333
 O    1.364855    1.864967    1.364791
 C   -0.630260    2.633110    0.278727
 C   -1.236271    3.531305    1.323084
 C   -1.959240    2.841334    2.196780
 C   -1.973067    1.374295    1.874029
 N   -1.216182    1.336739    0.619729
 C   -0.905746    0.281390   -0.145089
 O   -0.249844    0.397760   -1.177914
 C   -1.333904   -1.123388    0.295277
 C   -2.176873   -1.838393   -0.766071
 C   -3.637730   -1.377819   -0.892064
 C   -4.447844   -1.583597    0.396118
 C   -5.927740   -1.252620    0.179683
 C   -6.105658    0.165567   -0.369281
 C   -5.289428    0.376233   -1.647662
 C   -3.809438    0.055474   -1.416492
 N   -0.066991   -1.913740    0.485596
 C    0.899485   -1.352309    1.471916
 C    1.923635   -2.383328    1.909480
 O    1.538111   -3.630158    1.579979
 O    2.920299   -2.113263    2.515082
 H    3.056986   -3.783745   -1.445306
 H    4.475760   -2.907210   -1.076202
 H    1.159358   -0.945154   -1.892999
 H    2.951840    1.871223   -3.101217
 H    1.366210    1.290529   -2.508479
 H    2.497513    0.181029   -3.316068
 H    4.706326   -1.187255    0.736351
 H    4.818554    1.451016    1.279568
 H    3.562328    3.567900    0.336613
 H    3.438897    3.589923   -1.422552
 H    1.186641    3.628617   -1.241678
 H   -0.900955    2.914378   -0.746025
 H   -1.056519    4.598915    1.338652
 H   -2.482274    3.243229    3.055356
 H   -2.990143    0.988401    1.732670
 H   -1.480513    0.788550    2.660924
 H   -1.835352   -1.118762    1.265825
 H   -2.183495   -2.909273   -0.520274
 H   -1.662386   -1.731339   -1.727823
 H   -4.072516   -2.044461   -1.650609
 H   -4.336556   -2.615434    0.753736
 H   -4.060014   -0.929259    1.192358
 H   -6.354386   -1.973844   -0.530077
 H   -6.477471   -1.371962    1.119084
 H   -5.780302    0.891881    0.390131
 H   -7.165251    0.365174   -0.558626
 H   -5.679723   -0.274892   -2.441310
 H   -5.397744    1.405996   -2.004055
 H   -3.411852    0.775094   -0.686833
 H   -3.233745    0.190903   -2.339660
 H   -0.316866   -2.862645    0.777445
 H    0.457464   -2.039275   -0.444461
 H    1.407932   -0.483353    1.044571
 H    0.352972   -1.013850    2.356909
 H    2.230320   -4.244239    1.876627
