42 
1o0f_ligand_dft.xyz
 P    2.824789   -1.411180   -1.223872
 O    2.131363   -0.413613   -2.080501
 O    4.220088   -0.942681   -0.656074
 O    3.144532   -2.829297   -1.866834
 P    2.401466    2.212923   -0.002171
 O    2.360998    3.776066    0.287652
 O    3.743841    1.567390    0.001093
 O    1.600494    2.083812   -1.356017
 O    1.460119    1.670627    1.169166
 C    1.880843    0.623890    2.053643
 C    1.026298   -0.614044    1.887627
 O   -0.294276   -0.368164    2.357038
 C    0.821331   -1.109178    0.456269
 O    1.917189   -1.900467    0.006573
 C   -0.444500   -1.949744    0.606131
 O   -0.166094   -3.158324    1.262767
 C   -1.237625   -1.067100    1.577046
 N   -2.066893   -0.099608    0.873426
 C   -1.856323    1.253272    0.694233
 N   -2.803630    1.843707    0.015379
 C   -3.691345    0.825695   -0.272468
 C   -4.913890    0.787161   -0.968174
 N   -5.444763    1.886347   -1.547609
 N   -5.562356   -0.381032   -1.075625
 C   -5.009562   -1.468507   -0.520700
 N   -3.867616   -1.573014    0.154440
 C   -3.256961   -0.386430    0.249527
 H    4.200642    0.033324   -0.439558
 H    3.944514   -2.813363   -2.409505
 H    2.527727    4.299566   -0.507928
 H    1.766830    1.200426   -1.786717
 H    2.929078    0.374303    1.867399
 H    1.778288    1.007369    3.070955
 H    1.484813   -1.419965    2.475989
 H    0.636953   -0.276729   -0.227333
 H   -0.980831   -2.102354   -0.337180
 H    0.538282   -3.599418    0.768430
 H   -1.882951   -1.679916    2.211157
 H   -0.977254    1.734705    1.097423
 H   -5.042250    2.789106   -1.354878
 H   -6.381461    1.828390   -1.913120
 H   -5.575038   -2.389273   -0.642259
