34 
1o0m_ligand_xtb.xyz
 O    2.269333   -2.125175    1.600748
 C    3.139509   -2.323647    0.506883
 C    2.835713   -1.280919   -0.571995
 O    1.566721   -1.542841   -1.166495
 C    0.685641   -0.478119   -0.963772
 N   -0.633982   -0.962071   -0.615127
 C   -0.779255   -1.980742    0.281343
 C   -1.981727   -2.406992    0.698216
 C   -3.189785   -1.760179    0.230947
 O   -4.327872   -2.040034    0.520587
 N   -2.928348   -0.707660   -0.655140
 C   -1.719536   -0.236745   -1.051872
 O   -1.603554    0.739190   -1.776689
 C    1.291388    0.398040    0.150164
 O    0.981577    1.755864   -0.021311
 P   -0.438365    2.268341    0.545496
 O    0.041348    3.412933    1.530812
 O   -1.249563    1.216467    1.166877
 O   -1.067811    3.086457   -0.640296
 C    2.795921    0.154699   -0.022265
 O    3.361185    1.032307   -0.951400
 H    2.477040   -2.768098    2.287801
 H    2.993630   -3.319756    0.070503
 H    4.186955   -2.214458    0.814799
 H    3.596948   -1.347273   -1.357302
 H    0.571439    0.120370   -1.882074
 H    0.150602   -2.414147    0.617845
 H   -2.084852   -3.214510    1.401454
 H   -3.733842   -0.172075   -0.961018
 H    0.942548    0.034660    1.121466
 H   -0.630827    3.586696    2.187795
 H   -1.418138    2.472520   -1.305017
 H    3.321477    0.225314    0.939451
 H    2.900687    1.880031   -0.874840
