34 
1o0m_ligand_dft.xyz
 O    1.924156   -2.448266    1.588687
 C    2.733704   -2.782838    0.474855
 C    2.568183   -1.710234   -0.584002
 O    1.236874   -1.757956   -1.110298
 C    0.568100   -0.542921   -0.904969
 N   -0.815791   -0.835613   -0.541269
 C   -1.081178   -1.803239    0.407395
 C   -2.327680   -2.100834    0.809847
 C   -3.464751   -1.385703    0.255113
 O   -4.636281   -1.552956    0.521091
 N   -3.084230   -0.407327   -0.685340
 C   -1.822489   -0.056944   -1.071528
 O   -1.612703    0.875411   -1.848613
 C    1.362656    0.191269    0.190299
 O    1.313218    1.603873    0.056570
 P    0.017172    2.420293    0.573295
 O    0.751040    3.632126    1.314498
 O   -0.915522    1.606168    1.375510
 O   -0.566552    3.110708   -0.728791
 C    2.790475   -0.278964   -0.084590
 O    3.364152    0.456212   -1.137220
 H    2.033386   -3.123030    2.267705
 H    2.438749   -3.748762    0.043236
 H    3.795618   -2.836432    0.755789
 H    3.269810   -1.909174   -1.400618
 H    0.532281    0.061264   -1.815076
 H   -0.198103   -2.298489    0.796212
 H   -2.515775   -2.862069    1.553888
 H   -3.828877    0.165760   -1.061951
 H    1.027853   -0.119212    1.182755
 H    0.137009    4.106123    1.891027
 H   -1.042256    2.438455   -1.273914
 H    3.410820   -0.246063    0.820638
 H    3.152879    1.387705   -0.978821
