65 
1o1s_ligand_xtb.xyz
 C    4.151376    0.696878    1.731291
 C    5.058362    0.573665    0.548536
 C    5.615817    1.878194    0.035240
 C    4.765927    2.437597   -1.121502
 C    3.433941    2.931441   -0.658862
 C    2.241309    2.438613   -0.976948
 C    1.997723    1.251886   -1.856661
 C    0.995748    3.095443   -0.434128
 O    0.672335    2.503994    0.821405
 C   -0.511488    3.015770    1.410576
 C   -1.751041    2.640419    0.635673
 C   -2.393260    3.563717   -0.181152
 C   -3.488829    3.188134   -0.941673
 C   -3.954082    1.887278   -0.898318
 C   -3.319521    0.950957   -0.083396
 C   -2.220532    1.335231    0.679264
 C   -3.752065   -0.469119   -0.075273
 O   -2.936906   -1.379706   -0.091917
 C   -5.203349   -0.739503   -0.071735
 C   -5.651327   -1.961968   -0.574795
 C   -6.999660   -2.259573   -0.583528
 C   -7.912133   -1.349113   -0.073256
 C   -7.472857   -0.142549    0.450047
 C   -6.125862    0.167385    0.450561
 C    5.398110   -0.560924   -0.055710
 C    4.940582   -1.948817    0.262877
 O    4.112703   -2.429824   -0.810080
 P    2.584522   -2.716894   -0.599707
 O    2.516383   -3.717041    0.624841
 O    1.876464   -3.077738   -1.813378
 O    2.057859   -1.314110    0.071937
 P    0.609720   -1.298481    0.751648
 O   -0.334594   -0.870196   -0.429975
 O    0.714273   -0.066251    1.724336
 O    0.279744   -2.550031    1.439542
 H    3.456538    1.518978    1.568464
 H    3.575770   -0.204641    1.909322
 H    4.736938    0.921467    2.623902
 H    6.631889    1.723987   -0.332346
 H    5.651111    2.611402    0.842748
 H    5.305754    3.280270   -1.564041
 H    4.654062    1.668829   -1.883673
 H    3.482185    3.792207   -0.001332
 H    1.821376    1.576755   -2.883175
 H    1.117849    0.708173   -1.523165
 H    2.835344    0.561557   -1.850025
 H    0.162193    2.960643   -1.135680
 H    1.155587    4.173845   -0.282018
 H   -0.435640    4.109418    1.496576
 H   -0.539114    2.576281    2.410717
 H   -2.033981    4.582079   -0.224982
 H   -3.975539    3.912602   -1.577103
 H   -4.790223    1.587965   -1.512587
 H   -1.739741    0.610418    1.319007
 H   -4.922986   -2.658592   -0.961696
 H   -7.341411   -3.202286   -0.983229
 H   -8.966541   -1.582142   -0.076136
 H   -8.184727    0.557853    0.860703
 H   -5.784995    1.099419    0.876795
 H    6.050165   -0.515465   -0.918789
 H    5.798086   -2.628668    0.304592
 H    4.397898   -2.003407    1.206262
 H    1.647254   -3.608637    1.060115
 H   -1.250790   -1.214654   -0.332064
 H    0.848619    0.795931    1.287263
