42 
1o2g_ligand_xtb.xyz
 C    5.005004   -0.435569    0.074869
 C    4.432898   -1.711713   -0.085941
 C    3.075140   -1.888003   -0.200652
 C    2.269262   -0.755463   -0.145686
 C    2.822212    0.539127    0.026605
 C    4.204585    0.690800    0.136410
 C    6.473440   -0.349990    0.195575
 N    7.044414    0.855380   -0.143286
 N    7.108928   -1.355752    0.636609
 N    0.920946   -0.620057   -0.222174
 C    1.731357    1.442070    0.051845
 C    0.577150    0.704506   -0.099210
 C   -0.798433    1.169015   -0.131657
 C   -1.054791    2.539521   -0.224227
 C   -2.339728    3.040691   -0.225309
 C   -3.414700    2.176541   -0.139091
 C   -3.205772    0.804765   -0.068435
 C   -1.901758    0.299428   -0.060775
 O   -1.691779   -1.049196    0.052498
 C   -4.369061   -0.103083    0.014572
 C   -4.543980   -1.138664   -0.902659
 C   -5.644499   -1.973620   -0.816364
 C   -6.581493   -1.788038    0.185344
 C   -6.419611   -0.756973    1.096653
 C   -5.323218    0.080469    1.012251
 H    5.105026   -2.553981   -0.108195
 H    2.644879   -2.870960   -0.324016
 H    4.623389    1.673115    0.300357
 H    8.049212    0.890810   -0.211296
 H    6.540780    1.485037   -0.743670
 H    8.116397   -1.223061    0.695265
 H    1.806895    2.502751    0.183370
 H   -0.220787    3.217657   -0.298193
 H   -2.505319    4.104838   -0.294905
 H   -4.426848    2.552514   -0.146299
 H   -2.546844   -1.489504    0.163117
 H   -3.833714   -1.268466   -1.708361
 H   -5.771617   -2.767842   -1.537296
 H   -7.438686   -2.441015    0.252624
 H   -7.151571   -0.605562    1.876261
 H   -5.191750    0.880469    1.726157
 H    0.250754   -1.365151   -0.307654
