44 
1o2o_ligand_xtb.xyz
 C   -4.883791   -0.104663    0.160372
 C   -4.435044   -1.340285   -0.334655
 F   -5.334904   -2.343105   -0.536357
 C   -3.119692   -1.628500   -0.617197
 C   -2.189169   -0.620964   -0.390969
 C   -2.621119    0.630952    0.119855
 C   -3.946546    0.894812    0.397282
 C   -6.296608    0.197921    0.485770
 N   -7.266444   -0.408227   -0.261789
 N   -6.505984    1.060777    1.395195
 N   -0.838913   -0.604630   -0.569676
 N   -1.478836    1.377581    0.223887
 C   -0.438536    0.580927   -0.195949
 C    0.930911    1.064284   -0.224493
 C    1.204018    2.425331   -0.397669
 C    2.500203    2.884189   -0.441198
 C    3.566364    2.002306   -0.310743
 C    3.320087    0.653956   -0.136751
 C    1.996320    0.170996   -0.091361
 O    1.777724   -1.141420    0.111242
 O    4.270068   -0.324695    0.008102
 C    5.633266    0.032042   -0.083420
 C    6.467440   -1.243537    0.055408
 C    7.928050   -0.950917   -0.273568
 C    6.330682   -1.819333    1.462372
 H   -2.831263   -2.597212   -0.988465
 H   -4.286996    1.835494    0.797382
 H   -8.220419   -0.324780    0.049612
 H   -7.054849   -1.205146   -0.834894
 H   -7.490298    1.244556    1.574384
 H    0.388118    3.119731   -0.528821
 H    2.698687    3.935311   -0.581978
 H    4.575413    2.380120   -0.346937
 H    2.637859   -1.585326    0.147685
 H    5.894218    0.740812    0.714263
 H    5.829262    0.506254   -1.054662
 H    6.076284   -1.970842   -0.663652
 H    8.029715   -0.571643   -1.287745
 H    8.331088   -0.210130    0.413777
 H    8.520085   -1.858008   -0.185428
 H    6.752203   -1.133388    2.194357
 H    5.284300   -1.983912    1.705364
 H    6.856599   -2.767766    1.536058
 H   -1.407989    2.307130    0.600345
