44 
1o2p_ligand_xtb.xyz
 C   -4.626754    0.185653    0.213980
 C   -4.232859   -1.093500   -0.214604
Cl   -5.407886   -2.368402   -0.364644
 C   -2.922073   -1.427521   -0.483443
 C   -1.959576   -0.439006   -0.314564
 C   -2.344358    0.848453    0.139925
 C   -3.661388    1.165366    0.406326
 C   -6.031315    0.560123    0.511900
 N   -6.969521    0.225127   -0.424607
 N   -6.238502    1.247006    1.557911
 N   -0.610069   -0.477349   -0.499996
 N   -1.178004    1.558951    0.207381
 C   -0.166442    0.708699   -0.181513
 C    1.218516    1.141219   -0.234256
 C    1.540811    2.493048   -0.398165
 C    2.852072    2.903741   -0.459445
 C    3.886658    1.981662   -0.355705
 C    3.592807    0.641880   -0.191419
 C    2.252697    0.207337   -0.130430
 O    1.990141   -1.098641    0.057132
 O    4.508846   -0.371757   -0.070775
 C    5.883658   -0.052007   -0.112781
 C    6.680128   -1.345873    0.069872
 C    8.160550   -1.086561   -0.191921
 C    6.465459   -1.909470    1.472028
 H   -2.646394   -2.418829   -0.802905
 H   -3.966888    2.135372    0.763148
 H   -7.940345    0.317536   -0.171438
 H   -6.755378   -0.479850   -1.109783
 H   -7.213560    1.497800    1.705935
 H    0.751187    3.220718   -0.506860
 H    3.087318    3.948343   -0.592644
 H    4.908122    2.322220   -0.406701
 H    2.834215   -1.573174    0.081865
 H    6.131423    0.656801    0.689180
 H    6.129771    0.408815   -1.079244
 H    6.306441   -2.068567   -0.662904
 H    8.318484   -0.721319   -1.204024
 H    8.545183   -0.345831    0.505941
 H    8.729152   -2.003999   -0.065551
 H    6.866345   -1.227572    2.219230
 H    5.405562   -2.050869    1.666427
 H    6.967286   -2.868142    1.575621
 H   -1.074634    2.500962    0.543273
