46 
1o2t_ligand_xtb.xyz
 C    5.335076   -0.401152    0.058763
 C    4.869170   -1.722196   -0.081995
 C    3.528854   -2.013004   -0.164834
 C    2.631378   -0.951992   -0.098492
 C    3.077077    0.385591    0.057472
 C    4.443841    0.653714    0.135732
 C    6.793703   -0.190136    0.136218
 N    7.248776    1.057286   -0.224935
 N    7.526508   -1.135062    0.560581
 N    1.275559   -0.929978   -0.150991
 C    1.915446    1.194439    0.098451
 C    0.824554    0.362258   -0.029967
 C   -0.585639    0.709250   -0.049151
 C   -0.950783    2.051634   -0.097718
 C   -2.279021    2.460454   -0.093719
 O   -2.486448    3.808874   -0.137172
 C   -3.810341    4.281132   -0.120723
 C   -3.279921    1.502380   -0.049154
 C   -2.948436    0.150451   -0.021493
 C   -1.613383   -0.252962   -0.015072
 O   -1.294938   -1.586347    0.061445
 C   -4.040602   -0.845018    0.016597
 C   -4.119853   -1.864760   -0.931218
 C   -5.153063   -2.784689   -0.887832
 C   -6.118059   -2.701039    0.100953
 C   -6.051613   -1.686997    1.042776
 C   -5.022508   -0.765187    1.000998
 H    5.609610   -2.504658   -0.116425
 H    3.180806   -3.029544   -0.274541
 H    4.781361    1.668876    0.285959
 H    8.244140    1.178370   -0.324503
 H    6.674326    1.638447   -0.810425
 H    8.520176   -0.915814    0.586874
 H    1.904086    2.258605    0.219825
 H   -0.193155    2.814607   -0.140306
 H   -4.373906    3.934180   -0.993326
 H   -4.334288    3.980505    0.792766
 H   -3.736300    5.367092   -0.150229
 H   -4.324429    1.770109   -0.057427
 H   -2.113062   -2.095048    0.151350
 H   -3.388073   -1.916366   -1.726208
 H   -5.205821   -3.565648   -1.632091
 H   -6.922490   -3.420318    0.135017
 H   -6.805171   -1.615435    1.813244
 H   -4.964829    0.020395    1.740290
 H    0.666940   -1.727321   -0.226167
