30 
1o34_ligand_dft.xyz
 C   44.122913   -3.005356   26.261544
 C   44.545604   -1.649847   26.306413
 C   44.474433   -0.920032   27.475829
 C   43.961888   -1.560502   28.608857
 C   43.530426   -2.931609   28.590122
 C   43.614634   -3.649378   27.412825
 C   44.219713   -3.736015   25.032362
 N   44.391730   -5.061995   25.032495
 N   44.144795   -3.115798   23.848618
 N   43.745370   -1.154323   29.869467
 N   43.065817   -3.313695   29.814401
 C   43.209977   -2.228572   30.565287
 C   42.894012   -2.022141   31.962360
 N   42.373680   -3.068341   32.634275
 C   42.075001   -2.912914   33.906612
 C   42.277482   -1.696927   34.593473
 C   42.805447   -0.621361   33.927391
 C   43.152731   -0.722261   32.541466
 O   43.645910    0.269809   31.903326
 H   45.001614   -1.195382   25.431241
 H   44.819970    0.107097   27.517835
 H   43.225686   -4.663191   27.382327
 H   44.581398   -5.533071   25.903965
 H   44.244788   -5.628693   24.211317
 H   43.851990   -2.152086   23.813556
 H   44.394059   -3.567742   22.982297
 H   43.863180   -0.272996   30.466014
 H   41.656607   -3.775740   34.421768
 H   42.013187   -1.622774   35.645827
 H   42.977957    0.332833   34.416729
