49 
1o37_ligand_dft.xyz
 C    5.251576   -0.663196    0.049108
 C    4.913784   -2.033603   -0.123633
 C    3.602094   -2.446142   -0.256416
 C    2.586801   -1.475957   -0.216656
 C    2.922781   -0.096717   -0.061764
 C    4.255924    0.306058    0.072682
 C    6.664567   -0.239282    0.224838
 N    7.029939    0.963916   -0.041163
 N    7.529251   -1.245810    0.663285
 N    1.233433   -1.602911   -0.314327
 N    1.772906    0.636128   -0.064874
 C    0.831070   -0.324672   -0.219281
 C   -0.573897    0.114184   -0.300961
 C   -0.778099    1.467360   -0.545299
 C   -2.031865    2.066418   -0.534506
 C   -2.085052    3.569468   -0.679503
 C   -1.343354    4.165503    0.512535
 N   -0.982253    5.626445    0.262000
 C   -3.153414    1.274743   -0.328074
 C   -3.008347   -0.103170   -0.139806
 C   -1.721727   -0.682683   -0.098346
 O   -1.553550   -1.992853    0.166987
 C   -4.221101   -0.945188    0.049956
 C   -4.458514   -2.059257   -0.767161
 C   -5.602147   -2.834571   -0.598116
 C   -6.531193   -2.507304    0.385068
 C   -6.308722   -1.400956    1.201123
 C   -5.161985   -0.631455    1.037595
 H    5.708830   -2.770862   -0.200416
 H    3.355888   -3.494610   -0.401506
 H    4.527251    1.349376    0.198297
 H    8.020886    1.090488    0.182237
 H    8.418924   -0.918714    1.014722
 H    7.105921   -1.940672    1.262796
 H    0.131382    2.041068   -0.710717
 H   -3.116819    3.939159   -0.714754
 H   -1.587028    3.876901   -1.611622
 H   -0.395461    3.653400    0.687048
 H   -1.937845    4.140653    1.427590
 H   -0.476339    6.037778    1.051418
 H   -0.380451    5.695138   -0.564809
 H   -1.816512    6.192309    0.084266
 H   -4.153878    1.702360   -0.339368
 H   -2.410693   -2.378242    0.396809
 H   -3.746475   -2.305661   -1.550550
 H   -5.769444   -3.692241   -1.242832
 H   -7.423163   -3.112428    0.516644
 H   -7.025759   -1.143243    1.975324
 H   -4.978826    0.219021    1.688789
