49 
1o37_ligand_xtb.xyz
 C    5.206750   -0.626927    0.086963
 C    4.834361   -1.892473   -0.395784
 C    3.523919   -2.211290   -0.675503
 C    2.554422   -1.236713   -0.460788
 C    2.938789    0.045627    0.009907
 C    4.253981    0.363409    0.285478
 C    6.615909   -0.304867    0.385987
 N    6.995359    0.902999    0.296189
 N    7.428624   -1.365651    0.708409
 N    1.201156   -1.274792   -0.636795
 N    1.771068    0.753383    0.093174
 C    0.760798   -0.092916   -0.301788
 C   -0.620066    0.359610   -0.336006
 C   -0.900324    1.697908   -0.592025
 C   -2.199239    2.179419   -0.599226
 C   -2.464116    3.641011   -0.821109
 C   -1.999559    4.484189    0.375435
 N   -0.546815    4.518760    0.447651
 C   -3.234177    1.288238   -0.364348
 C   -2.993408   -0.061797   -0.136301
 C   -1.675677   -0.536401   -0.105019
 O   -1.380822   -1.816175    0.205613
 C   -4.129771   -0.977113    0.089566
 C   -4.269238   -2.144682   -0.660174
 C   -5.342079   -2.991931   -0.445120
 C   -6.286505   -2.688561    0.520525
 C   -6.159507   -1.527529    1.265610
 C   -5.091005   -0.677138    1.051539
 H    5.601659   -2.629583   -0.583931
 H    3.247073   -3.182988   -1.051787
 H    4.560829    1.334565    0.638227
 H    7.977501    1.050854    0.518915
 H    8.349190   -1.158687    1.061814
 H    7.013705   -2.222822    1.030538
 H   -0.093337    2.383844   -0.792784
 H   -3.532462    3.804519   -0.970072
 H   -1.936847    3.983358   -1.714769
 H   -2.366355    4.028367    1.299276
 H   -2.446867    5.489709    0.292163
 H   -0.247993    5.000641    1.288421
 H    1.659261    1.697391    0.422368
 H   -0.173579    5.027787   -0.348191
 H   -4.258199    1.634269   -0.378786
 H   -2.197776   -2.315423    0.347795
 H   -3.553354   -2.371059   -1.438671
 H   -5.442331   -3.889564   -1.037416
 H   -7.121690   -3.351878    0.689065
 H   -6.896535   -1.285090    2.017209
 H   -4.986597    0.223871    1.638417
