49 
1o38_ligand_dft.xyz
 C    5.251433   -0.663242    0.049263
 C    4.913747   -2.033525   -0.124658
 C    3.602100   -2.446034   -0.257991
 C    2.586752   -1.475939   -0.217611
 C    2.922637   -0.096796   -0.061594
 C    4.255728    0.305943    0.073415
 C    6.664366   -0.239423    0.225690
 N    7.029746    0.964016   -0.039219
 N    7.528970   -1.246295    0.663458
 N    1.233387   -1.602882   -0.315610
 N    1.772719    0.636009   -0.064301
 C    0.830984   -0.324735   -0.219659
 C   -0.573978    0.114149   -0.301366
 C   -0.778133    1.467322   -0.545738
 C   -2.031857    2.066450   -0.534753
 C   -2.084902    3.569518   -0.679689
 C   -1.342946    4.165407    0.512268
 N   -0.981195    5.626149    0.261522
 C   -3.153421    1.274841   -0.328131
 C   -3.008408   -0.103081   -0.139868
 C   -1.721801   -0.682654   -0.098594
 O   -1.553602   -1.992816    0.166792
 C   -4.221156   -0.945034    0.050177
 C   -4.458826   -2.059087   -0.766887
 C   -5.602452   -2.834351   -0.597566
 C   -6.531236   -2.507052    0.385855
 C   -6.308511   -1.400720    1.201863
 C   -5.161782   -0.631266    1.038052
 H    5.708858   -2.770670   -0.201883
 H    3.355992   -3.494404   -0.403951
 H    4.526980    1.349168    0.199955
 H    8.020656    1.090402    0.184460
 H    8.418471   -0.919493    1.015595
 H    7.105437   -1.941839    1.262034
 H    0.131342    2.041018   -0.711209
 H   -3.116615    3.939357   -0.714832
 H   -1.586930    3.876884   -1.611861
 H   -0.395273    3.652909    0.686841
 H   -1.937425    4.140953    1.427341
 H   -0.474938    6.037313    1.050809
 H   -0.379496    5.694457   -0.565396
 H   -1.815199    6.192414    0.083870
 H   -4.153859    1.702524   -0.339226
 H   -2.410690   -2.378155    0.396905
 H   -3.746990   -2.305520   -1.550453
 H   -5.769946   -3.692003   -1.242253
 H   -7.423200   -3.112136    0.517652
 H   -7.025337   -1.142981    1.976251
 H   -4.978425    0.219198    1.689205
