41 
1o3b_ligand_xtb.xyz
 C    4.963220   -0.357065    0.076839
 C    4.487834   -1.566142   -0.457602
 C    3.152634   -1.772314   -0.724894
 C    2.264147   -0.738559   -0.446060
 C    2.752147    0.486539    0.075942
 C    4.091536    0.690951    0.341698
 C    6.398273   -0.152002    0.356768
 N    6.855413    1.031917    0.337073
 N    7.146280   -1.282698    0.581185
 N    0.910115   -0.664412   -0.601775
 N    1.642907    1.278085    0.209314
 C    0.565687    0.530607   -0.207681
 C   -0.782004    1.076529   -0.229462
 C   -0.990357    2.430078   -0.482092
 C   -2.267600    2.953952   -0.531064
 C   -3.356236    2.122779   -0.342739
 C   -3.184159    0.765503   -0.098551
 C   -1.888010    0.236534   -0.019749
 O   -1.659962   -1.049055    0.314707
 C   -4.364566   -0.104768    0.073215
 C   -4.507807   -1.267803   -0.683247
 C   -5.623581   -2.071481   -0.528496
 C   -6.607810   -1.728390    0.382600
 C   -6.476611   -0.571705    1.133730
 C   -5.364986    0.235708    0.980035
 H    5.193120   -2.348649   -0.697253
 H    2.796207   -2.700567   -1.141440
 H    4.478075    1.618116    0.732482
 H    7.850539    1.100277    0.539232
 H    8.089434   -1.160211    0.913501
 H    6.686555   -2.132353    0.858936
 H   -0.141951    3.072120   -0.668745
 H   -2.415551    4.004410   -0.729135
 H   -4.359324    2.518367   -0.403905
 H   -2.501406   -1.513555    0.430663
 H   -3.759912   -1.523484   -1.421572
 H   -5.725804   -2.965615   -1.125593
 H   -7.477220   -2.357218    0.503345
 H   -7.244706   -0.298259    1.842239
 H   -5.259222    1.133660    1.571318
 H    1.617334    2.211457    0.582551
