41 
1o3c_ligand_xtb.xyz
 C    4.966270   -0.354766    0.080285
 C    4.494642   -1.564348   -0.456314
 C    3.160024   -1.774555   -0.723672
 C    2.268099   -0.743998   -0.443647
 C    2.752449    0.481219    0.081392
 C    4.091019    0.689359    0.348371
 C    6.401215   -0.144734    0.357565
 N    6.854567    1.040431    0.333631
 N    7.152825   -1.272708    0.583682
 N    0.914108   -0.672310   -0.602187
 N    1.641230    1.269919    0.214356
 C    0.566316    0.521454   -0.207188
 C   -0.781213    1.067841   -0.233116
 C   -0.986265    2.422859   -0.480909
 C   -2.262115    2.949597   -0.533432
 C   -3.352990    2.120299   -0.350579
 C   -3.184482    0.761969   -0.109552
 C   -1.889775    0.229228   -0.031301
 O   -1.665996   -1.058826    0.296018
 C   -4.368004   -0.102843    0.067461
 C   -4.519701   -1.270013   -0.680873
 C   -5.637836   -2.068317   -0.514977
 C   -6.616474   -1.715114    0.398251
 C   -6.477731   -0.553342    1.140100
 C   -5.363257    0.247916    0.976233
 H    5.202602   -2.343824   -0.698006
 H    2.806868   -2.703483   -1.141578
 H    4.473812    1.616793    0.742065
 H    7.849966    1.112684    0.533250
 H    8.096185   -1.147015    0.914208
 H    6.695887   -2.123383    0.862854
 H   -0.136072    3.064343   -0.660816
 H   -2.407068    4.001001   -0.728690
 H   -4.355044    2.518428   -0.412701
 H   -2.509142   -1.521030    0.409460
 H   -3.777212   -1.533689   -1.421895
 H   -5.746141   -2.966430   -1.105069
 H   -7.487478   -2.339877    0.527828
 H   -7.241795   -0.271261    1.849545
 H   -5.250788    1.149222    1.561173
 H    1.613130    2.202547    0.589246
