41 
1o3d_ligand_dft.xyz
 C   44.349339   -2.954919   25.907856
 C   44.773233   -1.603404   25.997352
 C   44.708511   -0.914797   27.192791
 C   44.201630   -1.593666   28.304355
 C   43.768228   -2.963535   28.241421
 C   43.846437   -3.639525   27.038876
 C   44.442971   -3.641753   24.652989
 N   44.618699   -4.966284   24.606699
 N   44.359333   -2.980732   23.492344
 N   43.993048   -1.228547   29.579574
 N   43.309944   -3.381653   29.455357
 C   43.459178   -2.319287   30.245559
 C   43.140664   -2.187523   31.638795
 C   42.600053   -3.287425   32.328469
 C   42.284646   -3.192097   33.662933
 C   42.505365   -1.970002   34.324268
 C   43.025523   -0.853643   33.695521
 C   43.388107   -0.921639   32.294810
 O   43.888282    0.084411   31.685245
 C   43.200414    0.407779   34.458924
 C   44.331867    1.219971   34.298181
 C   44.498604    2.368396   35.063399
 C   43.539179    2.741296   36.002029
 C   42.404000    1.953341   36.162918
 C   42.237542    0.804168   35.396368
 H   45.225211   -1.118644   25.136553
 H   45.054490    0.110101   27.269446
 H   43.456450   -4.651154   26.971761
 H   44.820359   -5.465633   25.459468
 H   44.478806   -5.504182   23.765173
 H   44.063797   -2.017154   23.493036
 H   44.608819   -3.399697   22.609609
 H   44.112451   -0.373388   30.203275
 H   42.446790   -4.211352   31.777434
 H   41.879804   -4.041080   34.204368
 H   42.274297   -1.902970   35.385561
 H   45.071491    0.945296   33.556558
 H   45.387330    2.978747   34.924672
 H   43.671571    3.641742   36.595724
 H   41.638394    2.237610   36.880134
 H   41.334143    0.210824   35.511193
