42 
1o3f_ligand_xtb.xyz
 C    5.009443   -0.378929    0.028043
 C    4.446744   -1.659261   -0.127353
 C    3.085781   -1.842749   -0.219169
 C    2.272906   -0.717644   -0.146076
 C    2.820180    0.584048   -0.003181
 C    4.201528    0.742971    0.079025
 C    6.471229   -0.202204    0.129720
 N    6.984536    0.884954   -0.273821
 N    7.180564   -1.272488    0.628604
 N    0.922272   -0.594303   -0.198628
 C    1.722102    1.478606    0.026640
 C    0.571258    0.730622   -0.092793
 C   -0.808927    1.183309   -0.113433
 C   -1.076831    2.551729   -0.205796
 C   -2.365760    3.042400   -0.202725
 C   -3.433945    2.169630   -0.117146
 C   -3.213612    0.799589   -0.047453
 C   -1.905276    0.305506   -0.037296
 O   -1.685933   -1.041934    0.082894
 C   -4.369216   -0.119304    0.022550
 C   -4.527145   -1.147837   -0.905782
 C   -5.622348   -1.991493   -0.838877
 C   -6.570858   -1.822094    0.154845
 C   -6.425153   -0.799238    1.078087
 C   -5.334179    0.047139    1.012793
 H    5.097751   -2.517425   -0.209542
 H    2.662423   -2.828339   -0.347859
 H    4.655243    1.715397    0.179801
 H    7.995593    0.936950   -0.166953
 H    8.151022   -1.119307    0.854090
 H    6.702949   -1.953006    1.194371
 H    1.795070    2.541489    0.135733
 H   -0.248550    3.236154   -0.283568
 H   -2.539825    4.105276   -0.271050
 H   -4.449113    2.537512   -0.125054
 H   -2.539216   -1.486729    0.189026
 H   -3.807499   -1.264761   -1.705058
 H   -5.736524   -2.779253   -1.568961
 H   -7.424518   -2.481100    0.206461
 H   -7.166013   -0.660873    1.851825
 H   -5.216137    0.841427    1.735536
 H    0.255665   -1.343861   -0.272784
