42 
1o3g_ligand_dft.xyz
 C   11.461935  -11.534889   22.558761
 C   12.093951  -10.323966   22.163601
 C   13.014588  -10.314499   21.138281
 C   13.319171  -11.526994   20.508671
 C   12.694633  -12.774491   20.887334
 C   11.765041  -12.756012   21.914302
 C   10.505847  -11.516001   23.622456
 N    9.508000  -12.407294   23.672892
 N   10.575372  -10.606416   24.603068
 N   14.174875  -11.794157   19.513972
 C   13.250761  -13.779108   20.053821
 C   14.157572  -13.147900   19.212725
 C   15.025528  -13.621661   18.158975
 C   15.032943  -14.984989   17.822022
 C   15.849017  -15.472165   16.825579
 C   16.691075  -14.575875   16.148315
 C   16.735574  -13.223657   16.438905
 C   15.875402  -12.675804   17.466644
 O   15.882891  -11.426629   17.741140
 C   17.673974  -12.344247   15.696660
 C   17.305424  -11.061054   15.268000
 C   18.182727  -10.278069   14.526850
 C   19.452608  -10.749123   14.200822
 C   19.838464  -12.014462   14.631265
 C   18.959610  -12.797731   15.373081
 H   11.795515   -9.381940   22.614872
 H   13.481366   -9.391006   20.812718
 H   11.332661  -13.689340   22.267290
 H    8.961239  -12.562908   24.505735
 H    9.343634  -13.006213   22.878840
 H    9.810783  -10.433106   25.237218
 H   11.395884  -10.026075   24.679110
 H   14.853779  -11.242527   18.911201
 H   13.012333  -14.832337   20.068954
 H   14.372669  -15.664114   18.357723
 H   15.839652  -16.524477   16.560163
 H   17.321716  -14.954661   15.346597
 H   16.327128  -10.682209   15.535674
 H   17.871325   -9.288858   14.200944
 H   20.136864  -10.132309   13.624420
 H   20.830879  -12.391961   14.398664
 H   19.281589  -13.773767   15.726736
