35 
1o3i_ligand_xtb.xyz
 C   -4.828823   -0.223079    0.009568
 C   -4.411280   -1.567739   -0.006034
 C   -3.081981   -1.913791   -0.017189
 C   -2.146596   -0.883658   -0.003738
 C   -2.543738    0.477250    0.028698
 C   -3.901310    0.801666    0.032768
 C   -6.280526    0.046631    0.018161
 N   -6.676194    1.257569   -0.501454
 N   -7.056716   -0.815985    0.529892
 N   -0.790088   -0.917366   -0.006506
 C   -1.353306    1.242792    0.048741
 C   -0.291420    0.362554    0.025825
 C    1.129638    0.657243    0.029364
 C    1.554893    1.986243    0.065709
 C    2.890206    2.354866    0.069261
 C    3.279274    3.800853    0.104720
 C    3.851532    1.356402    0.035112
 C    3.451074    0.034959   -0.000478
 C    2.115038   -0.352026   -0.003979
 O    1.763299   -1.663918   -0.038978
Br    4.800484   -1.337922   -0.048568
 H   -5.180549   -2.322698   -0.003085
 H   -2.770491   -2.947496   -0.033095
 H   -4.205633    1.836875    0.085649
 H   -7.662838    1.400895   -0.647871
 H   -6.062951    1.744067   -1.132405
 H   -8.042233   -0.563536    0.503701
 H   -1.307379    2.312757    0.076435
 H    0.807819    2.762225    0.092775
 H    2.911596    4.311602   -0.784219
 H    2.842335    4.289158    0.974178
 H    4.359124    3.913225    0.147499
 H    4.902840    1.598785    0.036342
 H    2.565963   -2.210443   -0.055126
 H   -0.215987   -1.743326   -0.021656
