75 
1o42_ligand_xtb.xyz
 C   -4.245002    1.578951   -1.361736
 C   -3.351390    2.621728   -1.512613
 C   -2.660478    3.102288   -0.408413
 C   -2.872675    2.546593    0.843010
 C   -3.765295    1.498800    0.980774
 C   -4.456930    0.999422   -0.115563
 P   -0.242513    3.948925   -0.117397
 O    0.393026    5.286704   -0.647076
 O    0.336787    2.843290   -1.101653
 O   -0.032245    3.695492    1.304649
 C   -5.372997   -0.179940    0.012257
 C   -4.679809   -1.477508   -0.472744
 C   -3.544588   -1.841500    0.480061
 N   -2.373055   -1.232744    0.242198
 N   -5.608904   -2.579310   -0.482527
 C   -6.322396   -2.925477   -1.576734
 C   -7.173577   -4.161526   -1.379417
 O   -6.280491   -2.288377   -2.608241
 O   -3.708429   -2.637169    1.387304
 C   -1.238727   -1.425021    1.118932
 C   -0.515763   -2.751899    0.780963
 C    1.008844   -2.672421    0.814708
 C    1.571248   -2.375476    2.202992
 C    0.910084   -1.149515    2.848699
 N    0.645718   -0.097321    1.890673
 C   -0.317587   -0.215304    0.974964
 C    1.617173    0.989284    1.828059
 C    2.879137    0.537947    1.142810
 O   -0.501985    0.583545    0.055548
 O   -1.777382    4.144997   -0.596646
 C    4.031070    0.266695    1.869716
 C    5.168132   -0.207120    1.242557
 C    5.182659   -0.423268   -0.132702
 C    4.028764   -0.141549   -0.860935
 C    2.893466    0.330306   -0.232021
 C    6.387699   -0.934549   -0.802261
 C    6.803852   -0.399229   -2.018906
 C    7.937316   -0.879927   -2.647515
 C    8.668914   -1.907078   -2.075124
 C    8.262472   -2.448341   -0.867031
 C    7.133178   -1.964331   -0.233315
 H   -4.781037    1.203164   -2.220818
 H   -3.176695    3.067903   -2.479296
 H   -2.325233    2.932537    1.686950
 H   -3.923790    1.061323    1.955929
 H    0.251897    5.405223   -1.585938
 H    0.120406    1.959962   -0.741342
 H   -5.687775   -0.317882    1.048144
 H   -6.259062   -0.038890   -0.609281
 H   -4.311703   -1.326529   -1.493118
 H   -2.269656   -0.502787   -0.451325
 H   -5.603557   -3.145535    0.355359
 H   -7.900986   -3.988591   -0.589633
 H   -7.694892   -4.389756   -2.304203
 H   -6.547362   -5.005141   -1.098738
 H   -1.632065   -1.468476    2.141276
 H   -0.865986   -3.529043    1.460819
 H   -0.820097   -3.038403   -0.227601
 H    1.414996   -3.625383    0.470891
 H    1.349566   -1.906786    0.114269
 H    1.418635   -3.234031    2.858202
 H    2.645514   -2.206652    2.109637
 H   -0.022975   -1.443544    3.334701
 H    1.566513   -0.742792    3.619330
 H    1.830087    1.308076    2.850924
 H    1.160030    1.830343    1.305411
 H    4.043564    0.435681    2.937489
 H    6.060647   -0.395617    1.821129
 H    4.018266   -0.311895   -1.927437
 H    2.008733    0.545903   -0.812122
 H    6.245675    0.413198   -2.460942
 H    8.252768   -0.450907   -3.587452
 H    9.552510   -2.284066   -2.568420
 H    8.827465   -3.252188   -0.417773
 H    6.811945   -2.400724    0.701616
