81 
1o44_ligand_dft.xyz
 C    1.741366   -1.127992   -1.136220
 C    0.734702   -0.176258   -0.972668
 C   -0.236066   -0.320763    0.009059
 C   -0.249062   -1.428464    0.853905
 C    0.728391   -2.421166    0.660446
 C    1.708401   -2.255324   -0.321553
 C    2.879230   -0.895907   -2.098013
 C    4.195924   -0.506613   -1.362473
 C    3.889235    0.530782   -0.278655
 N    3.389181    1.711039   -0.713042
 O    4.007820    0.264941    0.911318
 N    4.803143   -1.627182   -0.693285
 C    5.384572   -2.656569   -1.363590
 O    5.446280   -2.689524   -2.584454
 C    5.902974   -3.773562   -0.477399
 C    2.556531    2.487456    0.181054
 C    1.460425    3.113915   -0.685883
 N    0.431218    3.711378   -0.042266
 O    1.536864    3.062106   -1.914160
 C    0.254843    3.648885    1.408642
 C    1.263789    4.495105    2.190804
 C   -0.680924    4.226092   -0.851238
 C   -1.757790    3.181024   -1.037398
 C    2.651478    3.864579    2.327099
 C    3.342727    3.522290    1.006504
 C   -2.819539    3.078615   -0.138418
 C   -3.742504    2.045632   -0.238317
 C   -3.630669    1.080079   -1.242848
 C   -2.584354    1.205108   -2.164838
 C   -1.663752    2.241478   -2.067462
 C   -4.577764   -0.061148   -1.303604
 C   -5.027936   -0.662764   -0.122788
 C   -5.878979   -1.763419   -0.164921
 C   -6.300477   -2.276087   -1.390257
 C   -5.867548   -1.677357   -2.571212
 C   -5.014743   -0.579454   -2.527548
 C    0.725819   -3.678563    1.454430
 O    1.870613   -4.380690    1.332953
 O   -0.185219   -4.084764    2.144934
 C   -1.326442   -1.533734    1.920311
 C   -2.597158   -2.248781    1.467465
 O   -2.592594   -2.540088    0.163990
 O   -3.507826   -2.505068    2.214147
 C   -1.694495   -0.162760    2.466297
 O   -2.716523    0.446353    2.267733
 O   -0.700338    0.331494    3.228833
 H    0.714810    0.700577   -1.613334
 H   -1.005476    0.441800    0.102999
 H    2.460613   -3.024881   -0.446199
 H    3.105496   -1.785951   -2.691336
 H    2.612460   -0.100489   -2.802294
 H    4.893023   -0.101941   -2.105963
 H    3.175632    1.851778   -1.694759
 H    4.770113   -1.592086    0.318083
 H    6.566215   -4.409721   -1.063912
 H    5.061320   -4.376035   -0.117151
 H    6.437821   -3.386642    0.395440
 H    2.095640    1.778445    0.882092
 H    0.272929    2.604312    1.748275
 H   -0.754333    4.014487    1.608475
 H    0.856560    4.665404    3.194970
 H    1.335576    5.477229    1.706704
 H   -0.266873    4.537119   -1.810592
 H   -1.078942    5.111634   -0.345655
 H    2.566290    2.940076    2.914769
 H    3.293435    4.539666    2.903586
 H    3.523598    4.423431    0.407557
 H    4.315626    3.074747    1.225979
 H   -2.934117    3.817467    0.651717
 H   -4.555573    1.985416    0.477453
 H   -2.463751    0.457069   -2.943157
 H   -0.844006    2.311504   -2.776636
 H   -4.663165   -0.305565    0.835921
 H   -6.190394   -2.228730    0.765355
 H   -6.964890   -3.134545   -1.424576
 H   -6.198721   -2.064323   -3.530474
 H   -4.695193   -0.110383   -3.454088
 H    1.740303   -5.184399    1.860643
 H   -0.957084   -2.116511    2.765752
 H   -3.473224   -2.895413   -0.047097
 H   -1.010346    1.194568    3.546969
