79 
1o45_ligand_xtb.xyz
 O   -0.470752    1.461861   -2.067265
 C    3.669926    2.304100    0.533721
 C    2.498710    2.990359    0.792829
 C    1.484600    3.008970   -0.151228
 C    1.656020    2.385582   -1.383115
 C    2.827599    1.678966   -1.614717
 C    3.830208    1.602481   -0.659201
 P   -0.872374    2.660587    0.739378
 O   -2.039027    2.739749   -0.327515
 O   -1.466058    3.508562    1.933216
 O   -0.393320    1.335430    1.125809
 C    5.036754    0.741542   -0.880259
 C    5.171638   -0.376704    0.179261
 C    4.024732   -1.393815    0.154044
 N    2.851081   -0.941003    0.618563
 N    6.391346   -1.116289   -0.034676
 C    7.597447   -0.669096    0.372957
 C    8.725679   -1.645127    0.116061
 O    7.748110    0.423348    0.881254
 O    4.216522   -2.549073   -0.183159
 C    1.682892   -1.788858    0.722185
 C    0.952812   -1.471449    2.034904
 C    0.123944   -2.638360    2.560207
 C   -1.027765   -3.020367    1.636881
 C   -0.552303   -3.493917    0.261375
 N   -0.244227   -2.411541   -0.650459
 C    0.779387   -1.562794   -0.486451
 C   -1.162449   -2.224659   -1.762678
 C   -2.523157   -1.771907   -1.302114
 O    1.007745   -0.647212   -1.270399
 O    0.288574    3.630059    0.153608
 C   -2.640083   -0.673615   -0.458140
 C   -3.880606   -0.246266   -0.029523
 C   -5.040570   -0.901885   -0.437670
 C   -4.918069   -2.002202   -1.282338
 C   -3.674482   -2.434284   -1.704169
 C   -6.362336   -0.443467    0.014211
 C   -6.558426   -0.033269    1.330945
 C   -7.802143    0.394259    1.756844
 C   -8.868652    0.425153    0.874002
 C   -8.683937    0.023803   -0.438455
 C   -7.442422   -0.409634   -0.864825
 C    0.548047    2.385998   -2.402300
 H   -0.013669    0.632905   -1.801529
 H    4.457541    2.294043    1.272120
 H    2.343519    3.495652    1.733310
 H    2.940802    1.153651   -2.550907
 H   -1.753975    2.217000   -1.101037
 H   -1.862191    4.323781    1.627083
 H    5.001379    0.286258   -1.871061
 H    5.945947    1.343337   -0.804865
 H    5.214260    0.087628    1.172529
 H    2.694059    0.050220    0.727841
 H    6.253429   -2.055563   -0.387449
 H    9.654045   -1.231102    0.497893
 H    8.823550   -1.822401   -0.952571
 H    8.520365   -2.592208    0.609249
 H    2.056971   -2.819555    0.715677
 H    1.712806   -1.225453    2.779805
 H    0.327523   -0.588323    1.893153
 H    0.772649   -3.506747    2.705539
 H   -0.283283   -2.363291    3.534573
 H   -1.696487   -2.168477    1.508067
 H   -1.597542   -3.828741    2.099414
 H   -1.345072   -4.080564   -0.206460
 H    0.323020   -4.142748    0.375359
 H   -0.723118   -1.470638   -2.421799
 H   -1.240405   -3.165722   -2.317416
 H   -1.756097   -0.150213   -0.129041
 H   -3.946224    0.621651    0.609323
 H   -5.803288   -2.537644   -1.593250
 H   -3.600652   -3.293419   -2.356871
 H   -5.733440   -0.068634    2.027399
 H   -7.941241    0.703691    2.782626
 H   -9.839526    0.761295    1.207024
 H   -9.511176    0.050758   -1.132976
 H   -7.300333   -0.704936   -1.894314
 H    0.958599    2.137930   -3.390207
 H    0.073150    3.370570   -2.454745
