79 
1o45_ligand_dft.xyz
 O   -0.558620    1.334757   -2.122926
 C    3.587131    2.422993    0.509445
 C    2.365698    3.025520    0.784602
 C    1.346919    2.962840   -0.156912
 C    1.542693    2.367565   -1.401592
 C    2.768281    1.749216   -1.639077
 C    3.789080    1.737608   -0.693950
 P   -1.050117    2.599819    0.797363
 O   -2.126518    2.466642   -0.356766
 O   -1.780145    3.597724    1.807255
 O   -0.534553    1.369457    1.421703
 C    5.031499    0.912985   -0.908061
 C    5.174871   -0.230672    0.127563
 C    4.049219   -1.276756    0.072905
 N    2.878619   -0.914617    0.647778
 N    6.412748   -0.944978   -0.061215
 C    7.596749   -0.448982    0.385921
 C    8.790142   -1.361414    0.171904
 O    7.684499    0.653972    0.907966
 O    4.246107   -2.392876   -0.394650
 C    1.760345   -1.821571    0.742214
 C    0.997688   -1.564104    2.060005
 C    0.236669   -2.781437    2.586679
 C   -0.864761   -3.307503    1.668092
 C   -0.369396   -3.710360    0.277207
 N   -0.138037   -2.591342   -0.640151
 C    0.834474   -1.667380   -0.472464
 C   -1.098687   -2.416099   -1.724992
 C   -2.444608   -1.908066   -1.252719
 O    0.974557   -0.708510   -1.235067
 O    0.118750    3.530022    0.149360
 C   -2.529318   -0.846125   -0.350124
 C   -3.764557   -0.362381    0.057329
 C   -4.953074   -0.920489   -0.427235
 C   -4.862513   -1.984145   -1.328975
 C   -3.624193   -2.472317   -1.732971
 C   -6.272361   -0.395993    0.006102
 C   -6.502000   -0.049712    1.342078
 C   -7.737394    0.444490    1.746722
 C   -8.765852    0.601143    0.821572
 C   -8.549239    0.260813   -0.510710
 C   -7.313482   -0.233147   -0.914285
 C    0.442904    2.301253   -2.432721
 H   -0.103370    0.514471   -1.827588
 H    4.382560    2.460723    1.249712
 H    2.182454    3.525952    1.729222
 H    2.908056    1.218666   -2.577446
 H   -1.719192    1.956791   -1.116304
 H   -2.372675    4.207375    1.347203
 H    5.036442    0.477150   -1.912456
 H    5.932506    1.525515   -0.802070
 H    5.186246    0.219542    1.126787
 H    2.704721    0.062105    0.846924
 H    6.321137   -1.886803   -0.420215
 H    9.671362   -0.896189    0.613568
 H    8.964046   -1.520274   -0.897503
 H    8.624768   -2.339982    0.634678
 H    2.187700   -2.829673    0.743103
 H    1.749184   -1.282151    2.804811
 H    0.332173   -0.700940    1.938890
 H    0.956388   -3.590351    2.778498
 H   -0.203992   -2.522218    3.555442
 H   -1.660828   -2.563638    1.556351
 H   -1.317088   -4.192268    2.131850
 H   -1.120403   -4.341135   -0.204070
 H    0.543666   -4.314243    0.355038
 H   -0.656100   -1.718616   -2.438749
 H   -1.217601   -3.377181   -2.237587
 H   -1.629808   -0.385914    0.051854
 H   -3.801604    0.483751    0.736138
 H   -5.770293   -2.453104   -1.698387
 H   -3.579517   -3.307518   -2.428449
 H   -5.710447   -0.187866    2.073492
 H   -7.899173    0.699883    2.789863
 H   -9.730067    0.988429    1.137170
 H   -9.342152    0.388174   -1.242011
 H   -7.143128   -0.471228   -1.960669
 H    0.878798    2.075356   -3.413128
 H   -0.076491    3.260559   -2.505603
