77 
1o47_ligand_dft.xyz
 C    2.029106   -1.789228   -0.890751
 C    1.123943   -0.724064   -0.883590
 C   -0.087673   -0.823052   -0.217797
 C   -0.424619   -2.001522    0.442642
 C    0.459757   -3.078727    0.435130
 C    1.682307   -2.964340   -0.219322
 C   -1.795639   -2.133120    1.039056
 F   -1.809342   -3.042310    2.051738
 F   -2.216704   -0.937616    1.558912
 P   -3.059253   -2.633964   -0.233313
 O   -4.421508   -2.802896    0.577335
 O   -3.052688   -1.752220   -1.419809
 O   -2.689284   -4.173195   -0.508014
 C    3.359993   -1.645064   -1.584168
 C    4.510434   -1.230229   -0.630589
 C    4.142250   -0.006435    0.215653
 N    3.818911    1.114311   -0.469730
 O    4.129483   -0.055835    1.440201
 N    4.854920   -2.280172    0.293790
 C    5.580340   -3.364050   -0.087291
 O    5.900082   -3.559730   -1.251763
 C    5.977078   -4.299111    1.039414
 C    3.155779    2.206153    0.208964
 C    2.120865    2.773620   -0.770162
 N    1.248880    3.688055   -0.285836
 O    2.114986    2.403527   -1.945153
 C    1.184275    4.068682    1.125598
 C    2.372942    4.913498    1.590897
 C    0.200669    4.197696   -1.177808
 C   -1.099891    3.447615   -0.989444
 C    3.633244    4.098126    1.883763
 C    4.155615    3.266603    0.712106
 C   -1.321434    2.240858   -1.657641
 C   -2.460550    1.484693   -1.404137
 C   -3.399630    1.911342   -0.458162
 C   -3.195348    3.135492    0.184247
 C   -2.064317    3.896896   -0.086737
 C   -4.577505    1.070434   -0.126856
 C   -4.924828    0.838551    1.207988
 C   -6.014081    0.033515    1.531491
 C   -6.775641   -0.551751    0.519293
 C   -6.432394   -0.330590   -0.814924
 C   -5.341865    0.470534   -1.133135
 H    1.364290    0.192549   -1.414775
 H   -0.781240    0.008942   -0.221700
 H    0.192590   -4.001842    0.938831
 H    2.374016   -3.801869   -0.219144
 H   -4.946413   -1.982163    0.601434
 H   -2.287594   -4.259693   -1.383150
 H    3.278689   -0.907156   -2.390746
 H    3.673691   -2.584234   -2.047885
 H    5.384745   -0.996451   -1.251619
 H    3.666586    1.088676   -1.471205
 H    4.678692   -2.066306    1.267676
 H    5.241465   -4.312948    1.848964
 H    6.098538   -5.304766    0.634453
 H    6.938875   -3.979022    1.454210
 H    2.641592    1.776315    1.077802
 H    1.073430    3.177334    1.755564
 H    0.260328    4.636190    1.248162
 H    2.575977    5.677114    0.829367
 H    2.078775    5.443882    2.504412
 H    0.567952    4.093454   -2.198790
 H    0.069143    5.264231   -0.965993
 H    4.427096    4.774031    2.220394
 H    3.427361    3.418704    2.722271
 H    4.459038    3.910588   -0.123135
 H    5.046091    2.723116    1.040566
 H   -0.576341    1.879099   -2.361370
 H   -2.596321    0.521475   -1.888577
 H   -3.934270    3.498970    0.893231
 H   -1.934164    4.854707    0.412486
 H   -4.314690    1.264141    1.998996
 H   -6.260816   -0.146738    2.573380
 H   -7.624773   -1.180861    0.768964
 H   -7.011761   -0.791134   -1.608954
 H   -5.074002    0.629730   -2.172568
