81 
1o49_ligand_dft.xyz
 C   -3.078986    2.627932   -0.324495
 C   -2.296249    3.122897    0.714884
 C   -1.060190    2.544757    0.991090
 C   -0.575555    1.501744    0.199998
 C   -1.364932    1.053055   -0.854401
 C   -2.629852    1.570881   -1.115232
 C   -0.080969    4.291439    2.263249
 C    0.924948    4.839992    1.265459
 C   -3.504169    0.865340   -2.116122
 C   -4.493442   -0.113502   -1.426652
 C   -3.844299   -0.914097   -0.282803
 N   -2.801312   -1.704300   -0.607340
 N   -5.611249    0.582705   -0.837621
 C   -6.633309    1.058949   -1.595566
 C   -7.815034    1.611864   -0.821902
 O   -6.606532    1.037319   -2.818533
 O   -4.274177   -0.830242    0.863720
 C   -2.053888   -2.406875    0.420639
 C   -2.838663   -3.650640    0.890226
 C   -2.468502   -4.149284    2.285832
 C   -1.050380   -4.699937    2.411780
 C    0.022791   -3.697838    1.993280
 N    0.148116   -3.523953    0.542036
 C   -0.680638   -2.740390   -0.174176
 C    1.339110   -4.046697   -0.131362
 C    2.476794   -3.060292   -0.292820
 O   -0.387324   -2.352328   -1.314904
 O   -0.298454    2.925161    2.077330
 C    2.991569   -2.354089    0.795357
 C    4.000744   -1.419450    0.617450
 C    4.537891   -1.173788   -0.649734
 C    4.046021   -1.906083   -1.731671
 C    3.023886   -2.831730   -1.554512
 C    5.575791   -0.131286   -0.840514
 C    6.703086   -0.372652   -1.631730
 C    7.670348    0.611354   -1.807723
 C    7.522646    1.852983   -1.195552
 C    6.400311    2.104268   -0.410286
 C    5.432221    1.121426   -0.233340
 P    0.873318    0.488920    0.597313
 O    0.554908   -0.567303    1.590665
 O    2.060053    1.469728    1.006337
 O    1.336070   -0.055666   -0.836520
 O    0.939839    6.172952    1.269031
 O    1.651469    4.174677    0.561001
 H   -4.061678    3.054705   -0.501501
 H   -2.680529    3.924805    1.337190
 H   -0.986910    0.244902   -1.471196
 H    0.339852    4.412583    3.266166
 H   -0.994030    4.894457    2.215075
 H   -2.877722    0.302882   -2.818038
 H   -4.110219    1.550409   -2.714332
 H   -4.865453   -0.806912   -2.191683
 H   -2.368673   -1.677841   -1.522098
 H   -5.689183    0.475117    0.166900
 H   -8.639766    0.894560   -0.880076
 H   -7.590976    1.802601    0.231344
 H   -8.146508    2.536677   -1.298568
 H   -1.905370   -1.722661    1.266759
 H   -3.892192   -3.360960    0.903354
 H   -2.728858   -4.451192    0.147172
 H   -3.184927   -4.923486    2.583110
 H   -2.596023   -3.319859    2.994498
 H   -0.866520   -4.980937    3.455722
 H   -0.939302   -5.612024    1.810878
 H   -0.136107   -2.714354    2.447831
 H    0.997441   -4.043116    2.344845
 H    1.662352   -4.919406    0.446096
 H    1.032701   -4.404364   -1.117851
 H    2.570001   -2.487556    1.785554
 H    4.370619   -0.862220    1.472721
 H    4.432588   -1.714169   -2.728674
 H    2.620079   -3.356563   -2.416712
 H    6.830503   -1.347094   -2.096016
 H    8.545084    0.404884   -2.417876
 H    8.278212    2.621497   -1.331232
 H    6.272357    3.074787    0.060837
 H    4.538940    1.326698    0.350814
 H    1.876697    2.415547    0.822987
 H    1.018698   -0.962050   -1.021834
 H    1.624759    6.458791    0.641714
