76 
1o4a_ligand_xtb.xyz
 C    2.527343   -2.920257   -0.665426
 C    1.645564   -3.633542    0.117904
 C    0.508596   -3.025213    0.652124
 C    0.275234   -1.664000    0.400902
 C    1.157707   -0.973968   -0.413944
 C    2.284122   -1.581411   -0.952793
 C    3.249506   -0.793757   -1.786060
 C    4.307178   -0.107965   -0.883588
 C    3.607272    0.776360    0.150975
 N    2.994559    1.851584   -0.366088
 N    5.085550   -1.074420   -0.154274
 C    5.988186   -1.898226   -0.724722
 C    6.670100   -2.820756    0.264322
 O    6.223682   -1.890712   -1.915784
 O    3.624109    0.507956    1.337080
 C    1.999818    2.604219    0.366400
 C    2.574975    3.937532    0.871121
 C    1.816510    4.495150    2.070902
 C    0.368129    4.860062    1.756844
 C   -0.461780    3.655710    1.300998
 N   -0.280845    3.360056   -0.103758
 C    0.841739    2.831026   -0.606792
 C   -1.401011    3.615023   -1.001032
 C   -2.440130    2.530981   -0.887422
 O    0.981621    2.565596   -1.792766
 C   -2.222677    1.299944   -1.498477
 C   -3.139508    0.275178   -1.363322
 C   -4.301828    0.454325   -0.613973
 C   -4.519983    1.690502   -0.011157
 C   -3.598943    2.713920   -0.143979
 C   -5.283437   -0.632035   -0.469932
 C   -6.644980   -0.369365   -0.603434
 C   -7.573553   -1.384906   -0.473114
 C   -7.157281   -2.676904   -0.198193
 C   -5.806568   -2.947297   -0.058706
 C   -4.874750   -1.935391   -0.197861
 C   -0.444354   -3.838269    1.426194
 O   -1.586870   -3.533357    1.684377
 O    0.063370   -5.016595    1.828302
 C   -0.905033   -0.945794    0.991947
 O   -0.708771    0.455158    0.972923
 H    3.402517   -3.403517   -1.073868
 H    1.819955   -4.678793    0.319732
 H    0.945484    0.060991   -0.628806
 H    2.720394   -0.033437   -2.361792
 H    3.788627   -1.448050   -2.472510
 H    4.970635    0.490058   -1.521037
 H    2.904370    1.952246   -1.372293
 H    4.884767   -1.099286    0.838475
 H    7.242435   -2.234274    0.979424
 H    7.339973   -3.489302   -0.268340
 H    5.928217   -3.402745    0.806163
 H    1.682474    1.988184    1.214981
 H    2.582174    4.663886    0.054991
 H    3.609866    3.754934    1.166411
 H    2.335148    5.386272    2.430562
 H    1.833805    3.755469    2.874158
 H   -0.088948    5.278746    2.655369
 H    0.339248    5.626315    0.978988
 H   -0.206633    2.778553    1.901868
 H   -1.522578    3.864121    1.449257
 H   -0.994120    3.635306   -2.015017
 H   -1.827731    4.592866   -0.760968
 H   -1.326924    1.153120   -2.082182
 H   -2.969939   -0.667212   -1.863528
 H   -5.411775    1.844847    0.578528
 H   -3.793666    3.668313    0.326383
 H   -6.972749    0.634558   -0.832600
 H   -8.625856   -1.168204   -0.587124
 H   -7.883536   -3.469266   -0.092631
 H   -5.473769   -3.950410    0.162775
 H   -3.826132   -2.159406   -0.066521
 H   -0.615380   -5.509346    2.315142
 H   -1.069995   -1.284842    2.022822
 H   -1.798581   -1.213445    0.413088
 H   -1.570732    0.872589    1.065664
