27 
1o4f_ligand_xtb.xyz
 C   -2.661623   -1.917138    0.542477
 C   -3.273466   -0.554187    0.236930
 C   -2.191744    0.473803    0.037819
 C   -0.907087    0.056824   -0.334867
 N   -0.584597   -1.271335   -0.496151
 C   -1.638764   -2.257355   -0.534713
 C   -2.445502    1.823082    0.218921
 C   -1.454189    2.771960    0.042551
 C   -0.173940    2.367423   -0.297118
 C    0.089069    1.026613   -0.484375
 O    1.381186    0.627053   -0.832865
 P    2.229485   -0.178328    0.262643
 O    3.668292    0.465427    0.082514
 O    2.415116   -1.638776   -0.402610
 O    1.723425   -0.207777    1.625044
 H   -3.433501   -2.686422    0.582696
 H   -2.153106   -1.878302    1.506708
 H   -3.930846   -0.242372    1.050450
 H   -3.883927   -0.619548   -0.670039
 H    0.201680   -1.447578   -1.103267
 H   -2.133966   -2.286769   -1.518459
 H   -1.194518   -3.239720   -0.348644
 H   -3.440468    2.132304    0.504797
 H   -1.668108    3.818862    0.187109
 H    0.628897    3.078421   -0.412478
 H    3.927944    0.525174   -0.836867
 H    2.169138   -2.293343    0.248980
