35 
1o4k_ligand_xtb.xyz
 C    0.925547    2.941471   -0.931297
 C    2.242077    3.172650   -0.571290
 C    2.945061    2.206630    0.125232
 C    2.349590    1.002906    0.481613
 C    1.022235    0.786417    0.115450
 C    0.318130    1.745728   -0.594767
 C    3.122404   -0.033827    1.256961
 O    0.391014   -0.382985    0.476628
 P    0.536775   -1.662592   -0.509759
 O   -0.920286   -1.968287   -1.038889
 O    0.774494   -2.844044    0.527680
 C   -2.020461   -2.042416   -0.131249
 C   -2.572989   -0.670330    0.138922
 C   -2.605027   -0.142917    1.421659
 C   -3.079057    1.140051    1.637095
 C   -3.520743    1.906940    0.572787
 C   -3.489206    1.386778   -0.710902
 C   -3.018271    0.103790   -0.926555
 O    1.497126   -1.488407   -1.595417
 O    3.085297   -1.332957    0.701013
 H    0.372232    3.686477   -1.482020
 H    2.724096    4.100475   -0.838759
 H    3.974954    2.383646    0.399687
 H   -0.703369    1.537238   -0.871875
 H    2.697026   -0.135019    2.261909
 H    4.166856    0.294693    1.355786
 H    1.664562   -2.748901    0.884622
 H   -1.705832   -2.526783    0.795552
 H   -2.763451   -2.669074   -0.635508
 H   -2.251530   -0.735617    2.252427
 H   -3.098576    1.544436    2.638321
 H   -3.886152    2.909036    0.741609
 H   -3.829764    1.982582   -1.545334
 H   -2.977436   -0.304231   -1.925879
 H    3.227861   -1.269870   -0.254232
