35 
1o4k_ligand_dft.xyz
 C    0.534124    3.012730   -0.745692
 C    1.856806    3.372875   -0.509390
 C    2.732898    2.452326    0.057869
 C    2.309140    1.169074    0.403379
 C    0.976269    0.834262    0.147034
 C    0.087764    1.736167   -0.418654
 C    3.254971    0.194120    1.063056
 O    0.519477   -0.417504    0.523391
 P    0.674927   -1.690804   -0.479162
 O   -0.807445   -2.226966   -0.675541
 O    1.317094   -2.780135    0.491533
 C   -1.789430   -2.130275    0.372421
 C   -2.504932   -0.803988    0.325951
 C   -2.568337    0.015137    1.451131
 C   -3.218167    1.245267    1.392221
 C   -3.801833    1.668411    0.202095
 C   -3.738141    0.855299   -0.928760
 C   -3.095479   -0.376316   -0.865221
 O    1.383742   -1.383942   -1.731791
 O    3.432147   -1.035877    0.361544
 H   -0.156871    3.723297   -1.188471
 H    2.208494    4.366750   -0.767531
 H    3.767305    2.732058    0.241221
 H   -0.938168    1.431706   -0.595603
 H    2.877408   -0.086659    2.051386
 H    4.229909    0.677944    1.202047
 H    2.225582   -2.458221    0.685059
 H   -1.321887   -2.296351    1.347786
 H   -2.477982   -2.955905    0.177702
 H   -2.087212   -0.300483    2.372845
 H   -3.254940    1.879075    2.273065
 H   -4.302207    2.630851    0.152541
 H   -4.189468    1.182101   -1.860732
 H   -3.030055   -1.004061   -1.749506
 H    3.352146   -0.875199   -0.592104
