18 
1o4o_ligand_dft.xyz
 C    2.709194   -1.184739    0.102291
 C    3.350274    0.033055    0.315295
 C    2.667057    1.226483    0.092429
 C    1.344634    1.210759   -0.340387
 C    0.720394   -0.013980   -0.547473
 C    1.386883   -1.215776   -0.332455
 O   -0.587117   -0.044471   -1.014429
 P   -1.835890   -0.052023    0.000429
 O   -3.121593   -0.330836   -0.637822
 O   -1.705814    1.392996    0.710593
 O   -1.430963   -1.092432    1.151398
 H    3.238998   -2.117367    0.269641
 H    4.382095    0.052476    0.651498
 H    3.164591    2.177457    0.255449
 H    0.791003    2.125947   -0.517159
 H    0.867223   -2.150960   -0.512256
 H   -2.581001    1.794564    0.796546
 H   -0.631284   -0.838647    1.633737
