42 
1o5a_ligand_xtb.xyz
 C    5.009700   -0.433887    0.065740
 C    4.435693   -1.714712   -0.043317
 C    3.075678   -1.895488   -0.119333
 C    2.269445   -0.762479   -0.079081
 C    2.824802    0.536607    0.044396
 C    4.208988    0.692700    0.116783
 C    6.480756   -0.341678    0.139968
 N    7.036708    0.855425   -0.249162
 N    7.133293   -1.333382    0.587916
 N    0.919913   -0.628947   -0.134795
 C    1.734638    1.440124    0.062634
 C    0.577915    0.699152   -0.048107
 C   -0.797191    1.164422   -0.088292
 C   -1.051155    2.534469   -0.194631
 C   -2.335292    3.036916   -0.218891
 C   -3.412443    2.174284   -0.146985
 C   -3.206011    0.802845   -0.061302
 C   -1.902633    0.296882   -0.023119
 O   -1.696157   -1.050265    0.112748
 C   -4.371925   -0.103171   -0.000932
 C   -4.518523   -1.151108   -0.909268
 C   -5.623178   -1.982797   -0.848648
 C   -6.593316   -1.781060    0.117814
 C   -6.459619   -0.737825    1.019831
 C   -5.358649    0.095780    0.961451
 H    5.108470   -2.556639   -0.059183
 H    2.644372   -2.881974   -0.204818
 H    4.629614    1.679909    0.241856
 H    8.038592    0.892392   -0.350117
 H    6.511665    1.468724   -0.848133
 H    8.141550   -1.196043    0.611447
 H    1.814045    2.504227    0.159048
 H   -0.215902    3.211691   -0.261062
 H   -2.498369    4.100861   -0.297824
 H   -4.423779    2.551182   -0.177008
 H   -2.553626   -1.488398    0.212524
 H   -3.782276   -1.293251   -1.689225
 H   -5.727612   -2.786870   -1.562268
 H   -7.454367   -2.430780    0.164520
 H   -7.217362   -0.573812    1.771738
 H   -5.249480    0.904982    1.668670
 H    0.248247   -1.375608   -0.190125
