39 
1o7o_ligand_dft.xyz
 N    0.946415   -1.486210    0.797893
 C    0.269881   -2.290391   -0.094228
 N   -1.033321   -2.559295    0.251684
 C   -1.739429   -2.022048    1.323530
 C   -0.908688   -1.376809    2.301871
 C    0.371537   -1.096138    1.982446
 O    0.765311   -2.725182   -1.126899
 O   -2.969776   -2.097563    1.334171
 C    2.318993   -1.047079    0.421928
 C    2.381268   -0.451264   -1.009472
 O    2.949754   -1.307102   -1.956121
 C    3.305828    0.756940   -0.817376
 C    3.011263    1.173373    0.620004
 O    2.720177   -0.051729    1.309426
 O    4.649292    0.357841   -0.892446
 C    1.892910    2.187826    0.784840
 O    0.756593    1.798695    0.000176
 P   -0.736637    1.903554    0.577881
 O   -0.811561    1.896969    2.042842
 O   -1.436041    3.107078   -0.160815
 O   -1.340820    0.564111   -0.152811
 P   -2.600833    0.405390   -1.170113
 O   -2.152446   -0.862502   -2.036231
 O   -3.795595   -0.123259   -0.316893
 O   -2.831390    1.659398   -1.918250
 H   -1.578048   -3.020474   -0.467537
 H   -1.360674   -0.979649    3.198757
 H    1.010538   -0.497600    2.615698
 H    2.984624   -1.912383    0.504529
 H    1.382855   -0.111048   -1.303178
 H    2.367305   -2.084393   -1.985254
 H    3.078803    1.556408   -1.535708
 H    3.913718    1.586036    1.079649
 H    4.680995   -0.353821   -1.550353
 H    1.610340    2.264991    1.838089
 H    2.230911    3.165675    0.426925
 H   -1.979404    2.846085   -0.947786
 H   -1.514934   -0.634842   -2.727560
 H   -3.605997   -0.881101    0.299713
