25 
1o8b_ligand_dft.xyz
 C    1.246286   -1.169550    0.593986
 O    0.414909   -0.093849    0.999069
 C    2.606523   -0.501864    0.394819
 O    3.506472   -1.253876   -0.365324
 C    2.206261    0.851452   -0.242509
 O    3.003923    1.938107    0.164831
 C    0.764217    1.074311    0.232855
 C   -0.221310    1.245381   -0.919259
 O   -1.571665    1.256794   -0.450174
 P   -2.306451   -0.121752   -0.060273
 O   -1.813556   -1.305582   -0.795906
 O   -3.842521    0.193772   -0.323462
 O   -2.259134   -0.176656    1.537282
 O    0.893772   -1.701313   -0.640728
 H    1.196207   -1.910566    1.398453
 H    3.069862   -0.297163    1.364846
 H    2.973745   -1.687829   -1.049735
 H    2.238413    0.733731   -1.336294
 H    3.904105    1.761692   -0.136794
 H    0.712972    1.927134    0.913633
 H   -0.095010    0.443118   -1.651142
 H   -0.059039    2.210198   -1.405346
 H   -4.215810    0.800487    0.329560
 H   -1.316896   -0.196828    1.798530
 H   -0.081267   -1.815249   -0.685685
