25 
1o8b_ligand_xtb.xyz
 C    1.254505   -1.164764    0.582714
 O    0.369396   -0.128065    0.936235
 C    2.616679   -0.466719    0.393753
 O    3.501219   -1.193075   -0.393433
 C    2.183506    0.888132   -0.229168
 O    2.919403    1.985570    0.233062
 C    0.715660    1.043137    0.200755
 C   -0.241619    1.203394   -0.983075
 O   -1.577435    1.241566   -0.538357
 P   -2.268746   -0.128567   -0.033975
 O   -1.729196   -1.355729   -0.622385
 O   -3.776003    0.133799   -0.397176
 O   -2.317587   -0.039785    1.556070
 O    0.938582   -1.780160   -0.618140
 H    1.236318   -1.882714    1.416904
 H    3.095594   -0.279165    1.360354
 H    2.969493   -1.690195   -1.033658
 H    2.255760    0.807015   -1.324642
 H    3.852364    1.830571    0.042512
 H    0.610852    1.893262    0.882422
 H   -0.110688    0.363970   -1.673254
 H   -0.053395    2.148830   -1.495995
 H   -4.128495    0.904141    0.047750
 H   -1.457492   -0.243150    1.928528
 H   -0.038530   -1.856115   -0.678173
