30 
1oar_ligand_xtb.xyz
 C   -0.589095    0.870967    0.024579
 C   -3.060221    0.412942    0.020660
 C   -0.350309   -0.518178   -0.006444
 C    0.496255    1.753385   -0.008436
 C   -1.449507   -1.510287    0.034614
 C    0.947804   -1.000836   -0.068739
 C    1.823286    1.243085   -0.076522
 C   -3.893188   -1.850934   -0.055049
 C   -5.432800   -0.013394   -0.072037
 C   -5.192114   -1.379816   -0.092824
 C    2.014201   -0.124490   -0.104015
 C   -1.968502    1.413849    0.088405
 C   -2.818510   -0.965222   -0.001628
 C   -4.374154    0.874121   -0.012539
 O    3.891575   -1.046475    1.452344
 O    4.561949    0.284710   -0.490464
 O    2.809153    2.153146   -0.111620
 O    0.332446    3.074860    0.016708
 O    3.742447   -2.025422   -0.787851
 O   -2.206885    2.598645    0.185146
 O   -1.225818   -2.704306    0.092035
 S    3.663067   -0.772716   -0.115148
 H    1.124377   -2.064183   -0.104693
 H   -3.680413   -2.909516   -0.067799
 H   -6.446188    0.357938   -0.101177
 H   -6.017237   -2.074656   -0.137891
 H   -4.539529    1.941016    0.008377
 H    3.915718   -1.987030    1.636465
 H    3.671512    1.686975   -0.237803
 H    1.204859    3.500502   -0.023626
