35 
1od8_ligand_xtb.xyz
 N   -4.340435    0.019597    0.153878
 C   -3.468752   -0.969141   -0.104213
 C   -1.966519   -0.672388   -0.020704
 O   -1.335376   -1.417373   -1.033510
 C   -1.625953    0.813473   -0.152264
 O   -0.330145    1.152388    0.330131
 C   -2.600190    1.633008    0.691289
 C   -4.028702    1.429601    0.214100
 O   -3.829606   -2.097566   -0.381506
 C    0.728094    0.335960   -0.056901
 C    2.011712    1.176787    0.048401
 C    3.206747    0.305901   -0.340872
 C    3.222184   -0.960257    0.526155
 C    1.853703   -1.646820    0.446510
 O    1.970341    2.290834   -0.810839
 O    4.428045    0.981939   -0.156915
 O    4.204119   -1.861330    0.090239
 O    0.812225   -0.772126    0.806104
 H   -5.315152   -0.233329    0.056536
 H   -1.618485   -1.017332    0.968950
 H   -1.855474   -2.232821   -1.130523
 H   -1.691025    1.084412   -1.218953
 H   -2.328512    2.686159    0.633093
 H   -2.497080    1.311133    1.728118
 H   -4.159087    1.882155   -0.778925
 H   -4.728202    1.910913    0.902915
 H    0.598704   -0.008496   -1.099780
 H    2.117892    1.502384    1.094729
 H    3.095625    0.018028   -1.399543
 H    3.417234   -0.652870    1.566249
 H    1.809893   -2.479624    1.148223
 H    1.703973   -2.026286   -0.573396
 H    1.125231    2.732480   -0.664507
 H    4.333832    1.854306   -0.557523
 H    5.022915   -1.359264   -0.011438
