33 
1odj_ligand_dft.xyz
 O    2.356094   -1.556267    1.607257
 C    3.491241   -1.554890    0.766396
 C    3.350328   -0.433511   -0.247629
 O    2.249635   -0.704659   -1.126101
 C    3.078072    0.950419    0.346369
 O    3.566509    1.925082   -0.543409
 C    1.549694    0.998917    0.380932
 O    1.110338    2.328992    0.291332
 C    1.184019    0.152989   -0.858518
 N   -0.024709   -0.634859   -0.637022
 C   -0.188192   -2.001122   -0.681076
 N   -1.413259   -2.380438   -0.433991
 C   -2.095141   -1.206126   -0.212185
 C   -3.474370   -0.972803    0.122339
 O   -4.400915   -1.734256    0.292209
 N   -3.698898    0.438100    0.267972
 C   -2.774048    1.432400    0.137296
 N   -3.197036    2.710931    0.392930
 N   -1.521043    1.212180   -0.169616
 C   -1.245929   -0.117868   -0.329626
 H    2.331602   -2.382598    2.100703
 H    3.583864   -2.501534    0.216208
 H    4.419396   -1.399198    1.338232
 H    4.256820   -0.393286   -0.859415
 H    3.517848    1.062925    1.346500
 H    2.939806    2.663663   -0.487976
 H    1.176799    0.499039    1.280341
 H    0.144355    2.280861    0.155935
 H    1.003708    0.812122   -1.716958
 H    0.645576   -2.647759   -0.905884
 H   -4.639338    0.662301    0.567484
 H   -4.161456    2.936107    0.198590
 H   -2.541698    3.424400    0.108243
