46 
1oe0_ligand_xtb.xyz
 P   -1.232433   -1.966607    0.725057
 O   -0.775119   -3.437688    0.438132
 O   -1.141047   -1.476459    2.090874
 O   -0.361036   -1.068124   -0.341421
 P    1.141226   -1.430209   -0.632464
 O    1.709506   -2.424156    0.289251
 O    1.141644   -1.806134   -2.146986
 O    1.865266   -0.022070   -0.523206
 P    3.510678   -0.217771   -0.740472
 O    3.701484   -1.065524   -1.916917
 O    4.049469    1.219210   -0.808089
 O    3.961419   -0.816912    0.639909
 O   -2.652063   -1.939057    0.040017
 C   -3.752504   -1.350616    0.714917
 C   -4.014397    0.085746    0.251067
 O   -3.083695    0.964935    0.860976
 C   -3.901355    0.281250   -1.271703
 O   -5.002088    1.056835   -1.679148
 C   -2.558940    0.999277   -1.433459
 C   -2.409684    1.733242   -0.094580
 N   -1.016040    1.907762    0.313525
 C   -0.194908    2.590036   -0.556854
 O   -0.580385    3.066046   -1.599684
 N    1.105967    2.712202   -0.127976
 C    1.668970    2.171307    1.010012
 O    2.880588    2.271352    1.196813
 C    0.733150    1.519096    1.889411
 C    1.231813    0.914109    3.162355
 C   -0.554217    1.410791    1.492830
 H    0.184849   -3.514628    0.549730
 H    2.055710   -1.734369   -2.482171
 H    3.784142    1.758591   -0.004651
 H    3.497689   -1.644337    0.824719
 H   -4.619466   -1.977651    0.496626
 H   -3.554854   -1.334200    1.789793
 H   -5.023180    0.377457    0.572661
 H   -3.902932   -0.687320   -1.786618
 H   -4.916841    1.262926   -2.617095
 H   -2.542418    1.690528   -2.272728
 H   -1.754774    0.273607   -1.540284
 H   -2.857987    2.740707   -0.155465
 H    1.734771    3.161818   -0.786305
 H    1.170510    1.632417    3.979433
 H    0.637300    0.040141    3.411878
 H    2.274804    0.632679    3.039187
 H   -1.287985    0.897250    2.092498
