38 
1oe7_ligand_xtb.xyz
 N   -1.704236    0.998338   -0.277927
 C   -2.651434    0.093182   -0.957347
 C   -4.006591    0.093709   -0.233581
 O   -4.850287   -0.732329   -0.402025
 O   -4.117427    1.143406    0.578326
 C   -2.094266   -1.330830   -1.083449
 C   -1.864877   -2.051870    0.256161
 C   -0.688125   -1.437576    0.978775
 O   -0.806672   -0.431675    1.677396
 N    0.507678   -2.001842    0.766479
 C    1.695334   -1.217260    1.027767
 C    1.631536    0.031360    0.117487
 O    0.813098    0.115058   -0.783274
 C    2.946445   -2.040894    0.756856
 S    2.989557   -2.496491   -1.031087
 N    2.525031    0.986856    0.388692
 C    2.599752    2.202203   -0.391837
 C    1.458374    3.173020   -0.093443
 O    1.884217    4.420034   -0.100332
 O    0.314673    2.844042    0.090910
 H   -0.753528    0.953150   -0.706830
 H   -2.022188    1.969075   -0.248077
 H   -1.540734    0.655791    0.714801
 H   -2.841825    0.470727   -1.970180
 H   -4.978858    1.156007    1.026952
 H   -2.820048   -1.907618   -1.657437
 H   -1.159120   -1.290834   -1.644376
 H   -2.756447   -1.971391    0.878827
 H   -1.678119   -3.106314    0.058661
 H    0.601473   -2.740117    0.082191
 H    1.670451   -0.889801    2.074373
 H    2.926086   -2.956641    1.346486
 H    3.845873   -1.472371    0.990144
 H    3.967975   -3.387846   -0.919455
 H    3.112228    0.916574    1.204493
 H    3.552344    2.701258   -0.222795
 H    2.512333    1.937271   -1.453163
 H    1.172167    5.064907    0.049701
