86 
1ohr_ligand_dft.xyz
 C    3.360100   -2.416086    0.302906
 C    4.445508   -1.619400    1.051646
 C    5.836448   -2.228192    0.816860
 C    6.156496   -2.436430   -0.667260
 C    5.067314   -3.260295   -1.358186
 C    3.689142   -2.616574   -1.185824
 N    1.974121   -0.338551    0.101262
 C    2.994963    0.475521    0.830281
 C    4.387803   -0.139817    0.654106
 C    1.994757   -1.782449    0.520152
 C    2.973544    1.876917    0.203266
 N    3.277757    2.884930    1.034187
 C    3.440933    4.307441    0.641046
 C    4.557535    4.430661   -0.401471
 C    3.821848    5.059491    1.918393
 C    2.112727    4.839135    0.089712
 O    2.722254    1.974895   -0.992586
 C    0.578708    0.218706    0.143123
 C    0.081986    0.373644   -1.319625
 C   -1.455782    0.269845   -1.439360
 O    0.764087   -0.518695   -2.163660
 N   -2.061376   -0.806345   -0.654618
 C   -2.105344    1.591415   -1.015485
 C   -1.764278   -2.125580   -0.761977
 O   -0.731530   -2.526960   -1.313440
 C   -2.757142   -3.058603   -0.148535
 C   -4.115482   -2.840707   -0.404538
 C   -5.061088   -3.718722    0.105945
 C   -4.655005   -4.798786    0.876324
 C   -3.299641   -5.009635    1.132938
 C   -2.319423   -4.144482    0.623623
 O   -2.870786   -6.054262    1.886176
 C   -0.866296   -4.399532    0.937137
 S   -3.918376    1.543083   -1.276888
 C   -4.390589    2.968258   -0.308327
 C   -4.529805    4.210261   -0.929275
 C   -4.907474    5.319719   -0.178107
 C   -5.145667    5.190464    1.187408
 C   -5.011161    3.949595    1.805599
 C   -4.637969    2.836208    1.059653
 H    3.298312   -3.412419    0.760634
 H    4.223407   -1.679016    2.127227
 H    6.599192   -1.599451    1.290985
 H    5.872913   -3.199626    1.326156
 H    6.261624   -1.468245   -1.174756
 H    7.125182   -2.936807   -0.762437
 H    5.291744   -3.376919   -2.422775
 H    5.047291   -4.270117   -0.926518
 H    3.674033   -1.661022   -1.729015
 H    2.913079   -3.239490   -1.644833
 H    2.199933   -0.314591   -0.911111
 H    2.695482    0.479427    1.884790
 H    4.688587    0.002772   -0.389977
 H    5.088368    0.442668    1.262129
 H    1.216497   -2.281899   -0.061913
 H    1.707852   -1.798260    1.577399
 H    3.470616    2.658102    1.999631
 H    5.499294    4.035634   -0.006288
 H    4.301349    3.888719   -1.314505
 H    4.709098    5.484279   -0.654660
 H    4.763619    4.684031    2.335557
 H    3.958095    6.120894    1.696421
 H    3.037677    4.975666    2.679859
 H    1.316549    4.736960    0.835094
 H    2.216163    5.900566   -0.154974
 H    1.826090    4.302663   -0.817537
 H   -0.041919   -0.474325    0.713331
 H    0.591838    1.178921    0.661417
 H    0.375022    1.367545   -1.664686
 H   -1.652103    0.099125   -2.506085
 H    0.310085   -1.388560   -2.071288
 H   -2.950632   -0.575438   -0.225861
 H   -1.676199    2.409217   -1.599363
 H   -1.917080    1.788086    0.046458
 H   -4.432112   -2.014516   -1.034628
 H   -6.115355   -3.566767   -0.099230
 H   -5.393434   -5.488671    1.278170
 H   -3.626356   -6.580070    2.174992
 H   -0.771228   -5.152067    1.719996
 H   -0.374726   -3.483026    1.280917
 H   -0.331728   -4.747012    0.048882
 H   -4.351369    4.303184   -1.995999
 H   -5.021296    6.284297   -0.662519
 H   -5.444956    6.056453    1.769541
 H   -5.207713    3.845014    2.868054
 H   -4.548495    1.862741    1.532885
