86 
1ohr_ligand_xtb.xyz
 C    3.381755   -2.370727    0.177552
 C    4.546897   -1.565430    0.766683
 C    5.889686   -2.144734    0.309945
 C    5.976107   -2.308613   -1.204994
 C    4.816905   -3.155077   -1.720175
 C    3.482582   -2.516412   -1.343604
 N    1.966421   -0.324484    0.208145
 C    3.043839    0.473903    0.829343
 C    4.403169   -0.086784    0.401121
 C    2.054205   -1.748102    0.604834
 C    2.966774    1.933990    0.323591
 N    3.549620    2.816185    1.137536
 C    3.727634    4.251287    0.845428
 C    4.575450    4.403849   -0.417598
 C    4.441107    4.861238    2.048352
 C    2.354819    4.896450    0.654131
 O    2.436721    2.178030   -0.740271
 C    0.598183    0.220627    0.362995
 C    0.043466    0.474816   -1.073508
 C   -1.488987    0.308147   -1.167982
 O    0.720939   -0.346867   -1.977815
 N   -2.008709   -0.842919   -0.440177
 C   -2.209402    1.551722   -0.662777
 C   -1.628209   -2.131580   -0.585796
 O   -0.547454   -2.441490   -1.085970
 C   -2.600457   -3.114256   -0.049244
 C   -3.950590   -2.930205   -0.355975
 C   -4.888040   -3.847191    0.073805
 C   -4.491603   -4.940286    0.821832
 C   -3.150659   -5.131121    1.132923
 C   -2.180282   -4.222762    0.688954
 O   -2.741385   -6.192820    1.870289
 C   -0.742459   -4.454846    1.042141
 S   -4.022703    1.337412   -0.914033
 C   -4.617955    2.924737   -0.361474
 C   -4.158001    4.094298   -0.945367
 C   -4.659170    5.308964   -0.513338
 C   -5.626262    5.352672    0.477802
 C   -6.095103    4.177730    1.041334
 C   -5.589559    2.958211    0.626332
 H    3.414648   -3.377911    0.605556
 H    4.500042   -1.644260    1.860309
 H    6.700983   -1.506250    0.663209
 H    6.014808   -3.124354    0.774884
 H    5.967176   -1.333662   -1.695110
 H    6.922152   -2.788576   -1.455815
 H    4.882895   -3.255909   -2.803457
 H    4.877156   -4.155185   -1.286936
 H    3.402047   -1.550677   -1.846093
 H    2.660477   -3.139841   -1.698392
 H    2.072818   -0.305804   -0.844727
 H    2.921474    0.421456    1.917152
 H    4.513074    0.053677   -0.674672
 H    5.193454    0.487438    0.887307
 H    1.232650   -2.285568    0.125809
 H    1.938639   -1.804021    1.691251
 H    3.984720    2.488853    1.986215
 H    5.544890    3.927968   -0.287176
 H    4.071220    3.949740   -1.265760
 H    4.732851    5.456318   -0.631321
 H    5.417127    4.402677    2.194025
 H    4.589820    5.924444    1.886830
 H    3.850778    4.735724    2.953795
 H    1.742605    4.763953    1.543687
 H    2.472153    5.959640    0.470121
 H    1.846844    4.451753   -0.196476
 H   -0.025838   -0.502633    0.888853
 H    0.617248    1.150062    0.929591
 H    0.300549    1.496785   -1.369862
 H   -1.712928    0.187628   -2.239171
 H    0.328975   -1.257848   -1.890268
 H   -2.934458   -0.687881   -0.060600
 H   -1.884118    2.428574   -1.218134
 H   -2.034649    1.704834    0.403185
 H   -4.264083   -2.095059   -0.964805
 H   -5.929172   -3.712411   -0.172476
 H   -5.224472   -5.657647    1.164597
 H   -3.493943   -6.756675    2.086977
 H   -0.641349   -5.409031    1.548378
 H   -0.380072   -3.669104    1.705209
 H   -0.131750   -4.461455    0.142841
 H   -3.426106    4.060403   -1.738707
 H   -4.301626    6.222289   -0.963904
 H   -6.020031    6.302764    0.804140
 H   -6.855103    4.207560    1.806896
 H   -5.948258    2.035243    1.055624
