24 
1oif_ligand_xtb.xyz
 O   -2.114863   -1.006940   -0.532028
 C   -0.913850   -0.368724   -0.887192
 C   -0.989083    1.026992   -0.221991
 O   -0.032052    1.923702   -0.748371
 C   -0.800188    0.913951    1.295606
 N    0.392518    0.106881    1.620800
 C    0.260034   -1.279168    1.119222
 C    0.293541   -1.210393   -0.407711
 C    1.671501   -0.726115   -0.899954
 O    2.130467    0.451565   -0.257709
 H   -2.296868   -1.747558   -1.120411
 H   -0.844474   -0.225117   -1.975184
 H   -2.004749    1.399264   -0.391855
 H   -0.411319    2.447153   -1.460866
 H   -0.683395    1.916430    1.709891
 H   -1.686395    0.438952    1.719987
 H    1.238907    0.478327    1.064198
 H    0.572674    0.128059    2.625790
 H    1.089842   -1.880822    1.492653
 H   -0.685592   -1.709630    1.457903
 H    0.155875   -2.220797   -0.803947
 H    2.413019   -1.494737   -0.666520
 H    1.653539   -0.591943   -1.984517
 H    1.741168    1.228379   -0.695743
