49 
1oiy_ligand_xtb.xyz
 C   -0.244927   -2.440642    0.063494
 C    1.631709    1.042799   -0.286180
 C    2.580440    2.231556   -0.416468
 C    1.790910    3.528327   -0.596328
 C    2.739214    4.716142   -0.734404
 C    3.652365    4.818298    0.483436
 C    4.439377    3.524318    0.667735
 C    3.490495    2.338280    0.807370
 C   -4.857985   -0.788276    0.144481
 C   -4.516742    0.558769    0.030751
 C   -3.169664    0.898377   -0.063481
 C   -2.189169   -0.072331   -0.029154
 N   -5.292674    2.817853    0.357569
 N    0.421099   -1.287607   -0.056407
 C    1.743374   -1.292634   -0.145423
 O    2.402526   -0.151498   -0.267892
 C    2.425063   -2.518963   -0.107930
 N    3.741717   -2.900076   -0.170064
 N    2.465745   -4.719480    0.039206
 C    1.609726   -3.662336    0.024618
 N    0.286208   -3.663746    0.112613
 N   -1.603976   -2.438806    0.151488
 C   -2.532710   -1.417103    0.105513
 C   -3.885757   -1.761383    0.189570
 C   -5.621510    1.553005   -0.017096
 C    3.725852   -4.188985   -0.081634
 O   -6.748066    1.269296   -0.371156
 H    0.933465    1.007492   -1.131525
 H    1.047420    1.109569    0.639795
 H    3.203613    2.065038   -1.300814
 H    1.144539    3.678613    0.271961
 H    1.153176    3.457312   -1.480290
 H    2.163580    5.637186   -0.847691
 H    3.347472    4.589252   -1.632547
 H    3.047938    5.004872    1.374180
 H    4.338573    5.658958    0.363063
 H    5.073365    3.597017    1.553511
 H    5.088813    3.368902   -0.196429
 H    4.056306    1.412320    0.916274
 H    2.876033    2.468344    1.701932
 H   -5.904101   -1.048892    0.196700
 H   -2.870547    1.928015   -0.198189
 H   -1.149782    0.190633   -0.110611
 H   -6.026714    3.505684    0.384752
 H   -4.414465    3.036196    0.790396
 H   -1.978991   -3.374858    0.237740
 H   -4.165151   -2.801194    0.284571
 H    4.603430   -4.804705   -0.098837
 H    2.209153   -5.688407    0.120390
