49 
1oiy_ligand_dft.xyz
 C    7.727770   43.712215   49.649540
 C    4.859302   45.271150   51.979774
 C    4.022566   46.022496   53.000242
 C    2.559078   45.568585   52.909466
 C    1.681512   46.291630   53.935340
 C    2.222892   46.114995   55.356781
 C    3.682809   46.566943   55.451403
 C    4.559178   45.842993   54.426080
 C    5.101893   40.207858   47.364381
 C    3.888189   40.488626   47.996227
 C    3.845767   41.543604   48.908084
 C    4.975242   42.294057   49.209324
 N    1.644165   39.689231   48.509845
 N    6.775979   44.248386   50.434877
 C    7.103184   45.251198   51.238971
 O    6.188694   45.801586   52.023453
 C    8.419046   45.736538   51.263322
 N    9.064794   46.737440   51.967677
 N   10.497727   45.706580   50.579371
 C    9.294318   45.081553   50.392991
 N    9.012470   44.073204   49.569523
 N    7.391369   42.670502   48.815970
 C    6.194457   41.992053   48.589233
 C    6.236539   40.939179   47.659306
 C    2.702749   39.652869   47.633886
 C   10.289448   46.684072   51.532012
 O    2.662359   38.990286   46.610030
 H    4.891429   44.198469   52.207411
 H    4.459059   45.390871   50.966237
 H    4.067925   47.091561   52.746101
 H    2.172886   45.737058   51.896188
 H    2.508636   44.484429   53.092325
 H    1.652165   47.362560   53.690443
 H    0.650714   45.924902   53.870594
 H    1.603744   46.672099   56.069296
 H    2.154674   45.054623   55.639124
 H    4.069932   46.395692   56.462251
 H    3.738575   47.649888   55.272108
 H    4.580212   44.767711   54.661319
 H    5.591867   46.201254   54.480479
 H    5.135035   39.403486   46.637088
 H    2.906472   41.823320   49.377902
 H    4.922300   43.113612   49.909959
 H    1.804921   39.906181   49.481051
 H    0.912783   39.019774   48.318503
 H   11.358582   45.484326   50.105183
 H    8.186121   42.352527   48.280055
 H    7.174050   40.699304   47.163111
 H   11.095419   47.326523   51.860158
