109 
1okv_ligand_xtb.xyz
 N   -0.137446    1.764074    1.239860
 C   -0.195740    2.724543    0.115188
 C    0.746318    2.259013   -1.016755
 O    0.374363    2.239673   -2.169361
 C    0.111274    4.150218    0.587099
 C    0.427064    5.130916   -0.549039
 C   -0.634179    5.214194   -1.658513
 N   -1.955395    5.501532   -1.160874
 C   -2.987685    4.615135   -1.081113
 N   -4.012980    5.006458   -0.244745
 N   -3.076884    3.461966   -1.629873
 N    1.987118    1.959663   -0.602413
 C    2.937408    1.236468   -1.414894
 C    2.979487   -0.215316   -0.904678
 O    2.917219   -0.453040    0.296882
 C    4.348804    1.877137   -1.385907
 C    4.675070    2.692038   -0.130378
 C    4.884066    1.856739    1.151308
 N    4.404324    2.555922    2.330087
 C    3.086309    2.604116    2.659710
 N    2.205156    1.709236    2.360222
 N    2.662686    3.730202    3.312723
 N    3.117331   -1.135023   -1.860035
 C    3.090132   -2.590625   -1.690138
 C    1.642076   -3.012883   -1.371314
 O    0.952247   -3.574202   -2.195176
 C    4.116877   -3.080238   -0.665884
 C    4.014906   -4.585354   -0.385784
 C    5.049552   -4.967835    0.670902
 C    4.217451   -5.416116   -1.650490
 N    1.229182   -2.695872   -0.130019
 C   -0.181477   -2.730812    0.193127
 C   -0.789569   -1.396040   -0.217939
 O   -0.097511   -0.374339   -0.258920
 C   -0.385854   -3.015501    1.696523
 C   -1.823265   -3.433644    2.029183
 C   -0.004338   -1.803386    2.548118
 C   -2.268927   -4.735455    1.373800
 N   -2.071028   -1.410617   -0.563206
 C   -2.823528   -0.211538   -0.861005
 C   -3.032106    0.598094    0.429581
 O   -2.553517    0.246851    1.497218
 C   -4.156152   -0.595906   -1.523948
 C   -4.902905   -1.583880   -0.667666
 C   -5.653241   -1.157404    0.421248
 C   -4.804499   -2.947925   -0.922051
 C   -6.281835   -2.074946    1.243603
 C   -5.439265   -3.866759   -0.103009
 C   -6.172303   -3.431531    0.986735
 N   -3.753191    1.715050    0.276844
 H   -0.962677    1.813573    1.840935
 H    0.793517    1.817590    1.846150
 H   -0.149724    0.804741    0.793322
 H   -1.203023    2.695562   -0.312049
 H   -0.747204    4.518775    1.153481
 H    0.970980    4.126816    1.259858
 H    1.367286    4.848939   -1.024240
 H    0.560580    6.121427   -0.108664
 H   -0.657661    4.276398   -2.213994
 H   -0.337891    6.004546   -2.356298
 H   -2.052642    6.369781   -0.657541
 H   -4.137943    5.998506   -0.117363
 H   -4.877722    4.513462   -0.407273
 H   -2.304961    3.202100   -2.230811
 H    2.157929    1.889199    0.393469
 H    2.550937    1.249020   -2.438025
 H    5.093834    1.090077   -1.514623
 H    4.429982    2.551326   -2.239710
 H    5.579104    3.268257   -0.334103
 H    3.868910    3.410159    0.038801
 H    4.364069    0.902296    1.075053
 H    5.942884    1.641211    1.299900
 H    4.964068    3.349196    2.606578
 H    2.586350    0.853765    1.968622
 H    1.814774    3.631087    3.848155
 H    3.361280    4.314983    3.741918
 H    3.076945   -0.816201   -2.815840
 H    3.325272   -3.013518   -2.669780
 H    5.115374   -2.852453   -1.048031
 H    3.989175   -2.538000    0.270863
 H    3.016542   -4.797632    0.010774
 H    4.962841   -6.021375    0.922218
 H    6.055767   -4.788061    0.298923
 H    4.909111   -4.387206    1.579874
 H    3.392302   -5.280870   -2.344331
 H    4.268124   -6.471625   -1.396147
 H    5.146469   -5.141686   -2.145812
 H    1.800571   -2.058873    0.412419
 H   -0.615916   -3.534001   -0.408446
 H    0.282885   -3.848948    1.938100
 H   -2.510707   -2.624574    1.773124
 H   -1.878736   -3.561756    3.112112
 H    0.952804   -1.385088    2.246916
 H   -0.770378   -1.036243    2.461546
 H    0.067347   -2.094131    3.592793
 H   -1.582022   -5.540829    1.622898
 H   -2.320369   -4.656218    0.290486
 H   -3.258167   -5.006648    1.733316
 H   -2.614741   -2.256837   -0.452234
 H   -2.227398    0.408214   -1.543513
 H   -4.746934    0.307332   -1.673224
 H   -3.942151   -1.035297   -2.499489
 H   -5.750257   -0.100848    0.621418
 H   -4.249532   -3.295110   -1.783646
 H   -6.862308   -1.730494    2.086040
 H   -5.361636   -4.921565   -0.319362
 H   -6.665095   -4.145641    1.628381
 H   -3.895671    2.274268    1.105668
 H   -3.758606    2.238359   -0.618408
