109 
1okv_ligand_dft.xyz
 N    0.045698    1.731616    1.180812
 C    0.200043    2.729924    0.075987
 C    1.156687    2.177265   -0.992005
 O    0.848668    2.199951   -2.172796
 C    0.620915    4.094711    0.636780
 C    1.127452    5.092060   -0.413116
 C    0.203980    5.338009   -1.614699
 N   -1.140695    5.743469   -1.245859
 C   -2.272017    4.992663   -1.483332
 N   -3.421444    5.621658   -1.060455
 N   -2.364295    3.817239   -2.012027
 N    2.344055    1.732817   -0.514408
 C    3.227323    0.887916   -1.288251
 C    2.982744   -0.571082   -0.870539
 O    2.905279   -0.884292    0.322627
 C    4.720434    1.301687   -1.153903
 C    5.132597    1.963184    0.168938
 C    5.211125    1.042375    1.407718
 N    4.819112    1.723447    2.639822
 C    3.507865    2.013573    2.896371
 N    2.486633    1.332676    2.460579
 N    3.267930    3.141798    3.640599
 N    2.895678   -1.446359   -1.886064
 C    2.616047   -2.887766   -1.781839
 C    1.138765   -3.095258   -1.402975
 O    0.318964   -3.443092   -2.236198
 C    3.631138   -3.632549   -0.908102
 C    3.343954   -5.136055   -0.769520
 C    4.447250   -5.787765    0.067312
 C    3.199258   -5.835447   -2.124920
 N    0.827039   -2.850243   -0.098739
 C   -0.561019   -2.667515    0.258184
 C   -1.043410   -1.316921   -0.276054
 O   -0.252547   -0.378945   -0.456137
 C   -0.749096   -2.781309    1.792264
 C   -2.218335   -2.936327    2.220696
 C   -0.108135   -1.613038    2.551950
 C   -2.945352   -4.142115    1.625430
 N   -2.352342   -1.191961   -0.520535
 C   -2.964045    0.072838   -0.848900
 C   -2.970652    1.010351    0.372953
 O   -2.592168    0.659397    1.488432
 C   -4.380739   -0.168525   -1.416892
 C   -5.229249   -1.025566   -0.504955
 C   -5.798977   -0.491606    0.655384
 C   -5.405951   -2.385258   -0.775071
 C   -6.519800   -1.300157    1.526222
 C   -6.131288   -3.196755    0.095196
 C   -6.685650   -2.655992    1.250230
 N   -3.421660    2.257798    0.113761
 H   -0.824053    1.865273    1.707637
 H    0.878636    1.693978    1.836870
 H   -0.054610    0.790122    0.739104
 H   -0.769355    2.802842   -0.418837
 H   -0.240008    4.522444    1.164137
 H    1.415356    3.948879    1.380290
 H    2.092836    4.748699   -0.805445
 H    1.321167    6.041075    0.099532
 H    0.159916    4.437279   -2.228994
 H    0.649110    6.113400   -2.246550
 H   -1.300068    6.739021   -1.189708
 H   -3.394318    6.207959   -0.240915
 H   -4.279421    5.116993   -1.221537
 H   -1.500208    3.493291   -2.438859
 H    2.463929    1.695440    0.495027
 H    2.926558    1.017828   -2.330576
 H    5.347878    0.426706   -1.361911
 H    4.925538    2.022519   -1.951544
 H    6.105353    2.442579    0.014498
 H    4.431256    2.779697    0.377113
 H    4.584399    0.159273    1.281357
 H    6.229125    0.672620    1.552256
 H    5.500345    2.374684    3.003449
 H    2.764767    0.453049    2.026236
 H    2.403612    3.123744    4.161692
 H    4.034920    3.582023    4.126502
 H    2.818526   -1.056293   -2.813894
 H    2.687441   -3.262150   -2.804122
 H    4.620106   -3.490865   -1.364822
 H    3.674053   -3.177829    0.085636
 H    2.396051   -5.246673   -0.225766
 H    4.232277   -6.846754    0.241691
 H    5.414158   -5.724171   -0.446854
 H    4.552279   -5.299705    1.042792
 H    2.317024   -5.490456   -2.673965
 H    3.093421   -6.916177   -1.987551
 H    4.086007   -5.665274   -2.749028
 H    1.513482   -2.310323    0.419162
 H   -1.122234   -3.462976   -0.238102
 H   -0.220600   -3.706071    2.058698
 H   -2.766103   -2.009826    2.007032
 H   -2.222934   -3.033417    3.313041
 H    0.912741   -1.392213    2.221509
 H   -0.718462   -0.710997    2.435805
 H   -0.062505   -1.841046    3.621077
 H   -2.391292   -5.069417    1.809483
 H   -3.096001   -4.061110    0.542356
 H   -3.938897   -4.245277    2.070520
 H   -2.972509   -1.955573   -0.280545
 H   -2.352946    0.560070   -1.618467
 H   -4.852196    0.802723   -1.590565
 H   -4.268497   -0.653770   -2.391269
 H   -5.683839    0.567227    0.871505
 H   -4.983675   -2.811393   -1.682910
 H   -6.959356   -0.870383    2.421017
 H   -6.264450   -4.249721   -0.132980
 H   -7.254963   -3.284533    1.927817
 H   -3.387255    2.902697    0.892004
 H   -3.300211    2.681104   -0.820248
