108 
1okw_ligand_xtb.xyz
 C    0.905885   -3.195013   -1.131433
 O   -0.239603   -2.799912   -0.942931
 C    1.268590   -4.076912   -2.306063
 N    1.939816   -2.875932   -0.347913
 C    1.842214   -1.973064    0.777404
 C    2.962320   -0.934690    0.705403
 O    3.663723   -0.642394    1.669348
 C    1.890507   -2.730771    2.109987
 C    0.617644   -3.521031    2.398630
 C   -0.559409   -2.600109    2.735761
 N   -1.767128   -3.309335    3.093518
 C   -2.643216   -3.829951    2.183627
 N   -2.580640   -3.766680    0.910255
 N   -3.712512   -4.490334    2.752599
 N    3.116754   -0.370859   -0.497758
 C    4.070356    0.695340   -0.745917
 C    3.369366    2.054472   -0.482434
 O    3.265121    2.910358   -1.335760
 C    4.616264    0.644476   -2.173826
 C    6.076671    0.211868   -2.290621
 C    6.307221   -1.284371   -2.059700
 N    6.108950   -1.671286   -0.687050
 C    5.331238   -2.694070   -0.234567
 N    4.570430   -3.464506   -0.919623
 N    5.441214   -2.913608    1.121257
 N    2.892633    2.138885    0.773506
 C    2.013616    3.174050    1.282960
 C    0.566320    3.066465    0.772976
 O   -0.329583    3.670496    1.328773
 C    2.524176    4.591580    0.987658
 C    3.894771    4.889172    1.604039
 C    3.832863    4.952850    3.128350
 C    4.419750    6.210143    1.045550
 N    0.374954    2.317697   -0.325906
 C   -0.947667    2.000704   -0.799441
 C   -1.485974    0.791394   -0.013000
 O   -0.778693    0.132045    0.723006
 C   -0.883413    1.639090   -2.295845
 C   -0.257721    0.253049   -2.386580
 O    0.938203    0.082414   -2.188455
 N   -1.097341   -0.746045   -2.665206
 N   -2.787823    0.534455   -0.227361
 C   -3.400073   -0.716824    0.146446
 C   -3.866288   -1.425322   -1.132915
 O   -3.972905   -0.803376   -2.182335
 C   -4.588997   -0.504559    1.104829
 C   -5.689711    0.246093    0.412687
 C   -5.652703    1.633670    0.353648
 C   -6.720208   -0.431676   -0.226179
 C   -6.634560    2.319669   -0.340419
 C   -7.697473    0.264512   -0.914457
Cl   -6.571209    4.047852   -0.410225
 C   -7.662416    1.646384   -0.979387
 N   -4.157834   -2.716400   -0.977015
 H    1.530764   -3.437773   -3.148244
 H    2.115471   -4.713791   -2.070377
 H    0.410667   -4.681375   -2.589182
 H    2.883938   -3.245131   -0.558279
 H    0.894519   -1.425623    0.688754
 H    2.738275   -3.418694    2.081907
 H    2.071271   -2.008499    2.907357
 H    0.797148   -4.191461    3.243711
 H    0.363564   -4.137674    1.534364
 H   -0.292587   -1.961158    3.581899
 H   -0.782132   -1.947079    1.889893
 H   -1.794357   -3.703585    4.020794
 H   -1.714819   -3.401084    0.528329
 H   -4.023323   -4.174988    3.656795
 H   -4.448613   -4.714061    2.103130
 H    2.396788   -0.499374   -1.203942
 H    4.871446    0.587158   -0.006225
 H    4.515485    1.651250   -2.587849
 H    3.983846   -0.013377   -2.771605
 H    6.688092    0.785478   -1.590749
 H    6.425134    0.444444   -3.298640
 H    7.329368   -1.541751   -2.372168
 H    5.614382   -1.851517   -2.685277
 H    6.718045   -1.239049   -0.010625
 H    4.634525   -3.338092   -1.923282
 H    4.799070   -3.622640    1.443327
 H    5.422372   -2.085485    1.701286
 H    3.077408    1.362077    1.393111
 H    1.953053    3.038591    2.366815
 H    1.783538    5.294357    1.372642
 H    2.586706    4.711844   -0.093849
 H    4.587083    4.092008    1.311115
 H    3.100807    5.692484    3.445110
 H    3.558987    3.991800    3.555995
 H    4.802470    5.234917    3.533133
 H    3.743885    7.023141    1.301488
 H    4.502757    6.158537   -0.037188
 H    5.401401    6.437165    1.455686
 H    1.113403    1.748698   -0.714349
 H   -1.588083    2.871717   -0.620374
 H   -1.876791    1.644525   -2.741797
 H   -0.248826    2.366725   -2.803497
 H   -2.095896   -0.594157   -2.730163
 H   -0.799070   -1.689067   -2.434682
 H   -3.298338    1.056641   -0.926284
 H   -2.635578   -1.319763    0.641180
 H   -4.942448   -1.483179    1.430047
 H   -4.232414    0.053722    1.971655
 H   -4.863059    2.178202    0.848989
 H   -6.752695   -1.510275   -0.188138
 H   -8.493505   -0.270941   -1.409197
 H   -8.418734    2.195554   -1.517109
 H   -3.691211   -3.246172   -0.205344
 H   -4.392737   -3.226804   -1.815578
