134 
1okx_ligand_dft.xyz
 C  -12.054976   -0.334813   -0.112980
 C  -11.047303    0.699827    0.382920
 C   -9.609074    0.291721    0.079746
 C   -8.593251    1.345428    0.500058
 O   -8.898778    2.490971    0.799845
 N   -7.301109    0.920546    0.497899
 C   -6.203161    1.820508    0.751817
 C   -4.961421    1.237513    0.079553
 O   -4.926102    0.064825   -0.298453
 C   -5.959675    2.026590    2.254822
 N   -3.923273    2.079074   -0.033735
 C   -2.594081    1.669598   -0.424103
 C   -1.618383    2.428192    0.490935
 O   -2.006296    3.305749    1.254713
 C   -2.279565    1.969376   -1.899713
 O   -2.194622    3.382538   -1.999788
 C   -3.324872    1.402565   -2.848324
 N   -0.328915    2.064588    0.357905
 C    0.736752    2.709305    1.067501
 C    1.983980    2.619989    0.177736
 O    2.044459    1.847930   -0.772095
 C    0.964616    2.118445    2.508082
 O    0.340815    0.825469    2.571779
 C    0.316941    2.962731    3.588486
 N    2.995950    3.463053    0.489267
 C    4.099139    3.704499   -0.443534
 C    5.254527    2.702085   -0.233795
 O    6.383548    3.061760    0.070876
 C    4.565183    5.153674   -0.323493
 C    5.510640    5.640942   -1.433127
 C    5.918013    7.088452   -1.146901
 C    4.885413    5.525365   -2.826401
 N    4.907620    1.409439   -0.437456
 C    5.892205    0.336191   -0.408213
 C    5.190179   -0.932257   -0.897163
 O    4.821753   -0.999728   -2.072483
 C    6.535673    0.148219    0.963158
 C    5.500159   -0.449856    1.895655
 C    5.132460   -1.858530    1.453336
 O    3.950871   -2.304239    2.039681
 N    5.027304   -1.960401   -0.023600
 C    4.612309   -3.257796   -0.582732
 C    5.264293   -4.453469    0.134072
 C    5.018614   -5.750388   -0.629379
 O    6.651472   -4.223468    0.317949
 C    3.075378   -3.378645   -0.620156
 O    2.447891   -4.126919    0.130001
 N    2.501441   -2.581458   -1.546098
 C    1.068668   -2.390538   -1.733805
 C    0.284455   -3.691481   -2.026042
 C   -1.182619   -3.361917   -2.154596
 C   -2.019229   -3.448944   -1.043306
 C   -3.313233   -2.948638   -1.089544
Cl   -4.332776   -3.090344    0.323393
 C   -3.809340   -2.331735   -2.244489
 O   -5.037345   -1.776692   -2.325085
 C   -2.990389   -2.312264   -3.375913
 C   -1.698634   -2.813913   -3.330001
 C    0.433256   -1.596514   -0.585478
 O   -0.140739   -0.533149   -0.804543
 N    0.519373   -2.140303    0.648422
 C    0.054988   -1.389823    1.788179
 C    0.974772   -0.188703    1.993243
 O    2.140013   -0.143919    1.650063
 C   -0.079733   -2.252572    3.060362
 C    1.256809   -2.792552    3.575292
 C   -1.084042   -3.383332    2.824407
 H  -11.972195   -0.479717   -1.196546
 H  -13.081275   -0.022494    0.104723
 H  -11.894068   -1.308746    0.364233
 H  -11.160229    0.849252    1.462495
 H  -11.240559    1.673261   -0.078028
 H   -9.367382   -0.662093    0.567311
 H   -9.486300    0.120584   -0.999121
 H   -7.050556   -0.011693    0.197534
 H   -6.440209    2.789735    0.298063
 H   -6.868272    2.437457    2.700659
 H   -5.727018    1.070307    2.733518
 H   -5.132609    2.720317    2.437971
 H   -3.963696    2.994093    0.399620
 H   -2.493114    0.589929   -0.271283
 H   -1.305618    1.506487   -2.115032
 H   -2.019214    3.604154   -2.921385
 H   -4.288511    1.892759   -2.682588
 H   -3.023386    1.577202   -3.888007
 H   -3.451431    0.327385   -2.707217
 H   -0.078665    1.271547   -0.232065
 H    0.468200    3.764372    1.192258
 H    2.034892    1.993064    2.695286
 H    0.432051    2.483535    4.564437
 H   -0.742745    3.112161    3.369440
 H    0.801800    3.943868    3.628478
 H    2.872796    4.126112    1.241187
 H    3.685811    3.519285   -1.441144
 H    3.669315    5.791595   -0.325004
 H    5.064755    5.280148    0.644876
 H    6.410599    5.018837   -1.397672
 H    6.631100    7.448858   -1.895818
 H    5.045508    7.754283   -1.169011
 H    6.389578    7.181884   -0.162531
 H    4.697276    4.485733   -3.114736
 H    5.553324    5.952680   -3.581772
 H    3.932956    6.068760   -2.876949
 H    3.966160    1.219203   -0.771086
 H    6.662920    0.550351   -1.158687
 H    6.912251    1.107366    1.319439
 H    7.393161   -0.528512    0.859392
 H    4.600546    0.176843    1.895215
 H    5.856122   -0.511783    2.927487
 H    5.909490   -2.561745    1.757112
 H    3.258874   -1.645108    1.844087
 H    4.963192   -3.249311   -1.621083
 H    4.840816   -4.539476    1.136245
 H    3.952473   -5.980709   -0.683988
 H    5.528848   -6.570991   -0.118298
 H    5.415449   -5.682900   -1.651468
 H    7.068410   -4.212649   -0.553322
 H    3.133294   -1.943378   -2.029927
 H    0.964142   -1.730324   -2.596901
 H    0.458513   -4.411905   -1.224149
 H    0.682734   -4.123574   -2.950319
 H   -1.656169   -3.886801   -0.119182
 H   -5.198434   -1.255781   -1.514363
 H   -3.388007   -1.858042   -4.277507
 H   -1.069282   -2.748303   -4.214368
 H    1.088174   -2.978043    0.764031
 H   -0.930468   -0.979167    1.547010
 H   -0.494861   -1.578478    3.820279
 H    1.090472   -3.375437    4.486687
 H    1.962290   -1.992710    3.820381
 H    1.749356   -3.450293    2.850668
 H   -1.297385   -3.899769    3.765394
 H   -0.683093   -4.125857    2.125246
 H   -2.028601   -3.007778    2.417185
