60 
1oky_ligand_dft.xyz
 C   -2.574648    3.448933    0.000555
 C   -3.956998    3.414180    0.022782
 C   -4.630432    2.197675   -0.143800
 C   -3.948535    1.007948   -0.348564
 C   -2.552655    1.044178   -0.406600
 N   -1.609858    0.011662   -0.591843
 C   -0.338486    0.582537   -0.487301
 C    0.927787   -0.014586   -0.491448
 N    1.274710   -1.346479   -0.632138
 C    2.656355   -1.467597   -0.482957
 C    3.447268   -2.613424   -0.549479
 C    4.813679   -2.451495   -0.352752
 C    5.372312   -1.192768   -0.092012
 C    4.578447   -0.056737   -0.025246
 C    3.202006   -0.194638   -0.222664
 C    2.096876    0.740624   -0.222418
 C    1.952793    2.107398   -0.004987
 C    2.938014    3.195802    0.312361
 N    2.208431    4.437272    0.456220
 C    0.972908    4.147967    0.271045
 C    0.707034    2.713073   -0.019425
 C   -0.454953    1.970413   -0.238204
 C   -1.868292    2.261335   -0.211016
 C   -1.867751   -1.372469   -1.028592
 C   -2.234115   -2.274632    0.189558
 C   -1.023088   -2.707596    1.021202
 C    0.028293   -3.324246    0.116208
 C    0.386828   -2.407001   -1.055460
 O   -0.733341   -1.877869   -1.711353
 O    4.127984    3.097574    0.447149
 N   -0.556626   -1.516758    1.825767
 C    0.515851   -1.782280    2.824179
 O   -3.124248   -1.595658    1.035979
 C   -4.358971   -2.255993    1.288048
 C   -2.967747   -1.441981   -2.086374
 H   -2.048792    4.386316    0.146009
 H   -4.520505    4.327209    0.180803
 H   -5.714891    2.178154   -0.103774
 H   -4.506691    0.087373   -0.433758
 H    3.031252   -3.594219   -0.760706
 H    5.460805   -3.321250   -0.405019
 H    6.443229   -1.105724    0.055982
 H    5.000878    0.922702    0.169949
 H    0.208537    4.918475    0.325371
 H   -2.681345   -3.192969   -0.211649
 H   -1.353198   -3.430039    1.774217
 H   -0.403117   -4.251094   -0.276425
 H    0.938011   -3.602979    0.655922
 H    0.905770   -2.991362   -1.820956
 H   -1.410811   -1.152861    2.269544
 H   -0.234249   -0.756803    1.208453
 H    0.650510   -0.886724    3.430687
 H    1.441476   -2.002864    2.291838
 H    0.221956   -2.623079    3.453349
 H   -4.910521   -2.418592    0.354944
 H   -4.934991   -1.596712    1.937185
 H   -4.202722   -3.219283    1.789125
 H   -3.963908   -1.316102   -1.666003
 H   -2.802955   -0.673776   -2.844146
 H   -2.912180   -2.423780   -2.561006
