104 
1ol2_ligand_dft.xyz
 N    2.232075   -1.535132   -0.157294
 C    2.614189   -1.625089    1.280826
 C    3.007024   -0.212626    1.751303
 O    2.286010    0.425845    2.508595
 C    3.720463   -2.674985    1.509354
 C    3.226502   -4.023198    2.047322
 C    2.304114   -4.820203    1.120112
 N    2.918377   -5.072925   -0.174155
 C    2.465677   -4.530535   -1.350506
 N    1.321512   -4.008201   -1.611344
 N    3.448956   -4.506243   -2.360653
 N    4.191803    0.232093    1.264360
 C    4.601217    1.629624    1.362959
 C    3.744997    2.406460    0.341665
 O    4.062073    2.481539   -0.837610
 C    6.128235    1.817641    1.193052
 C    6.911292    0.790161    0.357406
 C    6.806363    0.918497   -1.181329
 N    6.755455   -0.375464   -1.860504
 C    5.638510   -1.159644   -1.747169
 N    5.820917   -2.515836   -1.804643
 N    4.438526   -0.702163   -1.537232
 N    2.619066    2.936402    0.896281
 C    1.378977    3.239685    0.187530
 C    0.669929    1.906813   -0.076218
 O    1.282804    0.952183   -0.556315
 C    1.504487    4.036205   -1.120447
 C    1.951559    5.504495   -0.988491
 C    3.424147    5.674915   -0.603405
 C    1.044963    6.310905   -0.053859
 N   -0.628523    1.832263    0.253627
 C   -1.389948    0.614576    0.099787
 C   -2.860044    1.036065    0.041629
 O   -3.219060    2.107552    0.506291
 C   -1.162829   -0.340480    1.312949
 C   -1.294104   -1.814048    0.953805
 O   -0.313491   -2.476301    0.611334
 N   -2.540301   -2.327671    0.986130
 N   -3.720497    0.141332   -0.502913
 C   -5.137668    0.281914   -0.242851
 C   -5.414784    0.037821    1.252944
 O   -4.710252   -0.713911    1.924463
 C   -5.930232   -0.704339   -1.122384
 C   -7.422937   -0.508037   -1.010095
 C   -8.214582   -1.386287   -0.268437
 C   -8.030974    0.600236   -1.607630
 C   -9.580461   -1.171483   -0.118764
 C   -9.393932    0.835610   -1.466415
 C  -10.148786   -0.058571   -0.720066
 F  -11.459816    0.159837   -0.577366
 N   -6.478124    0.676589    1.764779
 H    3.074898   -1.331556   -0.782456
 H    1.575992   -0.749906   -0.305248
 H    1.769162   -2.384804   -0.507590
 H    1.705098   -1.882498    1.825893
 H    4.287775   -2.815032    0.579598
 H    4.434948   -2.273151    2.234256
 H    2.702213   -3.867557    2.997688
 H    4.106442   -4.635005    2.285460
 H    2.041719   -5.769211    1.599748
 H    1.366635   -4.278346    0.967398
 H    3.905384   -5.287669   -0.142652
 H    0.659712   -4.072824   -0.839900
 H    3.001107   -4.278702   -3.242737
 H    3.949630   -5.385477   -2.448781
 H    4.544783   -0.264962    0.448291
 H    4.335745    1.960025    2.370531
 H    6.300507    2.824400    0.797303
 H    6.559950    1.803069    2.198474
 H    6.617539   -0.222675    0.658704
 H    7.964112    0.876042    0.647322
 H    7.670163    1.454568   -1.581324
 H    5.931136    1.507867   -1.458053
 H    7.637136   -0.866979   -1.903757
 H    5.000366   -3.064303   -2.066924
 H    6.697207   -2.866141   -2.161832
 H    4.373469    0.311592   -1.610851
 H    2.450310    2.610219    1.841224
 H    0.771390    3.821751    0.889142
 H    2.166440    3.495421   -1.798897
 H    0.501299    4.030387   -1.568053
 H    1.831001    5.920860   -1.997670
 H    3.719742    6.724720   -0.703340
 H    4.074260    5.070181   -1.241676
 H    3.598561    5.378535    0.436413
 H    1.204818    6.038513    0.996885
 H    1.258290    7.380868   -0.140875
 H   -0.016179    6.162793   -0.288104
 H   -1.147281    2.623613    0.619167
 H   -1.077812    0.120938   -0.826418
 H   -1.853336   -0.069964    2.118580
 H   -0.143518   -0.186172    1.676174
 H   -3.327471   -1.811733    1.392057
 H   -2.635608   -3.321267    0.827907
 H   -3.375647   -0.790912   -0.693771
 H   -5.420647    1.307760   -0.495591
 H   -5.661142   -1.729658   -0.839410
 H   -5.601762   -0.554898   -2.156928
 H   -7.759259   -2.251912    0.205376
 H   -7.433384    1.288128   -2.201463
 H  -10.203836   -1.849563    0.453188
 H   -9.875467    1.688608   -1.931356
 H   -6.746874    0.484960    2.718857
 H   -7.098918    1.225374    1.189718
