20 
1onp_ligand_dft.xyz
 O   -2.596701   -1.061204   -0.790022
 N   -2.289875   -0.241462    0.011704
 C   -3.370904    0.877156    0.323252
 O   -4.404944    0.772135   -0.212859
 C   -1.002242   -0.159416    0.626247
 C   -0.113286   -1.379324    0.419633
 C    1.327742   -1.079541    0.864398
 P    2.047551    0.275054   -0.098356
 O    3.276120    0.691387    0.824682
 O    2.659844   -0.414728   -1.409868
 O    1.054245    1.348179   -0.425797
 H   -2.983745    1.627635    1.022797
 H   -1.158602    0.141212    1.670720
 H   -0.490750    0.731369    0.131209
 H   -0.125982   -1.663620   -0.637428
 H   -0.506904   -2.229033    0.986683
 H    1.946852   -1.972156    0.740709
 H    1.370863   -0.801179    1.922621
 H    3.833652    1.407826    0.485781
 H    2.474106    0.082968   -2.219943
