75 
1ony_ligand_dft.xyz
 O    1.645173   -2.344288    1.026671
 C    1.973007   -1.372782    1.669191
 O    1.247123   -0.803568    2.615445
 C    3.360277   -0.745160    1.471593
 O    4.315728   -1.212392    2.051858
 N    3.413547    0.254838    0.520970
 C    2.210927    0.983262    0.214308
 C    1.622857    1.740810    1.231696
 C    0.393413    2.346730    1.037808
 C   -0.238335    2.242736   -0.202252
 C    0.417930    1.591984   -1.237238
 C    1.625665    0.916012   -1.052305
 C    2.144509    0.060185   -2.181730
 C    1.671580   -1.399048   -2.082439
 C    0.171292   -1.575791   -1.887414
 O   -0.667087   -0.794380   -2.346155
 N   -0.180258   -2.689775   -1.209448
 C   -1.671999    2.661830   -0.384608
 C   -2.615707    1.687803    0.348871
 N   -2.515043    0.303525   -0.138381
 S   -2.551167   -0.904682    1.001589
 O   -1.495765   -0.747046    2.006071
 O   -2.648388   -2.165351    0.277843
 C   -4.096642   -0.609713    1.837214
 C   -4.062731    2.197413    0.242839
 O   -4.507417    2.981948    1.067326
 N   -4.739390    1.742677   -0.837981
 C   -6.163706    1.966993   -1.012627
 C   -7.007061    0.870963   -0.355110
 C   -6.743069   -0.524171   -0.924078
 C   -7.473822   -1.637545   -0.172422
 C   -7.068733   -3.030357   -0.650925
 C    4.667766    0.783415    0.089808
 C    4.821427    2.170441    0.057750
 C    6.020785    2.747200   -0.338223
 C    7.101747    1.944497   -0.685136
 C    6.957208    0.565627   -0.652071
 C    5.745618   -0.032463   -0.297950
 C    5.732936   -1.523119   -0.381406
 O    6.715306   -2.212542   -0.251226
 O    4.534697   -2.041526   -0.710245
 H    0.320537   -1.120482    2.541896
 H    2.116475    1.795242    2.196429
 H   -0.087640    2.870048    1.859977
 H   -0.066586    1.507835   -2.203418
 H    1.800844    0.491089   -3.126459
 H    3.238587    0.053652   -2.202084
 H    2.201812   -1.894331   -1.266994
 H    1.947124   -1.923213   -3.006001
 H   -1.152686   -2.758008   -0.928136
 H    0.489433   -3.093575   -0.569055
 H   -1.934774    2.694468   -1.447739
 H   -1.866425    3.654767    0.034280
 H   -2.355190    1.731117    1.411881
 H   -1.843428    0.069879   -0.885147
 H   -4.103423    0.381054    2.294911
 H   -4.170045   -1.378321    2.608850
 H   -4.907767   -0.710768    1.116909
 H   -4.304700    0.981463   -1.341152
 H   -6.391405    2.939322   -0.570936
 H   -6.371178    2.022896   -2.086797
 H   -6.800954    0.883201    0.723626
 H   -8.068804    1.122219   -0.472094
 H   -5.664908   -0.741101   -0.900788
 H   -7.027178   -0.550355   -1.985454
 H   -7.264163   -1.544902    0.902665
 H   -8.557158   -1.500413   -0.281826
 H   -7.277406   -3.156219   -1.719303
 H   -7.610304   -3.812385   -0.109393
 H   -5.995590   -3.196947   -0.500660
 H    3.991378    2.801609    0.354764
 H    6.111392    3.828895   -0.357610
 H    8.047803    2.387320   -0.978294
 H    7.783320   -0.086692   -0.913817
 H    4.641905   -3.005658   -0.684142
