67 
1ouk_ligand_dft.xyz
 C   -4.634153   -4.106699    0.570765
 C   -4.057706   -2.864665   -0.101427
 N   -2.599276   -3.013783   -0.209000
 C   -1.861795   -2.160006   -0.965423
 N   -2.471537   -1.549191   -1.997528
 C   -1.727183   -0.719872   -2.713432
 C   -0.389204   -0.459640   -2.431123
 C    0.135671   -1.132726   -1.333528
 N   -0.572898   -1.997152   -0.604743
 C    1.503728   -0.837246   -0.863621
 C    2.075905    0.378489   -0.571030
 N    3.374113    0.171100   -0.172824
 C    3.583169   -1.136469   -0.205794
 C    4.882514   -1.764485    0.226895
 C    6.102254   -0.968320   -0.307729
 C    6.562993    0.127306    0.669372
 N    5.392930    0.592554    1.474325
 C    4.889671   -0.462320    2.420307
 C    4.977775   -1.850796    1.766277
 N    2.469374   -1.792389   -0.602106
 C    2.310430   -3.228435   -0.802833
 C    1.459132    1.714113   -0.585243
 C    0.140184    1.879827   -0.161080
 C   -0.454796    3.135990   -0.199516
 C    0.263217    4.244483   -0.635449
 C    1.587864    4.087369   -1.035467
 C    2.182124    2.831560   -1.015240
 C   -1.901149    3.247956    0.211795
 F   -2.296331    4.522501    0.329981
 F   -2.701794    2.655910   -0.690016
 F   -2.117752    2.641416    1.390167
 C   -4.403484   -1.562324    0.608109
 C   -4.921512   -0.487137   -0.113860
 C   -5.167162    0.734392    0.507763
 C   -4.897028    0.894332    1.862329
 C   -4.383673   -0.174407    2.593758
 C   -4.137675   -1.392016    1.969437
 H   -5.719828   -4.014587    0.654807
 H   -4.397691   -5.000804   -0.013092
 H   -4.234760   -4.243385    1.582503
 H   -4.435808   -2.810744   -1.124364
 H   -2.125826   -3.297168    0.639106
 H   -2.222298   -0.234204   -3.551350
 H    0.198330    0.240342   -3.011110
 H    4.938772   -2.777208   -0.178478
 H    6.940561   -1.652329   -0.463558
 H    5.858201   -0.525665   -1.275644
 H    6.972678    0.990593    0.143196
 H    7.316575   -0.236229    1.372631
 H    4.580316    0.776437    0.788071
 H    5.609555    1.450602    1.982854
 H    3.857991   -0.192129    2.652826
 H    5.483130   -0.413896    3.335442
 H    5.926381   -2.331515    2.026644
 H    4.180378   -2.477642    2.173847
 H    2.941136   -3.771405   -0.097962
 H    2.578580   -3.502803   -1.826153
 H    1.268100   -3.482090   -0.611184
 H   -0.426611    1.030414    0.206713
 H   -0.206467    5.221045   -0.660449
 H    2.152199    4.948897   -1.377304
 H    3.206675    2.706263   -1.353820
 H   -5.115741   -0.605860   -1.175844
 H   -5.561275    1.564341   -0.070303
 H   -5.080668    1.848129    2.346800
 H   -4.176674   -0.057703    3.653483
 H   -3.732616   -2.215615    2.553573
