67 
1ouk_ligand_xtb.xyz
 C   -4.844805   -4.049624    0.571122
 C   -4.285049   -2.857745   -0.197817
 N   -2.839105   -2.832466   -0.045985
 C   -2.083486   -1.922191   -0.660712
 N   -2.666041   -1.142942   -1.584327
 C   -1.911769   -0.257926   -2.187918
 C   -0.558354   -0.096669   -1.897483
 C   -0.039288   -0.953683   -0.931061
 N   -0.781946   -1.873381   -0.324638
 C    1.371720   -0.869079   -0.541860
 C    2.161056    0.254709   -0.391399
 N    3.421152   -0.195584   -0.113455
 C    3.418109   -1.524798   -0.064678
 C    4.648284   -2.317937    0.213804
 C    5.809495   -1.844034   -0.689982
 C    6.650676   -0.751021   -0.012091
 N    5.799602    0.038429    0.874771
 C    5.422151   -0.734147    2.064496
 C    5.070896   -2.182499    1.687696
 N    2.180756   -1.960700   -0.316758
 C    1.758996   -3.337539   -0.357938
 C    1.826240    1.670863   -0.430099
 C    0.573929    2.101707    0.000208
 C    0.257163    3.449273   -0.047108
 C    1.174296    4.384039   -0.507446
 C    2.426758    3.954336   -0.914888
 C    2.754510    2.611199   -0.877695
 C   -1.127767    3.856945    0.384248
 F   -1.264711    5.174144    0.541184
 F   -2.048920    3.470189   -0.517085
 F   -1.476400    3.282159    1.547135
 C   -4.907338   -1.562522    0.280479
 C   -5.956696   -0.991925   -0.425391
 C   -6.542585    0.181271    0.015318
 C   -6.079507    0.800447    1.163640
 C   -5.032057    0.237966    1.872175
 C   -4.452500   -0.939902    1.435240
 H   -5.920013   -4.103807    0.428021
 H   -4.399747   -4.977498    0.219069
 H   -4.649169   -3.939834    1.635888
 H   -4.496890   -2.969645   -1.267359
 H   -2.425604   -3.346530    0.716181
 H   -2.403133    0.354052   -2.931364
 H    0.049593    0.635889   -2.398188
 H    4.436962   -3.368986    0.006057
 H    6.454189   -2.691667   -0.917348
 H    5.405808   -1.477498   -1.634547
 H    7.079802   -0.093099   -0.768827
 H    7.479999   -1.206760    0.543805
 H    4.328658    0.278879    0.160549
 H    6.275782    0.888677    1.159593
 H    4.563374   -0.235907    2.523292
 H    6.230343   -0.752474    2.805630
 H    5.939905   -2.824324    1.831955
 H    4.281333   -2.547189    2.344444
 H    2.146708   -3.829884   -1.250841
 H    0.669027   -3.352432   -0.370257
 H    2.112765   -3.864186    0.527026
 H   -0.147514    1.394922    0.379084
 H    0.911723    5.429561   -0.541490
 H    3.147651    4.673428   -1.270288
 H    3.726103    2.286736   -1.219229
 H   -6.314091   -1.468332   -1.326279
 H   -7.359105    0.615688   -0.541368
 H   -6.532110    1.718735    1.505417
 H   -4.665641    0.716387    2.768360
 H   -3.635816   -1.371909    1.997484
