160 
1ov3_ligand_dft.xyz
 N    3.237542    2.165147   -1.659349
 C    4.115495    3.365275   -1.866668
 C    5.411839    3.080529   -1.089383
 O    6.442297    2.874283   -1.710865
 C    3.380600    4.672964   -1.598765
 N    5.337015    2.866422    0.255101
 C    6.311744    1.946615    0.823371
 C    6.125371    0.572757    0.154805
 O    5.139340    0.310861   -0.542559
 C    5.926700    1.882697    2.314539
 C    4.416178    2.114385    2.276682
 C    4.249955    3.176761    1.195299
 N    7.032821   -0.387711    0.422162
 C    6.875758   -1.710945   -0.190547
 C    5.501631   -2.328872    0.052878
 O    4.967348   -3.027575   -0.808533
 C    8.028155   -2.518920    0.426893
 C    9.111053   -1.460059    0.655190
 C    8.318601   -0.235146    1.119406
 N    4.970430   -2.112196    1.273013
 C    3.605675   -2.463525    1.628284
 C    2.620963   -1.560299    0.860347
 O    2.149418   -0.535967    1.367876
 C    3.448834   -2.271045    3.138092
 O    3.850664   -0.972648    3.518869
 N    2.367643   -1.970492   -0.385720
 C    1.480493   -1.322545   -1.320264
 C    0.023553   -1.729939   -1.054491
 O   -0.236091   -2.689395   -0.342050
 C    1.898543   -1.724542   -2.754082
 C    2.961562   -0.760433   -3.238103
 O    2.635965    0.348467   -3.678477
 N    4.240622   -1.144300   -3.099478
 N   -0.915539   -0.980775   -1.668246
 C   -2.304635   -1.410388   -1.627446
 C   -2.450342   -2.707320   -2.442250
 O   -1.607686   -3.045291   -3.261532
 C   -3.058380   -0.225300   -2.261540
 C   -2.022169    0.390468   -3.205275
 C   -0.723683    0.268462   -2.413596
 N   -3.563724   -3.452860   -2.212026
 C   -4.733559   -3.071502   -1.428239
 C   -4.671137   -3.082651    0.110310
 O   -5.584179   -2.475601    0.673965
 C   -5.833253   -4.013385   -1.960163
 C   -5.063380   -5.258463   -2.407104
 C   -3.767677   -4.684205   -2.982356
 N   -3.654844   -3.632526    0.810819
 C   -3.692391   -3.567678    2.286756
 C   -3.410240   -2.210663    2.950879
 O   -3.003529   -2.182914    4.104476
 C   -2.656491   -4.609813    2.738060
 C   -2.575945   -5.578579    1.561652
 C   -2.693680   -4.654937    0.351251
 N   -3.638900   -1.088342    2.225823
 C   -3.642721    0.213091    2.861653
 C   -4.209557    1.194525    1.834057
 O   -4.283996    0.907925    0.635261
 C   -2.260911    0.667065    3.412823
 C   -1.040921    0.178148    2.634343
 C   -1.018519    0.544894    1.156977
 N   -0.977338    1.971633    0.879928
 C    0.050671    2.605668    0.267815
 N    1.272167    2.151332    0.153424
 N   -0.271148    3.803897   -0.318546
 N   -4.632232    2.399130    2.270211
 C   -5.186843    3.334289    1.291555
 C   -4.130420    3.691705    0.245063
 O   -3.010274    4.043922    0.647692
 C   -5.563082    4.566256    2.136949
 C   -5.775694    3.988714    3.539808
 C   -4.682583    2.925824    3.635186
 N   -4.466904    3.688089   -1.050647
 C   -3.506814    4.139069   -2.081535
 C   -3.147498    5.615500   -1.951318
 C   -4.233323    3.825797   -3.397706
 C   -5.191341    2.685828   -3.054702
 C   -5.635271    3.004752   -1.626266
 H    3.801943    1.411217   -1.225176
 H    2.381410    2.307341   -0.987991
 H    2.903495    1.766509   -2.552733
 H    4.436906    3.348117   -2.908985
 H    2.502553    4.742622   -2.248937
 H    3.054635    4.772239   -0.561597
 H    4.040281    5.512714   -1.832646
 H    7.329697    2.306119    0.659968
 H    6.193403    0.935593    2.790082
 H    6.433806    2.688104    2.854771
 H    4.002762    2.422856    3.238749
 H    3.906137    1.201954    1.953424
 H    4.391926    4.187364    1.598068
 H    3.258456    3.110684    0.745274
 H    6.984997   -1.632189   -1.277288
 H    7.708391   -2.952010    1.381307
 H    8.345153   -3.333046   -0.226626
 H    9.859669   -1.767790    1.387604
 H    9.625091   -1.236616   -0.285024
 H    8.803936    0.704471    0.846731
 H    8.166815   -0.243462    2.205206
 H    5.384395   -1.404877    1.868823
 H    3.428226   -3.510944    1.364820
 H    4.099786   -2.975597    3.661657
 H    2.410591   -2.477329    3.425172
 H    3.185691   -0.386379    3.121828
 H    2.845686   -2.810344   -0.686177
 H    1.568079   -0.237604   -1.189830
 H    2.239699   -2.764729   -2.758749
 H    1.042688   -1.673212   -3.429326
 H    4.955714   -0.449449   -3.263932
 H    4.501178   -1.943663   -2.527836
 H   -2.609214   -1.584513   -0.590988
 H   -3.964801   -0.540507   -2.785309
 H   -3.347344    0.475621   -1.472050
 H   -1.951058   -0.194532   -4.127355
 H   -2.244369    1.428487   -3.467708
 H   -0.610908    1.105330   -1.714292
 H    0.159224    0.242614   -3.055919
 H   -5.013155   -2.034543   -1.630884
 H   -6.599982   -4.204236   -1.207493
 H   -6.316938   -3.542645   -2.822006
 H   -5.611404   -5.853217   -3.140979
 H   -4.854490   -5.906206   -1.548056
 H   -2.903100   -5.344500   -2.871307
 H   -3.861575   -4.445248   -4.047880
 H   -4.702700   -3.847425    2.611429
 H   -2.944923   -5.077510    3.679794
 H   -1.690926   -4.119903    2.895814
 H   -3.415794   -6.282639    1.581555
 H   -1.647794   -6.155107    1.547250
 H   -1.741577   -4.180408    0.103123
 H   -3.070230   -5.173449   -0.526806
 H   -4.230926   -1.164122    1.405778
 H   -4.331311    0.186035    3.717632
 H   -2.179640    0.294467    4.435794
 H   -2.243543    1.762201    3.463534
 H   -0.980938   -0.912689    2.704046
 H   -0.140359    0.575699    3.116996
 H   -0.144037    0.081464    0.704899
 H   -1.900093    0.130426    0.662005
 H   -1.849519    2.488846    0.929168
 H    1.427065    1.293219    0.679593
 H   -1.181920    4.192275   -0.088548
 H    0.486788    4.464216   -0.391675
 H   -6.073245    2.887469    0.836263
 H   -4.725371    5.270100    2.145204
 H   -6.443129    5.075866    1.739424
 H   -6.761282    3.518328    3.619122
 H   -5.691740    4.742685    4.325454
 H   -4.911333    2.138844    4.356858
 H   -3.720412    3.377380    3.904312
 H   -2.597612    3.530439   -1.984460
 H   -2.653857    5.831118   -1.002314
 H   -2.477591    5.901976   -2.768421
 H   -4.050619    6.231340   -2.017596
 H   -3.530907    3.572268   -4.195899
 H   -4.797398    4.708336   -3.722008
 H   -4.665772    1.727326   -3.069232
 H   -6.037372    2.616537   -3.742116
 H   -6.509711    3.666216   -1.616758
 H   -5.857342    2.098633   -1.060604
