160 
1ov3_ligand_xtb.xyz
 N   -3.190997    2.465687    1.537445
 C   -4.273612    3.448646    1.762763
 C   -5.461874    2.943247    0.946377
 O   -6.454550    2.513761    1.511558
 C   -3.815346    4.881943    1.502873
 N   -5.343827    2.827630   -0.392236
 C   -6.221914    1.855177   -1.025823
 C   -6.007941    0.522723   -0.300234
 O   -4.960589    0.273025    0.287466
 C   -5.734897    1.778901   -2.477303
 C   -4.265885    2.177559   -2.358946
 C   -4.302484    3.270616   -1.295276
 N   -6.982906   -0.386809   -0.395259
 C   -6.839310   -1.672195    0.278648
 C   -5.433703   -2.241252    0.125513
 O   -4.845271   -2.756810    1.061620
 C   -7.926388   -2.532720   -0.366158
 C   -9.036778   -1.515124   -0.621269
 C   -8.279101   -0.252056   -1.037269
 N   -4.957439   -2.210209   -1.129686
 C   -3.597642   -2.555663   -1.499385
 C   -2.623042   -1.593352   -0.793067
 O   -2.220430   -0.561661   -1.327871
 C   -3.491013   -2.425970   -3.027295
 O   -3.926746   -1.161984   -3.447697
 N   -2.308200   -1.986537    0.431567
 C   -1.436982   -1.297004    1.351754
 C    0.012815   -1.747433    1.108806
 O    0.262631   -2.723770    0.422477
 C   -1.876800   -1.607139    2.793723
 C   -2.801262   -0.479443    3.227497
 O   -2.354333    0.596196    3.594915
 N   -4.106071   -0.741687    3.108557
 N    0.966081   -0.982774    1.654189
 C    2.333451   -1.483475    1.652551
 C    2.338398   -2.797466    2.446663
 O    1.457647   -3.046403    3.247098
 C    3.136787   -0.380295    2.346024
 C    2.103144    0.241484    3.282345
 C    0.837837    0.237148    2.430608
 N    3.347460   -3.653596    2.200191
 C    4.576022   -3.394036    1.477346
 C    4.519351   -2.951126    0.010882
 O    5.334450   -2.097749   -0.341430
 C    5.394910   -4.703840    1.589731
 C    4.462400   -5.728343    2.243694
 C    3.447323   -4.874451    2.990452
 N    3.689441   -3.515380   -0.868386
 C    3.927684   -3.373183   -2.306377
 C    3.447232   -2.062658   -2.965850
 O    2.885712   -2.067942   -4.041247
 C    3.240952   -4.586821   -2.947620
 C    2.881190   -5.502764   -1.779808
 C    2.667672   -4.518669   -0.635379
 N    3.743173   -0.948109   -2.271648
 C    3.726560    0.379652   -2.856904
 C    4.154088    1.362078   -1.771559
 O    3.975004    1.143895   -0.577192
 C    2.370563    0.807247   -3.472834
 C    1.121779    0.211020   -2.825517
 C    1.035096    0.401116   -1.315286
 N    0.963898    1.792943   -0.919207
 C   -0.056344    2.402938   -0.325745
 N   -1.281121    1.910927   -0.296059
 N    0.199042    3.577609    0.270930
 N    4.732832    2.498681   -2.175413
 C    5.142498    3.473855   -1.170327
 C    4.051192    3.649224   -0.119151
 O    2.894657    3.879063   -0.486276
 C    5.334084    4.755195   -1.984211
 C    5.853619    4.221764   -3.316123
 C    5.029803    2.950105   -3.523473
 N    4.407154    3.664923    1.162012
 C    3.450435    4.056489    2.203560
 C    3.013269    5.508631    2.038395
 C    4.209455    3.831291    3.514423
 C    5.267639    2.792207    3.161011
 C    5.646925    3.164217    1.729249
 H   -3.636179    1.582136    1.278829
 H   -1.995951    2.283332    0.370856
 H   -2.709436    2.279023    2.416678
 H   -4.621947    3.404258    2.804555
 H   -3.020916    5.133984    2.202744
 H   -3.450424    5.030685    0.491925
 H   -4.647160    5.560014    1.673060
 H   -7.264966    2.166966   -0.936098
 H   -5.858145    0.789550   -2.913778
 H   -6.278676    2.500506   -3.087428
 H   -3.844500    2.518397   -3.301182
 H   -3.682233    1.337680   -1.984109
 H   -4.594777    4.232515   -1.736293
 H   -3.347102    3.374342   -0.790974
 H   -7.025284   -1.549870    1.353898
 H   -7.565593   -2.952127   -1.306696
 H   -8.239909   -3.346606    0.282253
 H   -9.736627   -1.842866   -1.385994
 H   -9.588806   -1.331624    0.300036
 H   -8.791128    0.651934   -0.701638
 H   -8.155405   -0.201092   -2.124830
 H   -5.432003   -1.646471   -1.824101
 H   -3.383459   -3.582420   -1.184694
 H   -4.143790   -3.158990   -3.507301
 H   -2.455502   -2.616870   -3.333800
 H   -3.311230   -0.521195   -3.056652
 H   -2.740061   -2.834464    0.777544
 H   -1.509934   -0.220308    1.158820
 H   -2.384630   -2.569630    2.830067
 H   -1.011340   -1.659328    3.454188
 H   -4.770726    0.000604    3.266235
 H   -4.433120   -1.568126    2.625565
 H    2.664360   -1.666088    0.628178
 H    3.998597   -0.773900    2.881405
 H    3.478424    0.336660    1.598120
 H    1.960869   -0.399164    4.152929
 H    2.371964    1.240027    3.618249
 H    0.840210    1.096252    1.748183
 H   -0.069643    0.270643    3.031143
 H    5.130793   -2.580191    1.965896
 H    5.744733   -5.038091    0.613868
 H    6.271056   -4.532623    2.213190
 H    5.002022   -6.390493    2.916845
 H    3.970169   -6.345260    1.491838
 H    2.459935   -5.329679    3.074713
 H    3.797635   -4.631384    4.000112
 H    5.015867   -3.381027   -2.461671
 H    3.885399   -5.072278   -3.676646
 H    2.344689   -4.246412   -3.467255
 H    3.712873   -6.171385   -1.549827
 H    1.997613   -6.103209   -1.979412
 H    1.683228   -4.044085   -0.696510
 H    2.769625   -4.969777    0.344564
 H    4.361861   -1.052890   -1.466117
 H    4.472121    0.412567   -3.664751
 H    2.365636    0.498726   -4.518130
 H    2.309665    1.896936   -3.436440
 H    1.092115   -0.857739   -3.030749
 H    0.247899    0.663513   -3.298248
 H    0.158200   -0.131426   -0.949452
 H    1.923343   -0.026586   -0.847163
 H    1.844175    2.300628   -0.908868
 H   -1.498372    1.021540   -0.740509
 H    1.122985    3.978546    0.140788
 H   -0.558189    4.149436    0.599551
 H    6.086698    3.154595   -0.720690
 H    4.367121    5.242477   -2.119922
 H    6.020138    5.449287   -1.505159
 H    6.912395    3.976212   -3.231946
 H    5.724597    4.930232   -4.130502
 H    5.583788    2.191181   -4.080116
 H    4.103133    3.170521   -4.062603
 H    2.574817    3.399161    2.133586
 H    2.520736    5.663209    1.082890
 H    2.324698    5.773559    2.835852
 H    3.876466    6.168033    2.089394
 H    3.550485    3.505266    4.315767
 H    4.688943    4.760764    3.822867
 H    4.839978    1.790664    3.179965
 H    6.123567    2.820294    3.830683
 H    6.414398    3.946344    1.718325
 H    6.000902    2.294434    1.175546
