53 
1owd_ligand_dft.xyz
 C   -5.878145    3.435950   -0.111958
 C   -5.176876    2.130218   -0.481367
 C   -5.283910    1.014957    0.583754
 C   -6.722198    0.590808    0.858600
 N   -7.210044   -0.247442   -0.296718
 C   -6.495934   -1.568052   -0.358426
 C   -5.004717   -1.362166   -0.297456
 C   -4.435424   -0.187083    0.199282
 C   -3.050423   -0.066039    0.288213
 C   -2.215491   -1.111945   -0.113719
 N   -0.825616   -1.052925   -0.034969
 C   -0.038483    0.043197    0.289389
 O   -0.510318    1.139363    0.536046
 C    1.431630   -0.217557    0.280275
 C    1.996258   -1.503064    0.501361
 C    3.353273   -1.677061    0.466078
 C    4.222164   -0.585371    0.203388
 C    5.629179   -0.742960    0.149034
 C    6.449996    0.328655   -0.115686
 C    5.881882    1.614188   -0.321003
 C    4.527989    1.798486   -0.262940
 C    3.660296    0.704470   -0.003811
 C    2.255923    0.860028    0.051286
 C    7.933297    0.153903   -0.219325
 N    8.464927   -0.784525    0.645269
 N    8.692511    0.747729   -1.058973
 C   -2.796613   -2.288006   -0.614495
 C   -4.169829   -2.405985   -0.704041
 H   -5.671428    4.201198   -0.864438
 H   -6.967929    3.335217   -0.051124
 H   -5.520958    3.814253    0.851616
 H   -5.539259    1.762835   -1.454875
 H   -4.111415    2.322309   -0.639474
 H   -4.905632    1.423742    1.528198
 H   -6.803214   -0.040444    1.746778
 H   -7.401182    1.438639    0.959979
 H   -7.045436    0.269330   -1.167103
 H   -8.219518   -0.399494   -0.230074
 H   -6.808893   -2.065058   -1.280286
 H   -6.873784   -2.149431    0.489485
 H   -2.604587    0.845488    0.663628
 H   -0.335083   -1.870377   -0.367280
 H    1.363816   -2.350544    0.753132
 H    3.784005   -2.657156    0.649849
 H    6.061465   -1.729091    0.294247
 H    6.541188    2.457477   -0.504477
 H    4.099942    2.786137   -0.408943
 H    1.814458    1.841150   -0.096050
 H    8.073518   -0.814786    1.576219
 H    9.476656   -0.809996    0.624164
 H    8.144749    1.312199   -1.706589
 H   -2.166384   -3.111059   -0.939398
 H   -4.598041   -3.324726   -1.096417
