51 
1owi_ligand_dft.xyz
 N    8.164757   -2.121648   -0.905924
 C    7.502163   -1.536737    0.019431
 N    8.117514   -1.258827    1.226484
 C    6.091192   -1.052613   -0.089177
 C    5.694684    0.119809    0.511967
 C    4.365651    0.594769    0.384866
 C    3.941597    1.815984    0.974141
 C    2.652825    2.251079    0.836061
 C    1.705748    1.477849    0.116408
 C    2.096228    0.302277   -0.480799
 C    3.429205   -0.166583   -0.365143
 C    3.859150   -1.374180   -0.974880
 C    5.151369   -1.803977   -0.842565
 C    0.314344    2.037272    0.000923
 O    0.117338    3.240593    0.025052
 N   -0.671501    1.090616   -0.113513
 C   -2.058555    1.276183   -0.275499
 C   -2.650440    2.532736   -0.449973
 C   -4.027165    2.594771   -0.614986
 C   -4.831959    1.458226   -0.612073
 C   -4.229772    0.209965   -0.438309
 O   -4.880173   -0.980525   -0.434656
 C   -6.305468   -1.006792   -0.505407
 C   -6.694590   -2.473445   -0.655959
 C   -6.530091   -3.057074    0.759286
 C   -6.748129   -1.863394    1.728573
 C   -6.936592   -0.617847    0.835277
 C   -2.847685    0.127559   -0.269663
 H    7.624667   -2.145123   -1.769681
 H    9.025254   -1.696903    1.315614
 H    7.541285   -1.330176    2.052983
 H    6.415215    0.708644    1.073240
 H    4.662376    2.405609    1.534107
 H    2.325792    3.191489    1.266093
 H    1.402144   -0.274409   -1.088541
 H    3.142860   -1.960550   -1.544363
 H    5.464939   -2.740107   -1.295493
 H   -0.383492    0.133845    0.026075
 H   -2.041888    3.424731   -0.445785
 H   -4.493993    3.566228   -0.748702
 H   -5.902989    1.557245   -0.738904
 H   -6.642817   -0.392940   -1.349159
 H   -6.087166   -2.978175   -1.411701
 H   -7.741840   -2.520075   -0.976727
 H   -5.520880   -3.460876    0.878480
 H   -7.230438   -3.876663    0.943230
 H   -5.877669   -1.736126    2.377875
 H   -7.613141   -2.015356    2.380366
 H   -8.001117   -0.414405    0.668593
 H   -6.493492    0.285330    1.263070
 H   -2.408595   -0.857781   -0.138171
