53 
1owj_ligand_dft.xyz
 N    8.608912    1.260747   -0.097529
 C    7.958611    0.041159   -0.165231
 N    8.644430   -1.036286   -0.238358
 C    6.465950    0.134181   -0.197170
 C    5.704346   -0.811504    0.448726
 C    4.289705   -0.753440    0.428295
 C    3.484261   -1.725040    1.081139
 C    2.120106   -1.647969    1.039132
 C    1.480836   -0.578221    0.360496
 C    2.237462    0.367211   -0.291025
 C    3.654004    0.305826   -0.274459
 C    4.458085    1.268951   -0.937369
 C    5.824385    1.192033   -0.894832
 C   -0.022202   -0.579860    0.348629
 O   -0.650394   -1.624078    0.412956
 N   -0.595106    0.664106    0.276291
 C   -1.961776    1.002009    0.207156
 C   -2.981446    0.050940    0.147593
 C   -4.314145    0.459656    0.069195
 C   -4.638094    1.823327    0.056186
 C   -3.613076    2.761351    0.113161
 C   -2.286679    2.361202    0.187219
 C   -6.094175    2.192726   -0.028119
 C   -6.913394    1.158832    0.738167
 N   -6.641988   -0.210611    0.319942
 C   -5.442066   -0.522914    0.012686
 C   -5.157211   -1.942612   -0.450217
 C   -4.741019   -1.938919   -1.930774
 C   -6.343553   -2.875686   -0.220401
 H    9.605776    1.166279    0.048718
 H    8.175718    1.972334    0.474111
 H    8.032561   -1.832375   -0.411552
 H    6.189966   -1.611311    1.002769
 H    3.971061   -2.539675    1.610353
 H    1.498256   -2.397822    1.515777
 H    1.767329    1.161143   -0.867546
 H    3.972475    2.071763   -1.486123
 H    6.434801    1.924958   -1.412900
 H    0.034568    1.446921    0.368569
 H   -2.714805   -0.995424    0.171766
 H   -3.852866    3.821439    0.103648
 H   -1.499030    3.110174    0.233400
 H   -6.415903    2.197103   -1.079562
 H   -6.269380    3.198881    0.367523
 H   -7.983982    1.344677    0.610520
 H   -6.701039    1.237031    1.815013
 H   -4.309923   -2.324183    0.135243
 H   -5.564212   -1.567973   -2.552277
 H   -3.865901   -1.307205   -2.110636
 H   -4.498426   -2.954977   -2.258554
 H   -6.639892   -2.889840    0.831776
 H   -7.212271   -2.550349   -0.799720
 H   -6.078967   -3.894078   -0.525492
