112 
1ox9_ligand_dft.xyz
 N    1.430390    1.557990   -1.342347
 C    1.825444    2.928680   -0.915129
 C    3.315184    3.066820   -1.260999
 O    3.707214    2.707929   -2.364424
 C    1.410550    3.177607    0.526442
 N    4.112967    3.614982   -0.319301
 C    5.566378    3.616226   -0.470421
 C    6.022796    2.205336   -0.066578
 O    6.206286    1.924625    1.118611
 C    6.198054    4.687712    0.402023
 N    6.151220    1.327978   -1.081623
 C    6.138805   -0.116854   -0.918463
 C    4.668755   -0.588731   -0.805824
 O    3.744293    0.213701   -0.713949
 C    7.065322   -0.615005    0.204876
 C    7.622527   -2.002162   -0.075306
 O    7.132536   -2.773358   -0.899224
 N    8.701100   -2.343366    0.658230
 N    4.479302   -1.918533   -0.908580
 C    3.187822   -2.446087   -1.309896
 C    2.079385   -2.295718   -0.270930
 O    0.906371   -2.379667   -0.625243
 C    3.318095   -3.925916   -1.693128
 C    2.152155   -4.353023   -2.563277
 O    1.767525   -3.742745   -3.529612
 O    1.623558   -5.515645   -2.159735
 N    2.435936   -2.132436    1.017494
 C    1.397144   -1.910643    2.001560
 C    0.451429   -0.820641    1.488510
 O    0.886372    0.217890    0.987174
 C    1.981881   -1.532852    3.374728
 C    2.535927   -0.113891    3.522936
 C    3.797378    0.164732    2.741574
 O    4.041817    1.460951    2.622814
 O    4.543385   -0.699039    2.311062
 N   -0.863788   -1.020935    1.667598
 C   -1.821167   -0.124156    1.068887
 C   -3.188778   -0.467944    1.656889
 O   -3.414571   -1.575366    2.119178
 C   -1.868755   -0.300111   -0.483275
 C   -2.162931    1.015958   -1.175022
 O   -1.263974    1.831213   -1.434745
 N   -3.449390    1.278117   -1.426482
 N   -4.124120    0.512524    1.574383
 C   -5.523532    0.170126    1.678420
 C   -5.935053   -0.721354    0.492973
 O   -5.322368   -0.726157   -0.575979
 C   -6.385972    1.452170    1.739290
 C   -6.134503    2.402546    0.592058
 C   -5.232136    3.462905    0.728906
 C   -6.756751    2.229474   -0.645942
 C   -4.948261    4.317680   -0.327913
 C   -6.487356    3.077132   -1.714495
 C   -5.580258    4.128762   -1.558196
 O   -5.266625    4.988915   -2.557565
 N   -7.037699   -1.458193    0.690525
 C   -7.595287   -2.319571   -0.333560
 C   -9.033999   -2.595400    0.065809
 O   -9.703732   -3.231794   -0.896774
 C   -6.805410   -3.625180   -0.495790
 O   -9.509288   -2.295569    1.136254
 H    1.862079    1.361692   -2.249880
 H    1.768449    0.850953   -0.670112
 H    0.380909    1.501016   -1.390593
 H    1.290289    3.613064   -1.581007
 H    1.951975    2.526648    1.218767
 H    0.343817    2.972280    0.637668
 H    1.580532    4.226801    0.785486
 H    3.758850    3.707070    0.622871
 H    5.775386    3.803784   -1.526072
 H    6.018399    4.479982    1.460604
 H    7.279667    4.710750    0.246560
 H    5.787824    5.668182    0.147856
 H    5.765517    1.652036   -1.962277
 H    6.515230   -0.530990   -1.860158
 H    7.892839    0.091126    0.313703
 H    6.532572   -0.627848    1.160534
 H    9.089588   -3.268078    0.546091
 H    9.115422   -1.722615    1.334853
 H    5.321457   -2.485359   -1.034385
 H    2.830764   -1.901240   -2.190798
 H    4.223363   -4.061242   -2.296582
 H    3.400664   -4.563665   -0.809911
 H    0.906740   -5.726998   -2.780315
 H    3.392770   -1.902088    1.265456
 H    0.828376   -2.840847    2.119906
 H    1.183764   -1.657637    4.113379
 H    2.759015   -2.262575    3.624130
 H    2.789684    0.055093    4.577183
 H    1.792957    0.642899    3.263004
 H    4.897827    1.580289    2.138903
 H   -1.236200   -1.913043    1.971676
 H   -1.531723    0.903262    1.310595
 H   -2.610595   -1.060337   -0.743434
 H   -0.891346   -0.656700   -0.814596
 H   -4.186904    0.601367   -1.215311
 H   -3.696310    2.169045   -1.836329
 H   -3.910374    1.321866    1.003310
 H   -5.665322   -0.397347    2.602786
 H   -7.439611    1.155022    1.768089
 H   -6.169599    1.949820    2.689836
 H   -4.749515    3.632627    1.688926
 H   -7.471744    1.422314   -0.781999
 H   -4.255671    5.144700   -0.214692
 H   -6.990646    2.926497   -2.666619
 H   -5.819395    4.813111   -3.328964
 H   -7.528411   -1.449340    1.576789
 H   -7.591731   -1.780925   -1.286916
 H  -10.599447   -3.405132   -0.562908
 H   -7.242759   -4.239056   -1.286598
 H   -5.774047   -3.383901   -0.760824
 H   -6.806508   -4.192056    0.439853
