21 
1oxr_ligand_xtb.xyz
 O    1.079605    2.780251   -0.536575
 C    0.338731    1.824060    0.043200
 O   -0.684799    2.084133    0.609096
 C    0.910892    0.441969   -0.028567
 C    2.240068    0.221029    0.323520
 C    2.765569   -1.057488    0.327325
 C    1.969500   -2.130931   -0.039403
 C    0.652274   -1.926877   -0.406008
 C    0.111137   -0.645292   -0.395304
 O   -1.160803   -0.452783   -0.872702
 C   -2.277898   -0.492191   -0.093127
 O   -3.341459   -0.399250   -0.625930
 C   -2.053081   -0.647684    1.383228
 H    1.860350    2.427738   -0.984674
 H    2.855974    1.056794    0.626337
 H    3.793775   -1.215692    0.612739
 H    2.376666   -3.130237   -0.043554
 H    0.025932   -2.751441   -0.711030
 H   -1.632865    0.285530    1.757712
 H   -3.005827   -0.833095    1.869474
 H   -1.357524   -1.457978    1.592702
