21 
1oxr_ligand_dft.xyz
 O    1.104701    2.812486   -0.456214
 C    0.319747    1.832861    0.035823
 O   -0.748106    2.093797    0.524121
 C    0.899467    0.450946   -0.032027
 C    2.226912    0.226393    0.346137
 C    2.762505   -1.055808    0.342569
 C    1.974491   -2.129175   -0.063671
 C    0.656551   -1.920694   -0.454278
 C    0.115071   -0.639728   -0.423828
 O   -1.158740   -0.450758   -0.896459
 C   -2.264941   -0.500590   -0.069955
 O   -3.338842   -0.363806   -0.576837
 C   -2.009401   -0.731510    1.395866
 H    1.852432    2.427148   -0.933115
 H    2.835749    1.063204    0.679181
 H    3.789522   -1.215604    0.653470
 H    2.387021   -3.132935   -0.081885
 H    0.032164   -2.739789   -0.795837
 H   -1.472807    0.129986    1.802732
 H   -2.972587   -0.833857    1.894437
 H   -1.406010   -1.628092    1.564317
