26 
1ozv_ligand_xtb.xyz
 N   -2.742984   -1.537570   -0.060478
 C   -1.671020   -0.582195    0.355287
 C   -2.118066    0.861188    0.002039
 O   -1.359338    1.764849   -0.140929
 C   -0.319334   -0.932060   -0.278441
 C    0.837267   -0.219513    0.436604
 C    2.178366   -0.447906   -0.269971
 C    3.279374    0.344233    0.430115
 N    4.592722    0.187857   -0.263082
 O   -3.439976    0.923094   -0.093866
 H   -3.660790   -1.108809    0.155125
 H   -2.709701   -1.703909   -1.076308
 H   -2.665862   -2.442693    0.421218
 H   -1.587064   -0.618803    1.448102
 H   -0.163769   -2.011474   -0.222843
 H   -0.323669   -0.636670   -1.329423
 H    0.628099    0.848785    0.460729
 H    0.903808   -0.579381    1.463941
 H    2.091748   -0.119952   -1.307297
 H    2.418798   -1.512725   -0.263623
 H    3.022546    1.404973    0.442375
 H    3.392965    0.004584    1.460980
 H    4.533256    0.525434   -1.233955
 H    5.326688    0.725945    0.218293
 H    4.880116   -0.800542   -0.283559
 H   -3.760347    1.827202   -0.264278
