26 
1ozv_ligand_dft.xyz
 N   -2.708825   -1.574448   -0.072474
 C   -1.662271   -0.559797    0.345524
 C   -2.176860    0.844611   -0.010710
 O   -1.452994    1.770713   -0.234317
 C   -0.300761   -0.888031   -0.279156
 C    0.853734   -0.160545    0.430161
 C    2.197815   -0.401450   -0.274172
 C    3.314114    0.344719    0.451037
 N    4.645498    0.159951   -0.247592
 O   -3.512454    0.865582   -0.002450
 H   -3.640572   -1.276822    0.247824
 H   -2.763045   -1.666887   -1.093816
 H   -2.514380   -2.504907    0.313443
 H   -1.618106   -0.628240    1.438585
 H   -0.133684   -1.971193   -0.217073
 H   -0.319040   -0.617062   -1.341504
 H    0.641201    0.911649    0.449941
 H    0.915499   -0.506754    1.469465
 H    2.130846   -0.049997   -1.311699
 H    2.422146   -1.475579   -0.302180
 H    3.133761    1.421629    0.480425
 H    3.455193   -0.015671    1.472434
 H    4.621241    0.512505   -1.211304
 H    5.397727    0.662023    0.239207
 H    4.919991   -0.828069   -0.290932
 H   -3.836527    1.767449   -0.184332
