18 
1p7m_ligand_xtb.xyz
 N    1.205806    1.687139   -0.000702
 C    0.689478    0.464711   -0.002256
 N    1.308223   -0.746514   -0.001663
 C    0.511909   -1.827034   -0.001982
 N   -0.786579   -1.819758   -0.001217
 C   -1.463731   -0.646555   -0.000251
 N   -2.804319   -0.700680   -0.000586
 C   -0.740926    0.542545   -0.001750
 N   -1.070306    1.860543    0.000183
 C    0.102821    2.469098    0.000412
 C    2.748986   -0.809419    0.003542
 H    0.998641   -2.792771   -0.002350
 H   -3.266570   -1.591480    0.014682
 H   -3.322095    0.159070    0.012031
 H    0.187878    3.539017    0.001887
 H    3.136521   -0.300119   -0.879357
 H    3.129128   -0.291400    0.884577
 H    3.075497   -1.847494    0.010132
