20 
1pa9_ligand_xtb.xyz
 S    2.449560   -0.573881    0.246528
 O    1.225883   -0.702684   -0.785899
 O    2.003934    0.050929    1.434656
 O    3.443709    0.385383   -0.520349
 O    3.061956   -1.851987    0.286835
 O    1.319734    1.977988   -0.381160
 O   -4.512189   -0.046015    0.334431
 O   -3.528182   -1.874752   -0.212599
 C   -1.120436   -0.691068   -0.376968
 N   -3.530318   -0.688980    0.031717
 C   -1.026984    2.041543    0.135682
 C    0.080707   -0.018914   -0.468848
 C   -2.230870    1.374480    0.224610
 C    0.137566    1.365090   -0.224892
 C   -2.274728    0.013117   -0.046381
 H    4.013415   -0.139755   -1.084819
 H    1.282092    2.891172   -0.065491
 H   -1.167069   -1.752833   -0.562323
 H   -0.980006    3.100989    0.342563
 H   -3.139442    1.888995    0.497071
