20 
1pa9_ligand_dft.xyz
 S    2.342724   -0.659163    0.258067
 O    1.430420    0.054970   -0.891787
 O    2.436605    0.204145    1.397824
 O    3.722869   -0.582405   -0.535855
 O    1.934292   -2.038689    0.362753
 O    1.005361    2.624780   -0.283806
 O   -4.326982   -0.570341    0.353185
 O   -2.988693   -2.146758   -0.289356
 C   -0.867770   -0.475005   -0.421899
 N   -3.231450   -0.987752    0.008639
 C   -1.331764    2.216982    0.178747
 C    0.159482    0.445037   -0.481151
 C   -2.374422    1.305536    0.248558
 C   -0.048720    1.801145   -0.186250
 C   -2.131121   -0.026998   -0.054317
 H    3.810199   -1.378936   -1.085011
 H    0.755060    3.513599   -0.002377
 H   -0.689764   -1.518623   -0.649976
 H   -1.511595    3.263067    0.410683
 H   -3.372419    1.615961    0.531327
