67 
1pau_ligand_xtb.xyz
 C    6.336856   -0.833041    0.074275
 O    6.289536   -1.986115   -0.300451
 C    7.614948   -0.117514    0.453818
 N    5.233369   -0.060981    0.182125
 C    3.903470   -0.526254   -0.123714
 C    2.980294    0.693853   -0.064078
 O    3.322964    1.723796    0.487709
 C    3.459233   -1.586616    0.906712
 C    2.129781   -2.241033    0.627937
 O    1.851613   -2.376360   -0.646395
 O    1.403186   -2.630957    1.520485
 N    1.799032    0.534819   -0.679746
 C    0.692051    1.436239   -0.464236
 C   -0.465261    0.638587    0.150728
 O   -0.438122   -0.578603    0.225227
 C    0.258930    2.130029   -1.770815
 C    0.796474    3.555632   -1.854955
 C    0.123566    4.478206   -0.872567
 O    0.560572    5.728600   -0.984486
 O   -0.717629    4.158290   -0.067713
 N   -1.462281    1.405929    0.598292
 C   -2.687118    0.838730    1.133855
 C   -3.291020   -0.019769    0.012683
 O   -3.781053    0.487453   -0.982557
 C   -3.663402    1.939164    1.561078
 C   -3.040354    2.848933    2.616189
 C   -4.943870    1.299819    2.095203
 N   -3.207923   -1.342177    0.210695
 C   -3.448824   -2.315232   -0.847750
 C   -4.957080   -2.417540   -1.159965
 O   -5.366027   -1.489189   -2.118256
 C   -2.851666   -3.661491   -0.420013
 C   -1.382522   -3.458911   -0.109747
 O   -1.160867   -3.213455    1.154817
 O   -0.521116   -3.492562   -0.964541
 H    7.786560    0.715044   -0.224607
 H    7.542633    0.268135    1.467888
 H    8.447839   -0.811023    0.388250
 H    5.269830    0.880269    0.553758
 H    3.889678   -0.980746   -1.121153
 H    3.438360   -1.161880    1.911886
 H    4.215773   -2.378742    0.883660
 H    0.961886   -2.830665   -0.799494
 H    1.546242   -0.382060   -1.028972
 H    1.023797    2.181417    0.266686
 H   -0.829977    2.149959   -1.842076
 H    0.637662    1.548909   -2.612132
 H    1.869033    3.574579   -1.647749
 H    0.650154    3.972606   -2.853192
 H    0.124551    6.311925   -0.342439
 H   -1.424488    2.406203    0.431794
 H   -2.430433    0.203355    1.991256
 H   -3.907701    2.526283    0.669979
 H   -3.765905    3.593536    2.933864
 H   -2.740474    2.269402    3.486832
 H   -2.169030    3.369916    2.229243
 H   -5.415452    0.685058    1.332653
 H   -5.649415    2.070296    2.394880
 H   -4.727438    0.676919    2.961029
 H   -2.675906   -1.673925    1.003587
 H   -2.945772   -1.970068   -1.762436
 H   -5.186869   -3.403217   -1.573318
 H   -5.519419   -2.293982   -0.220234
 H   -4.969008   -0.626224   -1.891608
 H   -2.951494   -4.373420   -1.237789
 H   -3.367086   -4.029910    0.467232
 H   -0.194872   -2.989019    1.344617
