14 
1pb9_ligand_xtb.xyz
 O   -1.062376   -1.635190   -0.039644
 O    1.809876    0.281973    0.017461
 N   -1.763687    0.851418   -0.172666
 N    1.158226   -0.952754   -0.085567
 C   -0.440067    0.636082    0.441591
 C    0.812478    1.286964   -0.137015
 C   -0.140738   -0.869994    0.112041
 H   -2.143398   -0.150695   -0.206228
 H   -1.703841    1.205074   -1.136221
 H   -2.392154    1.454074    0.367868
 H    1.755396   -1.746561   -0.267206
 H   -0.508622    0.762299    1.525933
 H    1.174000    2.161401    0.403540
 H    0.686819    1.531190   -1.202295
