144 
1pbk_ligand_dft.xyz
 C    2.237478   -2.777792    0.902220
 O    2.443529   -2.061117   -0.208048
 O    2.240413   -3.984504    0.948474
 C    2.074460   -1.842571    2.100609
 C    3.445827   -1.489286    2.691403
 C    4.171375   -2.715335    3.268656
 C    3.186967   -3.720418    3.905986
 C    1.863799   -3.070734    4.294372
 N    1.236636   -2.429554    3.135020
 C   -0.110703   -2.323403    3.106318
 O   -0.861343   -2.772384    3.961950
 C   -0.730100   -1.634234    1.885364
 O   -0.570141   -2.081249    0.771577
 C   -1.535809   -0.337868    2.127648
 O   -0.529729    0.492446    2.677096
 O   -2.012974    0.151089    0.918601
 C   -2.725396   -0.499561    3.089061
 C   -3.235370    0.889510    3.487312
 C   -2.091909    1.744488    4.040155
 C   -0.971283    1.820049    3.013456
 C    0.268774    2.587320    3.461846
 C    0.955857    3.365821    2.322635
 O    0.117607    4.470385    2.053860
 C    1.196422    2.472664    1.116389
 C    0.314736    2.484190    0.105171
 C    0.262211    1.592072   -1.043902
 C   -0.728437    1.585356   -1.961862
 C   -1.925836    2.442010   -1.981961
 C   -2.727788    2.671154   -0.933668
 C   -4.002121    3.482326   -0.935114
 C   -5.203028    2.578432   -1.277844
 C   -5.415188    1.371045   -0.331206
 C   -6.179217    0.324688   -1.132647
 O   -7.377133    0.401886   -1.309203
 C   -5.400311   -0.891414   -1.665469
 O   -5.086016   -1.719096   -0.566524
 C   -4.076096   -0.531587   -2.342747
 O   -4.426133    0.278764   -3.459273
 C   -3.279330   -1.752017   -2.761019
 C   -2.107319   -1.939124   -2.148231
 C   -1.089878   -3.046143   -2.192513
 C    0.319791   -2.460498   -2.294447
 O    0.527114   -1.317805   -2.650263
 C    1.458355   -3.416351   -1.971784
 C    2.737837   -2.788120   -1.424807
 C    3.496912   -1.798851   -2.314300
 C    4.893983   -1.548628   -1.717612
 C    5.494640   -0.175973   -2.040677
 C    4.762784    0.935289   -1.276755
 C    5.378678    2.306936   -1.530314
 O    4.766916    3.330788   -0.758229
 C    6.857575    2.318977   -1.159326
 O    7.428567    3.577938   -1.431701
 C    7.605396    1.247712   -1.940290
 C    6.992805   -0.135567   -1.706297
 C   -3.812017   -1.395410    2.503470
 C    2.406524    1.594562    1.221891
 C   -3.965722    4.680721   -1.887112
 C   -6.175091    1.753952    0.938384
 C   -3.952113   -2.609813   -3.804215
 C   -1.248610   -4.153778   -3.246409
 C    3.594621   -2.283260   -3.761684
 C    0.729363    5.483772    1.293561
 C   -6.192659   -2.406408   -0.026228
 C    3.567530    3.829166   -1.306233
 H    1.609431   -0.922126    1.744216
 H    3.270155   -0.746865    3.478380
 H    4.047296   -0.995922    1.921115
 H    4.904792   -2.369679    4.004328
 H    4.735391   -3.218869    2.476626
 H    2.970858   -4.521504    3.195997
 H    3.625884   -4.177057    4.798358
 H    2.008133   -2.321367    5.085171
 H    1.158222   -3.810507    4.674663
 H   -1.278398    0.202435    0.284153
 H   -2.322063   -0.979714    3.984909
 H   -3.682582    1.384247    2.614896
 H   -4.029164    0.777919    4.234624
 H   -1.706538    1.307926    4.971311
 H   -2.437051    2.760103    4.265092
 H   -1.374002    2.286131    2.106850
 H   -0.001767    3.320431    4.228596
 H    0.969304    1.878984    3.916689
 H    1.927731    3.734241    2.697124
 H   -0.482789    3.217874    0.167942
 H    1.061371    0.865697   -1.181753
 H   -0.628812    0.876783   -2.782517
 H   -2.175159    2.875922   -2.952348
 H   -2.498722    2.166132    0.001819
 H   -4.137209    3.868353    0.084893
 H   -5.056413    2.216248   -2.301224
 H   -6.125887    3.172959   -1.282431
 H   -4.445598    0.949622   -0.047023
 H   -6.060540   -1.411873   -2.374801
 H   -3.474774    0.046028   -1.631932
 H   -3.602317    0.650397   -3.798331
 H   -1.840038   -1.199040   -1.398585
 H   -1.129680   -3.528824   -1.205233
 H    1.115215   -4.170394   -1.257851
 H    1.706511   -3.958812   -2.893267
 H    3.405267   -3.615882   -1.155008
 H    2.917534   -0.871618   -2.310322
 H    4.852998   -1.646338   -0.624100
 H    5.572954   -2.337863   -2.071500
 H    5.385526    0.017109   -3.119290
 H    4.825285    0.725681   -0.199864
 H    3.698138    0.950413   -1.533602
 H    5.297381    2.565089   -2.599826
 H    6.927037    2.092110   -0.079952
 H    6.813184    4.222034   -1.053862
 H    7.563329    1.504860   -3.006895
 H    8.661108    1.263034   -1.650689
 H    7.526282   -0.885725   -2.301755
 H    7.125613   -0.420862   -0.652032
 H   -3.432976   -2.410802    2.341782
 H   -4.652357   -1.464003    3.203164
 H   -4.176040   -1.016680    1.544813
 H    2.394002    0.765326    0.510980
 H    2.497769    1.175152    2.230817
 H    3.316422    2.179201    1.031797
 H   -3.911104    4.358313   -2.933297
 H   -3.101203    5.320460   -1.683525
 H   -4.874867    5.281281   -1.779348
 H   -7.202764    2.038861    0.694708
 H   -6.207036    0.916741    1.644389
 H   -5.687744    2.596341    1.441670
 H   -3.249962   -3.082695   -4.490452
 H   -4.549542   -3.400876   -3.333307
 H   -4.629679   -1.990497   -4.399312
 H   -0.492463   -4.932467   -3.104074
 H   -2.226961   -4.630203   -3.157323
 H   -1.142392   -3.758992   -4.261728
 H    4.010886   -3.297374   -3.818505
 H    2.616921   -2.275268   -4.251801
 H    4.254458   -1.626968   -4.338190
 H    1.638592    5.858240    1.788573
 H    0.993389    5.138895    0.285069
 H    0.006808    6.298649    1.213291
 H   -6.666223   -3.047168   -0.783845
 H   -6.952656   -1.722290    0.373824
 H   -5.804941   -3.026928    0.784058
 H    3.198889    4.592896   -0.617748
 H    3.740420    4.283415   -2.292925
 H    2.797855    3.052910   -1.402394
