21 
1pg2_ligand_dft.xyz
 N    0.740807    1.118871   -1.348162
 C    1.273875    0.898133    0.046678
 C    1.856087   -0.512716    0.157740
 O    2.197850   -0.994800   -1.047083
 C    0.213033    1.187636    1.115592
 C   -0.962626    0.207686    1.187081
 S   -2.037523    0.307835   -0.295800
 C   -2.778015   -1.348469   -0.304825
 O    2.013358   -1.073154    1.203371
 H   -0.217743    0.684307   -1.405272
 H    1.353420    0.688948   -2.049648
 H    0.639738    2.115786   -1.557747
 H    2.113160    1.590839    0.169496
 H    2.613584   -1.867713   -0.933481
 H    0.736456    1.152801    2.075253
 H   -0.144686    2.217142    0.994636
 H   -1.560249    0.441016    2.071360
 H   -0.596048   -0.817077    1.296076
 H   -3.358105   -1.497657    0.607743
 H   -3.452501   -1.391230   -1.162025
 H   -2.016092   -2.124612   -0.400352
