30 
1pgp_ligand_dft.xyz
 C    3.950165    0.375559   -0.659227
 C    3.113006   -0.518803    0.244367
 C    1.612709   -0.386537   -0.019170
 C    1.040482    0.952897    0.468285
 C   -0.497236    0.983771    0.415660
 C   -1.080250    0.574168   -0.932318
 O    5.241907    0.002208   -0.621148
 O    3.552421    1.302879   -1.319709
 O    3.427810   -1.882260    0.023058
 O    0.945668   -1.424174    0.679531
 O    1.459655    1.251305    1.779807
 O   -1.027614    0.188084    1.479885
 O   -2.481635    0.824985   -0.974361
 P   -3.479330   -0.254664   -0.296161
 O   -3.748169    0.286510    1.174388
 O   -3.012707   -1.646323   -0.454793
 O   -4.876697    0.104891   -0.981225
 H    3.304707   -0.226595    1.285761
 H    1.440056   -0.483605   -1.101610
 H    1.435693    1.736376   -0.183117
 H   -0.819913    2.004067    0.640819
 H   -0.890714   -0.485926   -1.133063
 H   -0.635615    1.177321   -1.729098
 H    5.730007    0.600237   -1.210119
 H    4.341859   -2.035204    0.291292
 H    1.451974   -2.236926    0.534696
 H    0.846060    0.780125    2.363939
 H   -0.725940   -0.726105    1.318188
 H   -2.879725    0.320682    1.629720
 H   -5.086866   -0.555676   -1.654035
