96 
1pip_ligand_dft.xyz
 C    0.542968    2.209409    3.217980
 O   -0.399432    2.187021    2.274270
 O    0.640655    1.390651    4.104118
 C    1.531762    3.328605    2.979392
 C    2.822719    2.723080    2.387019
 C    2.536704    1.891304    1.150006
 O    2.522089    0.658713    1.190201
 N    2.306473    2.578682    0.003175
 C    1.707297    1.918702   -1.152503
 C    2.636958    0.921130   -1.847405
 O    2.176568    0.122685   -2.652349
 C    1.196083    2.952716   -2.173182
 C   -0.230211    3.457799   -1.934448
 C   -0.460719    3.989604   -0.528626
 O    0.407192    4.635567    0.065570
 N   -1.671764    3.730748   -0.006671
 N    3.941977    0.962686   -1.510810
 C    4.873832   -0.063005   -1.939119
 C    4.422695   -1.477335   -1.535246
 O    4.799740   -2.442334   -2.180910
 C    6.282291    0.269509   -1.395523
 C    7.357343   -0.585658   -2.067890
 C    6.370646    0.157278    0.131948
 N    3.659833   -1.569868   -0.412601
 C    3.094881   -2.844111   -0.006102
 C    1.589214   -2.734903    0.256594
 O    0.784734   -3.376686   -0.418649
 C    3.872710   -3.521252    1.152504
 C    4.029695   -2.643615    2.398940
 C    5.244494   -3.982235    0.649408
 N    1.170757   -1.960630    1.291329
 C   -0.208659   -1.997572    1.756543
 C   -1.052724   -0.967285    1.001997
 O   -1.643718   -0.039902    1.551559
 C   -0.281378   -1.795951    3.262421
 N   -1.116682   -1.130175   -0.344742
 C   -1.527386    0.001569   -1.156223
 C   -3.007643    0.354301   -1.011109
 O   -3.376741    1.513221   -1.158963
 C   -1.174123   -0.237439   -2.623032
 N   -3.830804   -0.706896   -0.797135
 C   -5.223028   -0.732221   -0.642488
 C   -6.019214    0.417537   -0.713332
 C   -7.392243    0.307687   -0.549843
 C   -7.960603   -0.937623   -0.321111
 N   -9.409963   -1.043668   -0.152002
 O  -10.066145   -0.014936   -0.214284
 O   -9.878597   -2.155826    0.041693
 C   -7.186434   -2.089252   -0.249537
 C   -5.816924   -1.980502   -0.410436
 H   -0.920333    1.352532    2.329624
 H    1.772397    3.802192    3.933966
 H    1.102236    4.067808    2.298043
 H    3.522973    3.529481    2.146212
 H    3.285556    2.057903    3.118569
 H    2.038556    3.558317    0.101202
 H    0.880501    1.288852   -0.805058
 H    1.221943    2.484167   -3.160440
 H    1.895366    3.795601   -2.197149
 H   -0.433050    4.278758   -2.632577
 H   -0.958896    2.674347   -2.163443
 H   -2.306827    3.063420   -0.438838
 H   -1.803272    3.941255    0.972225
 H    4.237072    1.661787   -0.845634
 H    4.907801   -0.084092   -3.032499
 H    6.462550    1.317938   -1.674078
 H    7.194406   -1.648468   -1.868843
 H    8.347944   -0.307256   -1.693565
 H    7.349944   -0.447575   -3.153627
 H    7.320139    0.570006    0.486754
 H    5.561877    0.688940    0.648211
 H    6.319660   -0.889104    0.449352
 H    3.346821   -0.718646    0.042741
 H    3.164892   -3.495288   -0.879528
 H    3.296300   -4.416259    1.425784
 H    3.086200   -2.503619    2.933338
 H    4.733047   -3.107236    3.098204
 H    4.428805   -1.656695    2.135738
 H    5.873082   -3.124814    0.386322
 H    5.158253   -4.605936   -0.244392
 H    5.761551   -4.553063    1.428071
 H    1.781003   -1.258254    1.693297
 H   -0.589803   -2.987636    1.483785
 H    0.113279   -0.820515    3.561662
 H   -1.319304   -1.850584    3.599910
 H    0.291432   -2.582714    3.761076
 H   -0.545382   -1.870845   -0.753564
 H   -1.020341    0.898078   -0.786749
 H   -1.549177    0.588075   -3.234165
 H   -1.631045   -1.163818   -2.986859
 H   -0.087381   -0.296073   -2.744985
 H   -3.348390   -1.585506   -0.653580
 H   -5.559810    1.378482   -0.893186
 H   -8.027870    1.183288   -0.598003
 H   -7.659971   -3.046633   -0.071737
 H   -5.200271   -2.873776   -0.359001
