43 
1pme_ligand_xtb.xyz
 N   -0.067387    1.279632   -0.089726
 C    0.591466    0.142970   -0.094259
 N   -0.275920   -0.907992   -0.034309
 C   -1.548870   -0.404614   -0.004224
 C   -1.389142    0.977291   -0.027760
 C   -2.111178    3.284520   -0.508429
 C   -2.379331    2.039043    0.060096
 C   -3.589875    1.880985    0.735109
 C   -4.464316    2.952634    0.782520
 N   -4.217998    4.127313    0.226749
 C   -3.061735    4.283384   -0.397442
 C   -4.952001   -1.753874   -0.776733
 C   -4.912419   -2.941285   -0.065678
 C   -3.801358   -3.314908    0.668452
 C   -2.704230   -2.475521    0.687906
 C   -2.715302   -1.268999   -0.014078
 C   -3.850745   -0.922541   -0.749444
 C    2.032761    0.029296   -0.146577
 C    2.686915   -1.203916   -0.128201
 C    4.066371   -1.255140   -0.179544
 C    4.798118   -0.084473   -0.238677
 C    4.165005    1.147932   -0.272475
 C    2.787986    1.204164   -0.222251
 S    6.618274   -0.183134   -0.312979
 O    6.934130   -1.605195   -0.440889
 C    6.818072    0.217357    1.486371
 F   -5.984566   -3.757619   -0.090830
 H   -1.176403    3.446765   -1.020240
 H   -3.835210    0.949696    1.222108
 H   -5.413981    2.869850    1.295612
 H   -2.895354    5.261869   -0.829509
 H   -5.833158   -1.497360   -1.342836
 H   -3.805603   -4.245675    1.213262
 H   -1.840305   -2.749895    1.276077
 H   -3.859524    0.000516   -1.308083
 H    2.129617   -2.127863   -0.075255
 H    4.597166   -2.196132   -0.177308
 H    4.750169    2.053021   -0.337749
 H    2.262851    2.145396   -0.240760
 H    6.288697   -0.524100    2.074354
 H    7.878747    0.182215    1.712635
 H    6.424945    1.210686    1.667237
 H   -0.044999   -1.887202   -0.064391
