43 
1pme_ligand_dft.xyz
 O   -0.412072   21.348368   26.554703
 C    0.826445   21.868279   28.868459
 S    0.975666   21.366793   27.125116
 C    0.803320   17.335633   27.472793
 C    0.475713   18.666667   27.242416
 C    1.428710   19.648659   27.469649
 C    2.712356   19.317856   27.898506
 C    3.031345   17.989780   28.135744
 C    2.077201   16.985214   27.929496
 N    0.272297    9.656653   28.946908
 C   -0.069437   10.530157   27.998979
 C    0.565010   11.752102   27.803218
 C    1.622647   12.112010   28.644470
 C    1.981231   11.203033   29.645041
 C    1.286358   10.004891   29.744652
 N    1.592931   14.544731   28.184048
 C    2.460294   15.594551   28.192273
 N    3.681381   15.185763   28.466948
 C    3.606321   13.830313   28.655834
 C    2.298405   13.403587   28.502636
 C    5.852287   13.638824   29.685067
 C    7.017832   12.938983   29.969083
 C    7.146599   11.640441   29.499377
 C    6.153029   11.031159   28.748505
 C    4.995213   11.746499   28.467447
 C    4.822411   13.050717   28.942952
 F    8.268194   10.956221   29.773232
 H    1.789600   21.749072   29.371684
 H    0.524525   22.918125   28.880455
 H    0.060955   21.253322   29.348160
 H    0.054968   16.573729   27.271202
 H   -0.503914   18.960305   26.876583
 H    3.463540   20.090121   28.046026
 H    4.021764   17.704692   28.473455
 H   -0.892558   10.235272   27.351547
 H    0.254991   12.398162   26.986748
 H    2.785465   11.430898   30.335991
 H    1.553194    9.286287   30.516339
 H    0.588160   14.594563   28.117079
 H    5.730799   14.658826   30.034226
 H    7.821100   13.383605   30.546191
 H    6.297932   10.020766   28.382611
 H    4.222795   11.285374   27.860147
