70 
1pop_ligand_dft.xyz
 C   -2.349512    0.163920    1.904564
 O   -2.461017    1.389725    1.805733
 C   -2.526194   -0.536302    3.234683
 N   -2.100679   -0.657083    0.861816
 C   -1.939667   -0.263292   -0.532327
 C   -0.595984    0.418092   -0.820893
 O    0.071747    0.092926   -1.808463
 C   -3.088342    0.579049   -1.111233
 C   -4.471741   -0.097033   -1.173962
 C   -4.429264   -1.448751   -1.891712
 C   -5.165439   -0.221298    0.187948
 N   -0.219802    1.374442    0.045450
 C    0.973894    2.191551   -0.132086
 C    2.215214    1.414630    0.363028
 O    2.834339    1.753143    1.369810
 C    0.818888    3.526595    0.595647
 C   -0.024257    4.594180   -0.125603
 C   -1.466888    4.162573   -0.411081
 C    0.653881    5.092140   -1.406030
 N    2.538279    0.358981   -0.412370
 C    3.597085   -0.609367   -0.126683
 C    4.988692    0.048699   -0.002256
 O    5.279808    0.505895    1.287554
 C    3.577521   -1.669460   -1.236091
 C    2.322004   -2.548956   -1.285760
 C    2.281772   -3.582799   -0.155389
 N    1.086841   -4.410370   -0.154354
 C   -0.117680   -3.942916    0.322932
 N   -1.181240   -4.785459    0.034276
 N   -0.331272   -2.858036    0.982652
 H   -2.012817   -1.501332    3.270212
 H   -2.157371    0.113438    4.030049
 H   -3.595880   -0.704180    3.401235
 H   -1.736380   -1.593837    1.064311
 H   -1.877201   -1.200357   -1.090466
 H   -3.164402    1.516597   -0.553774
 H   -2.785533    0.832706   -2.135656
 H   -5.086997    0.578200   -1.784755
 H   -3.929174   -1.372356   -2.864135
 H   -3.894910   -2.199174   -1.296159
 H   -5.442139   -1.829987   -2.061050
 H   -5.102637    0.715253    0.751738
 H   -6.224004   -0.471298    0.054194
 H   -4.710223   -1.010919    0.794125
 H   -0.888275    1.638184    0.769158
 H    1.103643    2.351846   -1.209593
 H    0.400832    3.332494    1.591400
 H    1.821328    3.927753    0.771894
 H   -0.068039    5.442946    0.570399
 H   -1.501688    3.387905   -1.185738
 H   -2.053909    5.014764   -0.771216
 H   -1.959537    3.763245    0.482216
 H    0.103865    5.938718   -1.831000
 H    0.687011    4.310636   -2.174882
 H    1.681673    5.419648   -1.213327
 H    1.902291    0.172235   -1.186234
 H    3.400982   -1.078961    0.847854
 H    5.753037   -0.699500   -0.240033
 H    5.060554    0.845578   -0.762061
 H    4.533153    1.078367    1.544474
 H    4.455826   -2.314128   -1.108035
 H    3.707547   -1.161806   -2.200443
 H    2.305461   -3.086607   -2.242122
 H    1.409994   -1.940725   -1.268742
 H    2.362889   -3.106358    0.827112
 H    3.144164   -4.254176   -0.232161
 H    0.999334   -5.022985   -0.954146
 H   -0.980383   -5.773172    0.120226
 H   -2.018097   -4.519878    0.535505
 H    0.488204   -2.257144    1.014092
