58 
1pph_ligand_xtb.xyz
 S    0.460644   -2.214180   -0.384394
 C   -1.212198   -2.187588    0.239656
 C   -2.221184   -2.701837   -0.551390
 C   -3.533352   -2.567806   -0.140948
 C   -3.842760   -1.917143    1.051268
 C   -5.272417   -1.767528    1.471217
 C   -2.809149   -1.422464    1.837385
 C   -1.491134   -1.553653    1.432775
 O    1.366723   -1.906977    0.692407
 O    0.694668   -3.399215   -1.148608
 C   -1.344646    0.562099   -1.065790
 O   -1.912349   -0.051355   -1.957700
 C    0.154825    0.337197   -0.841090
 N    0.526130   -0.925294   -1.439028
 C    1.015516    1.480995   -1.426219
 C    2.288126    1.585698   -0.632450
 C    2.592848    2.721865    0.104540
 C    3.721974    2.750307    0.907304
 C    4.532004    1.635010    1.008106
 C    4.230345    0.484188    0.285572
 C    5.070199   -0.739686    0.418134
 N    4.382977   -1.906237    0.362908
 N    6.340065   -0.760561    0.537113
 C    3.123814    0.480343   -0.552347
 N   -1.993442    1.407874   -0.249391
 C   -1.429298    2.215066    0.808556
 C   -1.665648    3.700264    0.519427
 C   -3.156877    3.972407    0.343728
 C   -3.716036    3.069541   -0.752271
 C   -3.420498    1.608618   -0.422230
 H   -1.962537   -3.196485   -1.473587
 H   -4.331245   -2.960341   -0.753319
 H   -5.357922   -1.155428    2.365201
 H   -5.856502   -1.312105    0.673428
 H   -5.704636   -2.745064    1.680822
 H   -3.035144   -0.929123    2.771943
 H   -0.675135   -1.183470    2.034212
 H    0.370108    0.231714    0.225611
 H   -0.023344   -1.110589   -2.271678
 H    1.226451    1.242899   -2.469949
 H    0.464559    2.422224   -1.393968
 H    1.948153    3.588904    0.053064
 H    3.956894    3.640878    1.472056
 H    5.390386    1.645176    1.665154
 H    3.386518   -1.926010    0.522353
 H    4.909953   -2.742570    0.546728
 H    6.773143    0.156730    0.500029
 H    2.894139   -0.398140   -1.133878
 H   -1.932110    1.946641    1.746559
 H   -0.364926    2.021764    0.921049
 H   -1.261882    4.294202    1.340209
 H   -1.137317    3.978705   -0.394674
 H   -3.676840    3.770886    1.283063
 H   -3.318799    5.020488    0.088253
 H   -3.252032    3.320373   -1.707854
 H   -4.793132    3.208179   -0.850187
 H   -3.926192    1.322715    0.507271
 H   -3.750073    0.948279   -1.225201
