92 
1ppl_ligand_xtb.xyz
 C   -7.106494   -0.225445    1.050766
 C   -8.256506   -1.111487    0.562438
 C   -8.624318   -0.751367   -0.874482
 C   -9.467311   -0.972992    1.480092
 C   -5.809342   -0.541359    0.326544
 O   -5.517442   -1.650430   -0.075370
 N   -5.001106    0.529354    0.151613
 C   -3.653292    0.389852   -0.343697
 C   -2.683947    0.994413    0.669639
 O   -3.015040    1.863864    1.452905
 C   -3.453840    1.080740   -1.714187
 C   -4.175887    0.296010   -2.805348
 C   -3.943605    2.526472   -1.673578
 N   -1.449250    0.465131    0.610139
 C   -0.313915    1.038684    1.294766
 C    0.751883    1.313105    0.225211
 O    0.485160    1.228452   -0.958114
 C    0.162878    0.137748    2.452225
 C    0.653427   -1.205619    1.922166
 C   -0.965854   -0.056948    3.461749
 C    3.073641    1.938064   -0.206123
 C    3.702356    3.302976    0.041163
 C    2.709835    4.467615   -0.064043
 C    2.066718    4.532471   -1.447253
 C    3.431824    5.776787    0.248437
 N    1.960323    1.694050    0.675744
 P    4.308198    0.619224    0.150550
 O    4.470112    0.268355    1.566611
 O    5.594703    1.172698   -0.606230
 C    3.827052   -1.914078   -0.214197
 C    3.209408   -2.899054   -1.218600
 C    1.710959   -2.765558   -1.262245
 C    1.112959   -1.735581   -1.976527
 C    0.906103   -3.665806   -0.575281
 C   -0.265208   -1.611237   -2.009146
 C   -0.472232   -3.545209   -0.609944
 C   -1.061751   -2.517993   -1.328104
 C    5.284923   -2.234828    0.065071
 C    6.783328   -3.810419    0.912766
 O    3.726940   -0.610202   -0.734093
 O    5.447075   -3.444058    0.572754
 O    6.182387   -1.457408   -0.147252
 H   -7.359717    0.828983    0.926623
 H   -6.930465   -0.409855    2.114397
 H   -7.906249   -2.148146    0.580537
 H   -7.764299   -0.883415   -1.526143
 H   -9.426608   -1.391489   -1.233923
 H   -8.956016    0.283941   -0.937450
 H  -10.277879   -1.611539    1.136959
 H   -9.822823    0.055893    1.488284
 H   -9.215779   -1.258056    2.499348
 H   -5.175589    1.388943    0.652826
 H   -3.465857   -0.684082   -0.449686
 H   -2.378388    1.083359   -1.923985
 H   -5.237205    0.227885   -2.578612
 H   -4.057764    0.789725   -3.767080
 H   -3.780801   -0.713983   -2.883735
 H   -3.665138    3.040525   -2.590425
 H   -3.503384    3.058738   -0.833879
 H   -5.026688    2.558321   -1.579241
 H   -1.218303   -0.160909   -0.150018
 H   -0.647463    2.000992    1.707298
 H    0.991479    0.642112    2.960951
 H    1.384149   -1.057341    1.130193
 H   -0.173953   -1.783278    1.517981
 H    1.116374   -1.780213    2.720787
 H   -0.616411   -0.645230    4.306634
 H   -1.801073   -0.577425    3.000084
 H   -1.324802    0.901714    3.827154
 H    2.709316    1.833433   -1.228882
 H    4.507433    3.439671   -0.681976
 H    4.151501    3.293971    1.038930
 H    1.918409    4.320450    0.679288
 H    1.442363    5.419412   -1.526869
 H    2.831484    4.581340   -2.219407
 H    1.439757    3.664043   -1.629332
 H    2.734991    6.611073    0.225674
 H    3.889964    5.739608    1.234107
 H    4.212662    5.961755   -0.485859
 H    2.184248    1.660260    1.658718
 H    6.321113    0.546563   -0.511356
 H    3.307348   -1.980381    0.751615
 H    3.489868   -3.909546   -0.918524
 H    3.635228   -2.681341   -2.200052
 H    1.728750   -1.023282   -2.502498
 H    1.361593   -4.469849   -0.014827
 H   -0.710716   -0.806423   -2.573999
 H   -1.089260   -4.255026   -0.079137
 H   -2.138768   -2.437737   -1.361728
 H    6.720876   -4.804330    1.347149
 H    7.411207   -3.818471    0.020164
 H    7.194632   -3.099379    1.630835
