92 
1ppl_ligand_dft.xyz
 C   15.820063    6.576938   18.451530
 C   14.892213    7.081167   19.574182
 C   15.651010    7.939191   20.591623
 C   13.712947    7.850601   18.977867
 C   16.951911    5.746547   19.025232
 O   16.774669    4.621623   19.468195
 N   18.170572    6.367317   19.051882
 C   19.231758    5.874600   19.899050
 C   19.699386    7.043766   20.765483
 O   19.421687    8.208311   20.469488
 C   20.415617    5.269986   19.102695
 C   19.926846    4.106736   18.239809
 C   21.138267    6.326301   18.265148
 N   20.452619    6.721947   21.834516
 C   21.030478    7.726525   22.722805
 C   22.378308    8.187509   22.136287
 O   23.453045    7.860759   22.612285
 C   21.160597    7.217838   24.162167
 C   21.574600    8.374259   25.078691
 C   19.851347    6.594342   24.653326
 C   23.357367    9.697188   20.474316
 C   23.940655    9.089313   19.188812
 C   24.565643    7.699444   19.374405
 C   24.908528    7.111573   18.003043
 C   25.801519    7.732028   20.276112
 N   22.241833    8.955400   21.021646
 P   22.885652   11.446527   20.211505
 O   23.957302   12.464027   20.275209
 O   22.094929   11.328606   18.804970
 C   21.749650   12.625064   22.312271
 C   20.336192   13.050078   22.726419
 C   19.487844   11.928539   23.284313
 C   19.249832   11.841857   24.658620
 C   18.923422   10.964435   22.444166
 C   18.449228   10.830083   25.181802
 C   18.123697    9.950999   22.964334
 C   17.877549    9.885939   24.333467
 C   22.504143   11.926325   23.437534
 C   23.107227   12.050068   25.691465
 O   21.634421   11.754959   21.200809
 O   22.446647   12.637216   24.565868
 O   23.098660   10.884425   23.318505
 H   15.251965    5.939572   17.766916
 H   16.203733    7.430279   17.876979
 H   14.507846    6.193485   20.091559
 H   14.971890    8.319196   21.362331
 H   16.440372    7.369020   21.093320
 H   16.122451    8.803386   20.105762
 H   13.017856    8.170731   19.761565
 H   14.059727    8.748848   18.451634
 H   13.156111    7.235188   18.262801
 H   18.198313    7.369170   18.906014
 H   18.801283    5.088504   20.530208
 H   21.127510    4.873543   19.841293
 H   20.773348    3.611855   17.752401
 H   19.380987    3.367123   18.833259
 H   19.249256    4.469421   17.460047
 H   21.953699    5.866224   17.698025
 H   20.448848    6.787749   17.549079
 H   21.568814    7.119247   18.886445
 H   20.715067    5.756687   21.974218
 H   20.341274    8.576648   22.709465
 H   21.958968    6.464824   24.181589
 H   21.681392    8.017023   26.108744
 H   22.524772    8.809459   24.762259
 H   20.808089    9.160189   25.070170
 H   19.954869    6.276761   25.696010
 H   19.037386    7.326329   24.602792
 H   19.550358    5.719494   24.068333
 H   24.120767    9.735566   21.256731
 H   23.142808    9.036202   18.439091
 H   24.703184    9.773530   18.790343
 H   23.815283    7.051716   19.848143
 H   25.306115    6.095336   18.100054
 H   24.028518    7.071703   17.351077
 H   25.670014    7.720403   17.499339
 H   26.265832    6.740703   20.324310
 H   26.549826    8.432772   19.883645
 H   25.542023    8.021950   21.297215
 H   21.297561    9.159876   20.710665
 H   21.863166   12.201527   18.459252
 H   22.332838   13.510085   22.029414
 H   20.432427   13.850118   23.465528
 H   19.861392   13.480548   21.838585
 H   19.690937   12.580384   25.322972
 H   19.113429   10.999055   21.376287
 H   18.267366   10.783959   26.251576
 H   17.705338    9.209184   22.291493
 H   17.242708    9.102493   24.737357
 H   23.011031   12.776026   26.497735
 H   22.621294   11.109042   25.960021
 H   24.158084   11.862513   25.462095
