82 
1ppm_ligand_dft.xyz
 C    0.892814   -3.499316    0.247998
 O    1.336046   -3.865631    1.328932
 O   -0.413222   -3.539120   -0.087157
 C   -1.342168   -3.825794    0.978177
 C   -1.957138   -2.553492    1.498328
 C   -1.152703   -1.543204    2.032177
 C   -3.335906   -2.352726    1.419149
 C   -1.710198   -0.339205    2.449327
 C   -3.898860   -1.155712    1.853552
 C   -3.085323   -0.141424    2.352384
 N    1.637745   -3.013884   -0.767230
 C    3.080531   -2.832834   -0.649059
 C    3.404049   -1.531860    0.122442
 O    3.932597   -0.574343   -0.435864
 C    3.711960   -2.810316   -2.031662
 N    3.030623   -1.550525    1.421721
 C    3.094973   -0.424232    2.352996
 C    2.040585    0.657335    2.051410
 O    1.213975    0.977437    2.896210
 C    4.499473    0.170060    2.490177
 C    1.174697    2.200859    0.354991
 C    1.737196    3.634455    0.289603
 C    3.146325    3.812341   -0.293014
 C    3.576224    5.272220   -0.118882
 C    3.253735    3.393927   -1.761444
 N    2.126706    1.220685    0.823073
 P    0.350409    1.618599   -1.174222
 O    1.429729    0.705770   -1.928347
 O   -0.289443    2.680099   -1.986815
 C   -1.780521   -0.114507   -1.091040
 C   -2.793253    0.808828   -1.805193
 C   -3.592035    1.619858   -0.811447
 C   -4.845724    1.170518   -0.392864
 C   -3.079554    2.796132   -0.259380
 C   -5.570827    1.868377    0.568114
 C   -3.798491    3.489998    0.709620
 C   -5.043178    3.027724    1.130150
 C   -1.317207   -1.253922   -1.987803
 C   -1.958898   -3.274546   -2.983588
 O   -0.670751    0.537377   -0.509871
 O   -2.286136   -2.126387   -2.189792
 O   -0.202330   -1.376880   -2.475389
 H   -0.808434   -4.372648    1.757766
 H   -2.098990   -4.475487    0.533736
 H   -0.078776   -1.685201    2.111284
 H   -3.971123   -3.130091    1.000939
 H   -1.054625    0.439347    2.825540
 H   -4.970091   -0.999906    1.773356
 H   -3.523674    0.808462    2.642782
 H    1.146073   -2.570837   -1.535625
 H    3.458580   -3.682070   -0.070727
 H    3.479920   -3.736738   -2.563976
 H    3.347635   -1.954615   -2.607092
 H    4.795624   -2.706163   -1.948791
 H    2.545643   -2.386156    1.738150
 H    2.789474   -0.827524    3.320333
 H    4.851238    0.588525    1.546039
 H    5.200551   -0.606874    2.808589
 H    4.485646    0.959104    3.247955
 H    0.357595    2.205065    1.084802
 H    1.747877    4.004372    1.322200
 H    1.026403    4.257398   -0.267587
 H    3.831264    3.187578    0.297178
 H    3.520668    5.586438    0.929659
 H    2.929709    5.937325   -0.704845
 H    4.605598    5.420525   -0.462641
 H    2.487608    3.894980   -2.365207
 H    3.134437    2.315992   -1.899298
 H    4.235573    3.665490   -2.164785
 H    2.825741    0.860394    0.175939
 H    0.998570   -0.111744   -2.259548
 H   -2.293427   -0.590854   -0.252894
 H   -2.261953    1.456331   -2.507014
 H   -3.469045    0.164002   -2.376461
 H   -5.256095    0.257782   -0.819369
 H   -2.123996    3.173804   -0.611107
 H   -6.546936    1.505791    0.878455
 H   -3.386470    4.401767    1.132291
 H   -5.604315    3.574658    1.882266
 H   -1.558117   -2.966920   -3.951223
 H   -1.227768   -3.884299   -2.449662
 H   -2.896443   -3.813766   -3.107587
