43 
1pqc_ligand_xtb.xyz
 O    2.749506   -0.926397    2.442727
 S    3.159368   -0.866723    1.079302
 O    4.555459   -0.848184    0.768413
 C    2.309924   -2.112507    0.120437
 C    2.841299   -2.488236   -1.097575
 C    2.120418   -3.351074   -1.907262
 C    0.878095   -3.808505   -1.494447
 C    0.358911   -3.426490   -0.266998
 C    1.080245   -2.572060    0.550868
 N    2.502596    0.548950    0.368578
 C    3.269229    1.115774   -0.704080
 C    3.195135    2.639856   -0.669271
 F    4.039477    3.175722   -1.564644
 F    3.512150    3.145900    0.520988
 F    1.976538    3.104941   -0.979632
 C    1.098562    0.568413    0.347198
 C    0.431208    0.571302    1.570146
 C   -0.945338    0.493331    1.614172
 C    0.355051    0.530886   -0.829450
 C   -1.024259    0.460081   -0.786424
 C   -1.680135    0.424485    0.437288
 C   -3.193780    0.289096    0.507530
 C   -3.882474    1.492519   -0.188633
 F   -5.210273    1.448800    0.013261
 F   -3.451784    2.640718    0.329496
 F   -3.692828    1.552695   -1.505480
 O   -3.615943    0.251700    1.833956
 C   -3.628220   -1.035650   -0.176570
 F   -3.487412   -1.048839   -1.501733
 F   -2.919050   -2.063518    0.298630
 F   -4.915930   -1.303093    0.083207
 H    3.811894   -2.114798   -1.384339
 H    2.524476   -3.661153   -2.858744
 H    0.313034   -4.470978   -2.132374
 H   -0.607122   -3.784182    0.052538
 H    0.710653   -2.262988    1.514618
 H    2.963871    0.788419   -1.706900
 H    4.308999    0.825468   -0.527071
 H    1.008051    0.610993    2.478527
 H   -1.461147    0.486003    2.559734
 H    0.836659    0.547802   -1.793458
 H   -1.569285    0.423241   -1.715966
 H   -4.581535    0.192890    1.895367
