33 
1pr5_ligand_xtb.xyz
 O    2.519748   -1.770138    1.667416
 C    3.543497   -1.602431    0.722595
 C    3.177584   -0.536808   -0.318918
 O    1.947098   -0.932199   -0.934993
 C    0.991856    0.085886   -0.838447
 N   -0.309285   -0.496332   -0.616195
 C   -0.657688   -1.813579   -0.790624
 C   -1.980275   -1.991002   -0.523025
 C   -2.499095   -0.716509   -0.169128
 C   -3.733911   -0.154596    0.209837
 N   -3.813043    1.154337    0.458769
 C   -2.723177    1.892262    0.352784
 N   -1.508469    1.501137    0.016997
 C   -1.419299    0.189949   -0.243220
 N   -4.858553   -0.881762    0.357870
 C    1.429778    0.999757    0.331225
 O    1.058364    2.330408    0.171832
 C    2.961448    0.860964    0.282275
 O    3.531970    1.830694   -0.548922
 H    1.712071   -1.975807    1.178487
 H    4.435972   -1.299683    1.271526
 H    3.745435   -2.547773    0.200500
 H    3.955348   -0.478341   -1.088703
 H    0.966603    0.683650   -1.769092
 H    0.085540   -2.519215   -1.102660
 H   -2.517666   -2.916899   -0.572798
 H   -2.841117    2.945897    0.567593
 H   -4.879523   -1.849674    0.097238
 H   -5.711832   -0.397522    0.571430
 H    1.047089    0.578404    1.273393
 H    0.073985    2.346050    0.121666
 H    3.392818    0.924614    1.290524
 H    2.958976    2.611155   -0.495977
