151 
1prl_ligand_dft.xyz
 N   -2.441824    1.025479   -2.397540
 C   -1.011411    1.398833   -2.681302
 C   -0.672916    2.486885   -1.652708
 O   -0.848305    3.670700   -1.910873
 C   -0.858096    1.877791   -4.107638
 N   -0.265308    2.009550   -0.449535
 C   -0.242036    2.789399    0.794804
 C   -1.681983    3.020627    1.288012
 O   -2.094598    2.496668    2.317510
 C    0.557117    4.105703    0.738293
 C    2.005799    3.935440    0.352829
 C    2.941024    3.472128    1.282928
 C    2.438651    4.253374   -0.936236
 C    4.281503    3.333395    0.933264
 C    3.779211    4.115091   -1.289197
 C    4.704174    3.653786   -0.356397
 N   -2.427202    3.821793    0.491130
 C   -3.864721    3.941636    0.632025
 C   -4.533794    3.010264   -0.390802
 O   -4.310593    3.167719   -1.589218
 C   -4.320071    5.376514    0.369403
 N   -5.417219    2.079632    0.067810
 C   -5.227924    1.373649    1.332869
 C   -3.880994    0.634954    1.267290
 O   -3.230556    0.673931    0.207026
 C   -6.409061    0.385363    1.331050
 C   -6.498352   -0.036572   -0.137507
 C   -6.093430    1.218428   -0.919218
 N   -3.488150   -0.136512    2.279405
 C   -2.207137   -0.866225    2.202833
 C   -2.281624   -2.157785    1.355837
 O   -1.645776   -3.158330    1.661653
 C   -1.852315   -1.133877    3.666743
 C   -3.208587   -1.142535    4.377237
 C   -3.976375   -0.033458    3.663568
 N   -3.050857   -2.060156    0.246999
 C   -3.140314   -3.066399   -0.792644
 C   -2.517528   -2.442401   -2.051714
 O   -3.184075   -1.668335   -2.750761
 C   -4.595547   -3.467693   -1.060302
 C   -5.379103   -3.850629    0.201046
 C   -6.833715   -4.152306   -0.165733
 C   -4.740671   -5.025979    0.946708
 N   -1.244966   -2.754217   -2.364354
 C   -0.233533   -3.233750   -1.437498
 C    0.239247   -2.088355   -0.521998
 O   -0.152842   -0.929796   -0.673389
 C    0.902791   -3.663428   -2.384097
 C    0.845134   -2.594561   -3.480153
 C   -0.647784   -2.277311   -3.621066
 N    1.158626   -2.455321    0.384082
 C    2.052188   -1.520243    1.051438
 C    3.469277   -2.067017    0.793191
 O    4.018534   -2.810877    1.594035
 C    1.764465   -1.348408    2.541692
 C    2.311740   -0.032268    3.116044
 C    3.794956    0.262212    2.880388
 N    4.659810   -0.689293    3.555354
 C    6.033406   -0.584165    3.398857
 N    6.716507   -1.661631    3.909253
 N    6.691313    0.361953    2.809706
 N    3.993082   -1.720899   -0.413068
 C    5.409209   -1.921284   -0.673197
 C    6.164903   -0.737705   -0.051580
 O    7.235421   -1.106602    0.611507
 C    5.740754   -2.234208   -2.153847
 C    4.892224   -1.628100   -3.284725
 C    5.053787   -0.131819   -3.585601
 N    4.433837    0.741846   -2.606588
 C    3.071946    0.775054   -2.432614
 N    2.703013    0.989861   -1.106173
 N    2.144776    0.566358   -3.305017
 O    5.757279    0.415841   -0.091445
 H   -3.094140    1.797198   -2.607272
 H   -2.718973    0.154667   -2.888316
 H   -2.597403    0.828601   -1.393619
 H   -0.408615    0.507759   -2.495898
 H   -1.223386    1.121624   -4.810163
 H    0.205540    2.034039   -4.297372
 H   -1.393723    2.817216   -4.266110
 H   -0.249440    0.994618   -0.342667
 H    0.214441    2.134839    1.541358
 H    0.076154    4.802894    0.051511
 H    0.488402    4.543401    1.741180
 H    2.621517    3.243264    2.298140
 H    1.717077    4.608513   -1.667019
 H    5.003008    2.989820    1.667633
 H    4.099585    4.359000   -2.297017
 H    5.748089    3.535424   -0.627066
 H   -2.028515    4.130797   -0.391394
 H   -4.100386    3.661581    1.657601
 H   -5.402193    5.465794    0.502731
 H   -3.823484    6.054995    1.067422
 H   -4.076427    5.670737   -0.655259
 H   -5.256269    2.042753    2.195781
 H   -6.264424   -0.463669    2.001157
 H   -7.310499    0.920266    1.643731
 H   -5.792265   -0.850105   -0.332923
 H   -7.493029   -0.394967   -0.409287
 H   -5.418253    0.987666   -1.746615
 H   -6.951034    1.757614   -1.330154
 H   -1.471430   -0.221823    1.708867
 H   -1.232831   -0.314276    4.044103
 H   -1.309694   -2.074237    3.769956
 H   -3.708682   -2.105226    4.225811
 H   -3.130630   -0.961941    5.450876
 H   -5.058826   -0.162755    3.717637
 H   -3.711917    0.955056    4.056344
 H   -3.341743   -1.129924   -0.024440
 H   -2.572301   -3.931385   -0.452567
 H   -4.596154   -4.309177   -1.766164
 H   -5.092817   -2.637267   -1.574018
 H   -5.372377   -2.980696    0.873759
 H   -7.423226   -4.382213    0.727868
 H   -7.302775   -3.300518   -0.671951
 H   -6.897149   -5.016307   -0.837894
 H   -3.739996   -4.784279    1.320565
 H   -5.352563   -5.315704    1.807500
 H   -4.659347   -5.901990    0.290708
 H   -0.593879   -4.058572   -0.817627
 H    0.673281   -4.655897   -2.783916
 H    1.873635   -3.707543   -1.884639
 H    1.377253   -1.688992   -3.168632
 H    1.281170   -2.938125   -4.420665
 H   -1.125233   -2.801554   -4.454453
 H   -0.822885   -1.207963   -3.758238
 H    1.326270   -3.441985    0.528909
 H    1.931168   -0.566555    0.529994
 H    0.679240   -1.365871    2.675569
 H    2.158378   -2.215721    3.081821
 H    1.754383    0.800288    2.665961
 H    2.110523   -0.003066    4.192385
 H    4.003260    0.313105    1.798262
 H    4.008357    1.259063    3.282627
 H    4.355605   -1.651467    3.440940
 H    7.714463   -1.519698    3.968904
 H    6.313862   -2.113512    4.717045
 H    6.068851    1.033287    2.369751
 H    3.550340   -0.912105   -0.841544
 H    5.707825   -2.786600   -0.080272
 H    7.411734   -0.414249    1.318649
 H    5.653029   -3.320665   -2.256178
 H    6.800392   -2.003681   -2.319699
 H    3.830062   -1.840847   -3.107704
 H    5.160976   -2.177122   -4.195315
 H    6.113989    0.136212   -3.636698
 H    4.639733    0.085016   -4.576266
 H    4.965763    0.837425   -1.744940
 H    1.780231    1.400613   -1.033832
 H    3.374306    1.527658   -0.566156
 H    2.546139    0.388727   -4.223138
