28 
1pxk_ligand_dft.xyz
 C   -4.055262   -2.680554    0.068304
 C   -3.251867   -1.418893    0.024860
 S   -1.523610   -1.426556    0.133889
 N   -3.784751   -0.236193   -0.101007
 C   -2.829490    0.752471   -0.110783
 C   -3.306551    2.165950   -0.270305
 C   -1.533131    0.309045    0.013592
 C   -0.255256    1.017582    0.044414
 N    0.831523    0.231544    0.003906
 C   -0.124907    2.408129    0.124247
 C    1.170351    2.909196    0.142255
 N    2.258825    2.148078    0.093034
 C    2.020050    0.830401    0.030641
 N    3.139512    0.035069   -0.009999
 C    3.135445   -1.338612   -0.082548
 N    4.184150   -2.069418   -0.119944
 O    5.331854   -1.259763   -0.074830
 H   -3.778861   -3.356691   -0.747170
 H   -3.905601   -3.214579    1.012291
 H   -5.111284   -2.422066   -0.028447
 H   -4.373119    2.149354   -0.501127
 H   -3.167804    2.745701    0.649631
 H   -2.781293    2.682812   -1.080019
 H   -0.972755    3.073585    0.186157
 H    1.342800    3.981732    0.202473
 H    4.034120    0.504245    0.012678
 H    2.170167   -1.826950   -0.110151
 H    6.045458   -1.906004   -0.109907
