35 
1pxo_ligand_dft.xyz
 N   -2.882075   -3.692306    0.256763
 C   -2.911419   -2.336557    0.126339
 N   -4.023709   -1.666328   -0.041717
 C   -3.773616   -0.319359   -0.087918
 C   -4.951256    0.586473   -0.297113
 S   -1.462362   -1.383894    0.236285
 C   -2.454497    0.049318    0.043962
 C   -1.784485    1.336109    0.021380
 N   -0.437368    1.275947    0.015811
 C   -2.435734    2.575617    0.017343
 C   -1.626832    3.702871   -0.005455
 N   -0.298841    3.661534   -0.019035
 C    0.227849    2.424711   -0.003098
 N    1.604885    2.423992   -0.005152
 C    2.538332    1.389913    0.011348
 C    3.890317    1.753498    0.123230
 C    2.211485    0.034217   -0.088937
 C    3.241795   -0.894894   -0.064627
 N    2.889449   -2.320811   -0.166430
 O    3.802099   -3.132501   -0.142769
 O    1.708559   -2.616253   -0.269393
 C    4.581752   -0.557180    0.047171
 C    4.892243    0.794812    0.139284
 H   -2.022140   -4.178805    0.054791
 H   -3.730560   -4.163137   -0.022486
 H   -5.831442   -0.024486   -0.504110
 H   -5.156492    1.189974    0.594553
 H   -4.791795    1.268600   -1.138671
 H   -3.510780    2.671189    0.047725
 H   -2.070984    4.696193   -0.009335
 H    1.975703    3.363364    0.006304
 H    4.154683    2.805109    0.201236
 H    1.185350   -0.285284   -0.181085
 H    5.341039   -1.327673    0.061163
 H    5.927960    1.105782    0.227530
