79 
1pyn_ligand_dft.xyz
 C   -0.901652   -2.141409   -0.902739
 C   -1.740256   -2.443043    0.165639
 C   -1.193062   -2.719971    1.419193
 C    0.177945   -2.691448    1.597870
 C    1.045799   -2.417073    0.536185
 C    0.481104   -2.149459   -0.707567
 C    3.236151   -1.148208    0.262924
 N    4.671076   -1.239710    0.475610
 C    5.546309   -0.528353   -0.284154
 C    2.646263    0.108881    0.935124
 N    2.902663    1.254401    0.262685
 C    2.292766    2.521511    0.615816
 C    1.651910    3.208372   -0.593342
 C   -0.222831    1.455660   -0.656828
 C    0.760442    2.297573   -1.447714
 O   -0.987379    2.316281    0.188779
 O    5.208135    0.167142   -1.233157
 O    6.796045   -0.720443    0.152913
 C   -3.791747   -2.370894   -1.091813
 O    1.990626    0.046525    1.967585
 C    2.542900   -2.416583    0.758075
 C   -4.199981   -0.900979   -1.253852
 C   -5.037757   -3.248016   -1.027273
 O   -5.389740   -3.913356   -0.094586
 O   -5.682069   -3.186965   -2.205756
 C   -1.859182    1.642110    1.003042
 C   -1.425300    0.806548    2.026761
 C   -2.378682    0.172586    2.818015
 C   -3.741004    0.342609    2.590496
 C   -4.168448    1.172675    1.559029
 C   -3.220740    1.833799    0.773956
 C   -3.649428    2.730877   -0.337985
 O   -3.750109    2.390706   -1.509625
 O   -3.913986    3.959515    0.063888
 C   -4.348554    4.873042   -0.948324
 O   -5.500701    1.340059    1.302269
 O   -5.239650   -0.467872   -0.800278
 O   -3.275934   -0.191665   -1.866404
 O   -3.106547   -2.503178    0.121654
 C    7.924936   -0.021078   -0.455697
 C    8.082166   -0.446386   -1.914000
 C    9.107168   -0.506371    0.378607
 C    7.748100    1.489202   -0.307599
 H   -1.295530   -1.868405   -1.874333
 H   -1.868015   -2.942259    2.238399
 H    0.588720   -2.878303    2.585833
 H    1.118904   -1.924782   -1.559652
 H    3.098802   -1.048195   -0.817897
 H    5.017400   -1.651437    1.329386
 H    3.530874    1.199686   -0.532579
 H    3.030272    3.190081    1.076794
 H    1.536945    2.301663    1.372675
 H    2.431656    3.634905   -1.237323
 H    1.060954    4.049145   -0.215944
 H    0.294223    0.709046   -0.045495
 H   -0.900774    0.913871   -1.329009
 H    0.212301    2.914731   -2.168467
 H    1.378799    1.603992   -2.030762
 H   -3.192622   -2.696694   -1.949226
 H    3.008602   -3.269586    0.249222
 H    2.738506   -2.527219    1.830110
 H   -6.484830   -3.724560   -2.114989
 H   -0.363075    0.646845    2.190516
 H   -2.048206   -0.483424    3.617460
 H   -4.486183   -0.171916    3.186695
 H   -4.522032    5.815450   -0.431592
 H   -5.268242    4.511423   -1.413011
 H   -3.576039    4.986946   -1.711999
 H   -5.693907    0.835148    0.490759
 H   -3.501310    0.783145   -1.801484
 H    9.000414   -0.011355   -2.322087
 H    7.236381   -0.110343   -2.515432
 H    8.160034   -1.536091   -1.984895
 H    8.969451   -0.243421    1.431707
 H    9.212818   -1.592681    0.301959
 H   10.030703   -0.041400    0.020637
 H    7.574780    1.747774    0.742079
 H    8.660718    1.995247   -0.638555
 H    6.910774    1.849095   -0.906902
