40 
1pzi_ligand_dft.xyz
 C    4.202072   -2.381307   -0.913788
 O    5.521151   -1.940420   -0.695513
 C    3.234136   -1.325758   -0.433404
 C    1.884181   -1.637931   -0.311802
 C    3.676375   -0.039586   -0.129018
 C    2.737670    0.891721    0.282213
 N    3.187587    2.258870    0.590375
 O    4.379897    2.499738    0.495171
 O    2.339674    3.075227    0.920788
 C    1.382152    0.616056    0.402954
 C    0.962020   -0.676636    0.102312
 O   -0.335565   -1.089095    0.165856
 C   -1.245759   -0.352359    0.946064
 O   -1.568820    0.882928    0.355514
 C   -2.148438    0.781506   -0.945792
 C   -2.360129    2.221941   -1.393054
 O   -3.207004    2.925474   -0.495610
 C   -3.432007   -0.058708   -0.939326
 O   -4.498387    0.529028   -0.221052
 C   -3.170193   -1.405997   -0.265224
 O   -4.364966   -2.139476   -0.097834
 C   -2.512196   -1.186018    1.099457
 O   -2.209826   -2.403665    1.724431
 H    3.998129   -3.323031   -0.381180
 H    4.015735   -2.566481   -1.983798
 H    6.123352   -2.579895   -1.089859
 H    1.517579   -2.638337   -0.524428
 H    4.722469    0.222846   -0.207650
 H    0.692807    1.394929    0.696106
 H   -0.796287   -0.112542    1.915128
 H   -1.435066    0.301428   -1.630203
 H   -2.851798    2.243920   -2.369096
 H   -1.388136    2.723046   -1.481416
 H   -2.764814    2.904445    0.365371
 H   -3.727807   -0.227081   -1.987326
 H   -4.406675    1.496566   -0.274026
 H   -2.506670   -2.018932   -0.882761
 H   -5.028139   -1.489458    0.183702
 H   -3.198293   -0.580645    1.711251
 H   -2.988044   -2.962328    1.583991
