40 
1pzi_ligand_xtb.xyz
 C    4.172792   -2.392924   -0.894230
 O    5.472742   -1.868461   -0.996054
 C    3.215354   -1.331135   -0.418994
 C    1.866965   -1.630818   -0.294649
 C    3.668147   -0.060187   -0.097273
 C    2.752845    0.884901    0.339241
 N    3.208714    2.216830    0.656354
 O    4.394793    2.444600    0.570565
 O    2.373624    3.033169    0.986548
 C    1.399518    0.600746    0.472633
 C    0.955260   -0.675195    0.154168
 O   -0.345621   -1.075774    0.221361
 C   -1.257254   -0.288088    0.940655
 O   -1.557264    0.915931    0.293225
 C   -2.148531    0.749250   -0.991824
 C   -2.384329    2.167661   -1.531124
 O   -3.202143    2.921668   -0.670824
 C   -3.445857   -0.073976   -0.916956
 O   -4.465537    0.547684   -0.172909
 C   -3.155261   -1.418262   -0.229063
 O   -4.317479   -2.187001   -0.082095
 C   -2.529871   -1.123434    1.144789
 O   -2.221524   -2.297233    1.839100
 H    4.144584   -3.232431   -0.181796
 H    3.826392   -2.769734   -1.869488
 H    6.073027   -2.563428   -1.282867
 H    1.493994   -2.613728   -0.536729
 H    4.712639    0.188797   -0.191016
 H    0.727786    1.377288    0.801734
 H   -0.834412   -0.002897    1.914150
 H   -1.448063    0.221254   -1.655306
 H   -2.901104    2.118240   -2.491758
 H   -1.414283    2.659458   -1.669753
 H   -2.747110    2.984485    0.179451
 H   -3.794962   -0.258710   -1.947233
 H   -4.409406    1.507126   -0.324938
 H   -2.454060   -2.014574   -0.821366
 H   -5.021300   -1.583264    0.194936
 H   -3.240498   -0.508436    1.723340
 H   -2.885609   -2.955168    1.588575
