74 
1pzj_ligand_xtb.xyz
 C   20.121649   25.530409   45.559003
 O   19.683062   26.539605   44.710291
 C   19.223535   26.212180   43.474430
 C   18.880015   27.283060   42.652496
 C   18.409673   27.033412   41.372865
 N   18.110001   28.142518   40.510295
 O   17.860861   27.891164   39.342655
 O   18.144938   29.262537   40.976819
 C   18.257322   25.738767   40.884740
 C   18.600871   24.675484   41.706742
 C   19.087693   24.915157   42.988146
 C   18.533264   23.240997   41.269076
 N   17.586181   22.961369   40.354524
 C   17.448335   21.654179   39.761520
 C   17.839229   21.647736   38.282692
 C   19.277678   22.126080   38.068276
 N   19.390087   23.577384   38.115384
 C   19.039995   24.189808   36.845821
 C   19.087910   25.708410   36.953603
 N   20.414675   26.148087   37.338781
 C   20.515027   27.595906   37.401305
 C   20.522760   28.236843   36.006825
 C   19.260525   29.046898   35.712884
 N   19.369720   29.662856   34.398521
 C   20.804725   25.518582   38.582647
 C   20.733778   23.999834   38.472104
 O   19.261455   22.400694   41.763618
 C   20.812783   26.213813   46.747206
 O   21.976933   26.825642   46.269123
 C   21.149104   25.169364   47.821971
 O   21.618165   25.883479   48.948869
 C   19.902058   24.347368   48.186923
 O   18.970495   25.147508   48.861609
 C   19.279982   23.771207   46.907533
 C   17.938434   23.083843   47.193009
 O   17.411398   22.483528   46.045625
 O   19.004674   24.785330   45.961553
 H   20.863491   24.879577   45.052509
 H   20.114477   26.952760   47.164986
 H   22.412405   27.254454   47.016428
 H   21.932385   24.505769   47.427319
 H   21.963785   25.262861   49.600644
 H   20.203516   23.503464   48.835016
 H   19.462788   25.835055   49.334993
 H   19.988169   23.047304   46.469683
 H   18.082307   22.288951   47.926622
 H   17.257144   23.838473   47.603390
 H   17.358298   23.160578   45.360257
 H   18.993478   28.295605   43.004725
 H   17.893030   25.596479   39.879719
 H   19.346033   24.054921   43.584810
 H   17.082177   23.712618   39.913770
 H   18.100616   20.986319   40.328718
 H   16.411879   21.316595   39.872649
 H   17.740718   20.628087   37.908087
 H   17.149609   22.279777   37.721195
 H   19.898655   21.711809   38.865535
 H   19.657621   21.734344   37.109044
 H   19.735430   23.867332   36.049424
 H   18.031095   23.882494   36.561500
 H   18.846914   26.136854   35.979788
 H   18.335395   26.061920   37.677862
 H   21.832861   25.809933   38.812883
 H   20.160195   25.841028   39.419691
 H   20.992492   23.561577   39.439177
 H   21.469583   23.661840   37.721535
 H   19.682620   28.013755   37.994724
 H   21.447521   27.832406   37.917858
 H   21.375457   28.908090   35.906208
 H   20.640078   27.451004   35.258436
 H   18.371280   28.403662   35.820298
 H   19.172793   29.853352   36.445821
 H   19.413898   28.947439   33.679633
 H   18.557817   30.240475   34.210583
