33 
1q3w_ligand_xtb.xyz
 N   -2.620920    1.691775   -0.578179
 C   -1.471503    2.344755   -0.226949
 C   -0.650717    1.694198    0.870647
 O   -1.170040    3.379800   -0.771589
 C   -2.443864   -0.676318    0.097171
 C   -3.189455    0.487542   -0.163007
 C   -4.582785    0.421174   -0.118088
 C   -5.234337   -0.753502    0.194237
 C   -4.501146   -1.901544    0.458190
 C   -3.124851   -1.857760    0.402954
 N   -0.238159   -1.744550   -0.346450
 C   -0.166558    0.381716    0.368431
 C   -0.998943   -0.660870    0.037866
 C    1.169119   -0.065027    0.156318
 C    1.076470   -1.411802   -0.299020
 C    2.207828   -2.164240   -0.603664
 C    3.435217   -1.568565   -0.444388
 C    3.531630   -0.243657    0.011263
 C    2.418024    0.521701    0.312913
 N    4.835308    0.332350    0.173337
 O    5.798507   -0.345406   -0.125891
 O    4.905319    1.465443    0.605395
 H   -3.216227    2.250306   -1.179971
 H   -1.288372    1.555704    1.748533
 H    0.179233    2.352268    1.121003
 H   -5.152886    1.312773   -0.336595
 H   -6.312508   -0.777102    0.229278
 H   -5.004316   -2.823896    0.703451
 H   -2.552824   -2.748328    0.619136
 H    2.122438   -3.181830   -0.951883
 H    4.347374   -2.101405   -0.661975
 H    2.538484    1.538528    0.652273
 H   -0.609066   -2.619546   -0.676770
