33 
1q3w_ligand_dft.xyz
 N   24.078043  -19.288703    7.161507
 C   22.706606  -19.485879    7.185945
 C   22.017517  -19.323402    8.530020
 O   22.120488  -19.781819    6.165517
 C   24.796395  -18.190802    9.268481
 C   25.015850  -19.066922    8.186169
 C   26.263868  -19.689490    8.057459
 C   27.281842  -19.452588    8.967021
 C   27.067059  -18.597004   10.046323
 C   25.833477  -17.983933   10.189715
 N   23.409549  -16.241174    9.989429
 C   22.275229  -17.969130    9.107382
 C   23.521322  -17.503663    9.427151
 C   21.340386  -16.938595    9.458150
 C   22.092652  -15.865562    9.998665
 C   21.494443  -14.679354   10.435705
 C   20.121529  -14.578557   10.337881
 C   19.377586  -15.648980    9.813976
 C   19.951699  -16.826509    9.371755
 N   17.922580  -15.508638    9.732671
 O   17.428742  -14.456427   10.112813
 O   17.281167  -16.450942    9.290842
 H   24.465750  -19.529034    6.258074
 H   22.381526  -20.108042    9.207612
 H   20.953811  -19.494215    8.359208
 H   26.427314  -20.367025    7.223760
 H   28.240014  -19.946366    8.840185
 H   27.851866  -18.419948   10.774247
 H   25.650106  -17.339229   11.045183
 H   24.187935  -15.626776   10.166182
 H   22.083654  -13.863455   10.841556
 H   19.600157  -13.686785   10.660735
 H   19.328835  -17.617054    8.970683
