52 
1q4x_ligand_xtb.xyz
 C    4.846224    1.233473   -1.279220
 C    5.055020    2.599161   -1.208017
 C    5.526559    3.169372   -0.038078
 C    5.787222    2.365844    1.058680
 C    5.578232    1.000173    0.985485
 C    5.108350    0.419582   -0.184968
 C    4.838972   -1.062118   -0.249090
 C    3.400163   -1.310443    0.121328
 C    2.403161   -1.300287   -0.838888
 C    3.039160   -1.505559    1.457258
 O    4.019211   -1.521059    2.407600
 C    1.704510   -1.688105    1.790218
 C    0.725468   -1.672014    0.813928
 C    1.063881   -1.477443   -0.516833
 C    0.012843   -1.479882   -1.600482
 C   -1.288023   -0.878766   -1.138958
 C   -2.397197   -1.674989   -0.855827
 C   -2.352992   -3.169197   -1.002923
 C   -3.583173   -1.089326   -0.425044
 C   -1.373269    0.507778   -0.966983
 C   -0.196533    1.392243   -1.246339
 C   -2.559917    1.074290   -0.537226
 C   -3.669332    0.282416   -0.268909
 O   -4.796828    0.955374    0.147977
 C   -5.968123    0.224747    0.422909
 C   -7.073059    1.209995    0.827937
 O   -6.703728    2.483875    0.808386
 O   -8.171106    0.846210    1.131702
 H    4.481130    0.795010   -2.197270
 H    4.850718    3.220350   -2.068351
 H    5.691495    4.235492    0.017798
 H    6.156502    2.805026    1.974320
 H    5.777866    0.374323    1.842503
 H    5.486027   -1.585955    0.454673
 H    5.026645   -1.432427   -1.258311
 H    2.681392   -1.150330   -1.872606
 H    3.622165   -1.674492    3.272846
 H    1.430432   -1.840414    2.826538
 H   -0.308531   -1.802690    1.095615
 H   -0.142170   -2.508229   -1.930907
 H    0.389256   -0.919732   -2.459289
 H   -2.223838   -3.449533   -2.048181
 H   -1.528504   -3.593864   -0.432638
 H   -3.279284   -3.613916   -0.647947
 H   -4.429022   -1.724907   -0.213815
 H    0.672308    1.070257   -0.674683
 H    0.067588    1.355692   -2.303053
 H   -0.423194    2.422792   -0.987161
 H   -2.640984    2.141938   -0.402438
 H   -5.822144   -0.483961    1.248604
 H   -6.315251   -0.333033   -0.456922
 H   -5.769877    2.551726    0.535606
