33 
1q5k_ligand_dft.xyz
 C    2.331690   -0.845106   -0.698825
 S    2.813175    0.139157    0.651360
 N    3.160427   -0.917720   -1.713406
 N    1.143862   -1.530813   -0.747103
 C    4.256117    0.477429   -0.260425
 C    4.263177   -0.160474   -1.462387
 C    0.197211   -1.532103    0.273890
 N    5.273593    1.331329    0.255812
 N   -0.908772   -2.282865    0.010863
 O    0.395983   -0.920870    1.312414
 O    6.261962    1.520285   -0.440386
 O    5.083311    1.817527    1.365416
 C   -2.064253   -2.220212    0.905923
 C   -3.055012   -1.145584    0.523128
 C   -4.247096   -1.464303   -0.132818
 C   -2.781204    0.196239    0.784193
 C   -5.138981   -0.476211   -0.518793
 C   -3.664502    1.201848    0.401843
 C   -4.851550    0.866297   -0.254430
 O   -5.781959    1.760520   -0.669172
 C   -5.545787    3.128879   -0.420481
 H    1.032745   -2.097014   -1.577572
 H    5.061811   -0.096297   -2.189834
 H   -1.111829   -2.502269   -0.954273
 H   -1.666300   -2.050661    1.908113
 H   -2.541650   -3.204811    0.898080
 H   -4.487288   -2.504952   -0.340561
 H   -1.859239    0.461527    1.294619
 H   -6.067762   -0.718707   -1.024314
 H   -3.419078    2.233663    0.625114
 H   -5.469199    3.335062    0.654659
 H   -4.634024    3.477784   -0.921889
 H   -6.406010    3.660747   -0.828138
