40 
1q65_ligand_dft.xyz
 N    2.043253    2.027836    1.749854
 C    0.817307    1.339396    1.522020
 C    0.778708   -0.040441    1.785541
 C   -0.225356   -0.854399    1.297158
 C   -1.330949   -0.266107    0.627483
 N   -2.347657   -1.080361    0.188702
 C   -3.336181   -0.514761   -0.436880
 N   -4.352694   -1.269128   -0.928241
 N   -3.402940    0.838418   -0.684485
 C   -2.419881    1.750562   -0.303431
 O   -2.505184    2.927073   -0.593425
 C   -1.313567    1.124726    0.431775
 C   -0.238754    1.921994    0.849261
 C   -0.034202   -2.338984    1.291005
 S    0.771922   -2.908063   -0.273390
 C    2.211470   -1.791634   -0.373294
 C    1.894461   -0.512541   -1.157060
 N    2.817575    0.644933   -0.849603
 C    2.428097    1.842231   -1.650600
 C    4.255790    0.311314   -1.042598
 H    2.464429    1.786698    2.642696
 H    1.929325    3.036694    1.718766
 H    1.611202   -0.493281    2.321689
 H   -4.350383   -2.233970   -0.631630
 H   -5.259426   -0.858891   -1.090958
 H   -4.160715    1.229999   -1.230771
 H   -0.265914    2.984553    0.621101
 H   -0.989197   -2.867142    1.300788
 H    0.571842   -2.672674    2.137041
 H    3.000356   -2.363704   -0.868451
 H    2.564144   -1.564262    0.636793
 H    0.888079   -0.155492   -0.940458
 H    1.970009   -0.690761   -2.233764
 H    2.686252    0.938108    0.140810
 H    2.577563    1.627021   -2.709853
 H    1.378451    2.063356   -1.452512
 H    3.049700    2.684941   -1.346305
 H    4.532904   -0.503670   -0.374649
 H    4.411749    0.012245   -2.080830
 H    4.855934    1.192631   -0.813736
