40 
1q65_ligand_xtb.xyz
 N   -3.701393    2.565698   -0.817876
 C   -2.766567    1.711905   -0.320938
 C   -1.594647    2.203231    0.279527
 C   -0.582741    1.373602    0.722330
 C   -0.710101   -0.015038    0.535268
 N    0.344131   -0.859612    0.845427
 C    0.122926   -2.139167    0.886662
 N    1.161378   -2.977807    1.164790
 N   -1.073097   -2.692148    0.550596
 C   -2.132851   -1.964221   -0.009327
 O   -3.101001   -2.541977   -0.434077
 C   -1.916657   -0.518332    0.016893
 C   -2.926226    0.331652   -0.413670
 C    0.523332    1.981608    1.530958
 S    2.232282    1.448820    1.210550
 C    2.479116    2.010173   -0.511463
 C    1.873351    1.038536   -1.520414
 N    2.050744   -0.372598   -1.115022
 C    3.460271   -0.743741   -0.942805
 C    1.392783   -1.268396   -2.073319
 H   -3.674936    3.531574   -0.540472
 H   -4.604121    2.194012   -1.058541
 H   -1.505146    3.270065    0.428327
 H    1.924717   -2.563009    1.677655
 H    0.937676   -3.922283    1.437351
 H   -1.215167   -3.693552    0.613898
 H   -3.835686   -0.101149   -0.799550
 H    0.384599    1.714298    2.581098
 H    0.507229    3.068531    1.445993
 H    3.556547    2.102808   -0.637554
 H    2.032926    2.996009   -0.626307
 H    2.329727    1.190421   -2.503081
 H    0.799056    1.220028   -1.601806
 H    1.529533   -0.483915   -0.144760
 H    4.021668   -0.527602   -1.851196
 H    3.892198   -0.194809   -0.109920
 H    3.530526   -1.807903   -0.729774
 H    0.341457   -1.004813   -2.175643
 H    1.870698   -1.192735   -3.049775
 H    1.463737   -2.296898   -1.725745
