39 
1q66_ligand_xtb.xyz
 C   -3.319587   -3.139813   -0.298308
 N   -2.749639   -3.839700    0.913660
 C   -2.661797   -1.797762   -0.402231
 C   -1.332472   -1.728136   -0.835732
 C   -0.634153   -0.542076   -0.850484
 C   -1.279834    0.646042   -0.434472
 N   -0.591849    1.813867   -0.454324
 C   -1.199508    2.898899   -0.075388
 N   -0.531698    4.061342   -0.090052
 N   -2.499131    2.917302    0.354172
 C   -3.302365    1.785044    0.433852
 O   -4.435637    1.852758    0.847265
 C   -2.623524    0.568854   -0.014053
 C   -3.300578   -0.646803    0.012052
 C    0.810051   -0.526461   -1.210169
 S    1.699361   -1.456806    0.117821
 C    3.280396   -0.655104    0.159248
 C    3.878575   -0.162635   -0.990547
 C    5.120022    0.442410   -0.902811
 C    5.768645    0.540635    0.316513
 C    5.172394    0.029704    1.458027
 C    3.926731   -0.565165    1.384843
 H   -4.397845   -3.046555   -0.172360
 H   -3.106476   -3.758367   -1.171064
 H   -3.102895   -4.798926    1.014843
 H   -1.723147   -3.854471    0.824697
 H   -2.983063   -3.299686    1.756971
 H   -0.825988   -2.625830   -1.163850
 H    0.417553    4.059751   -0.418323
 H   -0.963736    4.930550    0.166261
 H   -2.929706    3.786750    0.647963
 H   -4.324968   -0.649758    0.353646
 H    1.187888    0.492458   -1.216454
 H    0.997023   -1.027153   -2.160279
 H    3.390789   -0.252518   -1.949113
 H    5.584123    0.829210   -1.797462
 H    6.738412    1.009769    0.376034
 H    5.674896    0.098960    2.410666
 H    3.450705   -0.962823    2.268339
