39 
1q66_ligand_dft.xyz
 C   -2.770058   -3.485435   -0.398865
 N   -2.486486   -4.019005    1.013208
 C   -2.336863   -2.059388   -0.459303
 C   -0.981245   -1.749218   -0.681744
 C   -0.503835   -0.454431   -0.633215
 C   -1.417185    0.603883   -0.362916
 N   -0.947287    1.886486   -0.323530
 C   -1.803646    2.838841   -0.074744
 N   -1.374017    4.115689    0.004948
 N   -3.142934    2.619778    0.144654
 C   -3.733901    1.356024    0.127925
 O   -4.919393    1.213285    0.346031
 C   -2.776263    0.281654   -0.159593
 C   -3.231331   -1.034547   -0.198917
 C    0.963685   -0.182787   -0.794765
 S    1.812225   -0.767030    0.730878
 C    3.489809   -0.281060    0.356886
 C    4.329712   -1.140631   -0.354112
 C    5.635254   -0.754678   -0.641586
 C    6.105631    0.485187   -0.216466
 C    5.270731    1.340755    0.497606
 C    3.963363    0.960609    0.785441
 H   -3.841488   -3.619862   -0.558031
 H   -2.216060   -4.140489   -1.074734
 H   -2.741958   -5.005059    1.131370
 H   -1.489889   -3.911723    1.232140
 H   -3.002329   -3.463369    1.703609
 H   -0.273292   -2.549609   -0.896217
 H   -0.411237    4.282231   -0.245266
 H   -2.007043    4.898698   -0.020781
 H   -3.769444    3.383016    0.370557
 H   -4.290961   -1.214116   -0.031198
 H    1.142794    0.885125   -0.917455
 H    1.372482   -0.720755   -1.654690
 H    3.960692   -2.110118   -0.675184
 H    6.287022   -1.424616   -1.193678
 H    7.125698    0.782937   -0.438159
 H    5.638727    2.304814    0.834623
 H    3.307741    1.619774    1.346044
