44 
1q7a_ligand_xtb.xyz
 C    3.030636   -2.609000    0.231078
 C    2.004447   -1.781075    0.646068
 C    0.744702   -1.906417    0.068998
 C    0.514889   -2.871565   -0.905644
 C    1.546718   -3.703724   -1.298468
 C    2.806972   -3.569879   -0.740484
 C    2.362709    1.706266   -1.354639
 C    2.961396    2.656428   -0.531321
 C    2.535497    2.786211    0.785792
 C    1.539062    1.968667    1.282852
 C    0.947181    1.020645    0.457609
 C    1.356223    0.899917   -0.867566
 C   -4.100626    1.607544   -2.714853
 C   -4.427442    1.087399   -1.320594
 C   -3.174663    0.613404   -0.588363
 C   -3.499705    0.121404    0.820637
 N   -0.319364   -1.077878    0.472239
 C   -1.571792   -1.519682    0.812600
 C   -2.248990   -0.385961    1.555980
 C   -1.187447    0.692287    1.635140
 N   -0.087662    0.214426    0.971808
 O   -2.020473   -2.611205    0.561435
 O   -1.273192    1.781323    2.148054
 O    3.947557    3.429366   -1.054148
 H    4.008066   -2.506379    0.677746
 H    2.180286   -1.046134    1.416634
 H   -0.468338   -2.974341   -1.334195
 H    1.364760   -4.455962   -2.050911
 H    3.611733   -4.215287   -1.057826
 H    2.693464    1.621946   -2.376948
 H    2.989664    3.527910    1.428561
 H    1.205479    2.074775    2.301654
 H    0.887838    0.178717   -1.519304
 H   -5.004768    1.934012   -3.222990
 H   -3.632874    0.828591   -3.313313
 H   -3.416273    2.451251   -2.655591
 H   -5.134259    0.258292   -1.396762
 H   -4.904564    1.879780   -0.740044
 H   -2.712064   -0.195829   -1.160056
 H   -2.460441    1.439423   -0.531611
 H   -3.934612    0.936627    1.401609
 H   -4.221130   -0.696095    0.767242
 H   -2.539324   -0.721816    2.555387
 H    4.266798    4.051610   -0.389264
