64 
1qbo_ligand_xtb.xyz
 N   -7.110725   -3.089114   -1.775302
 C   -6.785241   -3.171931   -0.552914
 N   -7.190318   -4.155577    0.315841
 C   -5.937466   -2.105037    0.019399
 C   -5.062392   -1.434482   -0.799738
 C   -4.233542   -0.413252   -0.298591
 C   -3.324732    0.282078   -1.120376
 C   -2.526028    1.276250   -0.616728
 C   -2.609832    1.607157    0.748045
 C   -3.479080    0.948656    1.572075
 C   -4.313441   -0.073033    1.077637
 C   -5.232001   -0.763928    1.895100
 C   -6.021482   -1.753573    1.383707
 C   -1.579616    2.010087   -1.544845
 N   -0.627475    2.836740   -0.862444
 C   -0.729596    4.177628   -0.572535
 C   -1.881754    5.000974   -1.014003
 N    0.275552    4.629412    0.115902
 C    1.103203    3.553890    0.325280
 C    2.307422    3.448484    1.003275
 C    2.922170    2.213493    1.064156
 C    2.356335    1.080277    0.464761
 C    1.147707    1.168714   -0.218689
 C    0.539690    2.406732   -0.280597
 O    2.895524   -0.176293    0.496986
 C    4.132024   -0.414168    1.145736
 C    5.319039    0.037647    0.280912
 C    5.399360   -0.820342   -0.986748
 N    5.530847   -2.219058   -0.645368
 C    4.358432   -2.673382    0.070927
 C    4.212117   -1.924295    1.398101
 C    6.749214   -2.839930   -0.488164
 N    6.981461   -3.938625    0.097964
 C    7.935593   -2.188509   -1.146408
 H   -7.695831   -3.851391   -2.109524
 H   -7.648870   -4.964125   -0.072582
 H   -6.679252   -4.305337    1.168660
 H   -5.020374   -1.699891   -1.844659
 H   -3.269962    0.018112   -2.167261
 H   -1.978225    2.386492    1.148644
 H   -3.536910    1.208323    2.619409
 H   -5.303897   -0.491423    2.938593
 H   -6.738455   -2.251374    2.020309
 H   -2.162718    2.637300   -2.228013
 H   -1.031818    1.279174   -2.150425
 H   -1.926129    5.052591   -2.102076
 H   -2.818628    4.581714   -0.647816
 H   -1.758550    6.004720   -0.619590
 H    2.751647    4.311633    1.471796
 H    3.856702    2.136066    1.596928
 H    0.720041    0.283080   -0.661079
 H    4.151569    0.106982    2.114384
 H    6.237046   -0.071776    0.861865
 H    5.202232    1.085953    0.002866
 H    6.226410   -0.494450   -1.614030
 H    4.469963   -0.697164   -1.554179
 H    4.412996   -3.749879    0.241190
 H    3.481232   -2.472881   -0.551540
 H    3.307251   -2.250665    1.911364
 H    5.074702   -2.132040    2.033985
 H    6.192739   -4.389755    0.549412
 H    8.782894   -2.855619   -1.023154
 H    7.755396   -2.033980   -2.208154
 H    8.170584   -1.233742   -0.680019
