80 
1qbs_ligand_dft.xyz
 C   -0.464781    0.620458   -0.674824
 C    0.921525   -0.521469    1.066123
 C    1.202380    0.562403    2.112320
 C   -0.000504    1.420088    2.462220
 C   -0.577175    2.188566    1.270156
 C    1.530046   -0.538722   -1.349966
 C    3.001338   -0.553344   -1.014717
 C    3.702764   -1.755661   -0.934484
 C    5.059162   -1.770826   -0.619556
 C    5.742783   -0.580885   -0.375568
 C    5.042276    0.624949   -0.457568
 C    3.688678    0.638403   -0.769703
 C    7.212840   -0.600459   -0.008893
 C   -0.170667   -1.529627    1.470421
 C   -0.188203   -2.712992    0.535312
 C    0.788228   -3.707730    0.632610
 C    0.834229   -4.753936   -0.283484
 C   -0.103108   -4.820106   -1.312513
 C   -1.085166   -3.838638   -1.411834
 C   -1.127228   -2.793086   -0.493627
 C    0.408852    3.193230    0.641234
 C   -0.309563    4.194706   -0.229451
 C   -0.845367    5.355958    0.333411
 C   -1.569267    6.256445   -0.441670
 C   -1.769665    6.006377   -1.796684
 C   -1.239931    4.852845   -2.368053
 C   -0.513299    3.955582   -1.590285
 C   -2.589312    1.578990   -0.120355
 C   -3.406279    0.307123   -0.166161
 C   -3.723531   -0.363682    1.017762
 C   -4.394728   -1.579117    0.992462
 C   -4.777976   -2.147887   -0.224492
 C   -4.491528   -1.464237   -1.404675
 C   -3.803968   -0.253372   -1.377737
 C   -5.449425   -3.503913   -0.255130
 N    0.735672    0.060013   -0.269441
 N   -1.205788    1.297390    0.287809
 O   -0.856323    0.525100   -1.833150
 O    1.620533   -0.011643    3.346742
 O    0.354878    2.368397    3.444452
 O    7.921704   -1.681144   -0.576380
 O   -6.292146   -3.743660    0.852946
 H    1.856331   -1.087028    0.993883
 H    1.995958    1.212277    1.716709
 H   -0.794385    0.758873    2.843949
 H   -1.391057    2.779884    1.698859
 H    1.180083   -1.555188   -1.567867
 H    1.346045    0.055995   -2.246287
 H    3.175219   -2.690723   -1.108437
 H    5.598054   -2.711860   -0.561020
 H    5.563498    1.564282   -0.285558
 H    3.157058    1.584651   -0.837089
 H    7.327613   -0.721123    1.073775
 H    7.671621    0.365145   -0.272769
 H   -1.150554   -1.046752    1.473074
 H    0.044310   -1.847713    2.496539
 H    1.525452   -3.658072    1.431671
 H    1.598783   -5.520452   -0.192683
 H   -0.068709   -5.633816   -2.030941
 H   -1.821373   -3.877725   -2.209522
 H   -1.883145   -2.020374   -0.591426
 H    1.161105    2.652427    0.057897
 H    0.927220    3.699336    1.461425
 H   -0.692938    5.552126    1.392608
 H   -1.977009    7.154842    0.012891
 H   -2.336515    6.706198   -2.403643
 H   -1.393095    4.647754   -3.423579
 H   -0.126183    3.046009   -2.041729
 H   -3.008868    2.261807    0.622603
 H   -2.610164    2.088237   -1.088400
 H   -3.420469    0.066006    1.970741
 H   -4.625586   -2.101571    1.916014
 H   -4.792095   -1.889602   -2.359760
 H   -3.544225    0.248332   -2.304353
 H   -5.989597   -3.627863   -1.206783
 H   -4.687874   -4.290041   -0.213939
 H    2.518847   -0.344539    3.235841
 H    0.886670    1.879984    4.089206
 H    7.824735   -1.619222   -1.534820
 H   -6.949703   -3.037325    0.871845
