85 
1qca_ligand_xtb.xyz
 C   -4.023936    1.200653    0.927729
 C   -5.551535    1.217425    0.927397
 C   -6.132320    0.396022   -0.224282
 C   -5.574866   -1.041701   -0.188714
 C   -4.035827   -1.014670   -0.223486
 C   -3.459665   -2.433334   -0.311719
 C   -1.954515   -2.505794   -0.014334
 C   -1.245404   -1.158321   -0.207383
 C   -1.851855   -0.188328    0.845562
 C   -3.422861   -0.216421    0.948048
 C   -1.181719    1.201050    0.819215
 C    0.335698    1.070764    1.052437
 C    0.925153    0.106773    0.036503
 C    0.274911   -1.290971    0.121532
 C    1.121833   -2.091723   -0.885884
 C    2.544300   -1.535340   -0.724516
 C    2.397956   -0.188030   -0.025635
 C   -6.164405   -1.829601   -1.359447
 C   -3.765824   -0.865715    2.299377
 C   -1.437616   -0.681379   -1.664247
 C    0.575695   -1.925221    1.489718
 C    3.463338    0.482946    0.407891
 C    3.540319    1.749402    1.212105
 C    3.781797    2.981111    0.318159
 C    2.628757    3.249361   -0.597473
 C    1.773573    4.265343   -0.558247
 C    0.699138    4.413586   -1.600318
 C    1.774750    5.369163    0.457450
 C    4.824234   -0.050223    0.076347
 C    4.469543   -2.909826   -0.349531
 C    5.146731   -3.732519    0.710137
 O   -1.448920    1.907274   -0.375737
 O    3.317915   -2.415726    0.106326
 O    4.911693   -2.699698   -1.450182
 O    5.608809   -0.497632    0.873342
 O    5.090569    0.069439   -1.224342
 O   -5.925464    1.027354   -1.467389
 H   -3.656415    1.731510    0.048603
 H   -3.688252    1.754458    1.806248
 H   -5.939516    0.831475    1.870184
 H   -5.894880    2.249936    0.828448
 H   -7.223876    0.353540   -0.124865
 H   -5.918911   -1.508516    0.738323
 H   -3.768748   -0.489468   -1.140733
 H   -3.648702   -2.818343   -1.313984
 H   -3.992621   -3.083662    0.384650
 H   -1.490712   -3.254107   -0.659439
 H   -1.811946   -2.830510    1.015351
 H   -1.526585   -0.582362    1.809560
 H   -1.579299    1.786322    1.666246
 H    0.521228    0.735017    2.071698
 H    0.775717    2.062888    0.927713
 H    0.682714    0.525681   -0.949051
 H    1.114226   -3.158190   -0.666347
 H    0.793653   -1.958595   -1.913467
 H    3.065272   -1.445017   -1.685012
 H   -5.920170   -2.885549   -1.292680
 H   -5.797449   -1.437093   -2.304550
 H   -7.247795   -1.730874   -1.354863
 H   -3.352618   -0.268615    3.111023
 H   -3.355041   -1.868330    2.369310
 H   -4.837786   -0.933275    2.452532
 H   -0.494612   -0.540129   -2.183215
 H   -1.947135    0.273900   -1.695709
 H   -2.005451   -1.408917   -2.236543
 H    0.065258   -1.446231    2.318632
 H    0.303372   -2.977362    1.487569
 H    1.644197   -1.861913    1.679254
 H    2.641558    1.894773    1.804879
 H    4.386839    1.648048    1.896808
 H    3.987487    3.837654    0.959670
 H    4.670021    2.798701   -0.292518
 H    2.514580    2.507822   -1.378214
 H    0.595895    3.513350   -2.201171
 H   -0.260166    4.656342   -1.142947
 H    0.950297    5.237585   -2.268850
 H    1.865357    6.332259   -0.043769
 H    2.582862    5.275784    1.174980
 H    0.830940    5.372074    1.003919
 H    5.727227   -3.048244    1.328042
 H    5.816715   -4.451905    0.249587
 H    4.409641   -4.226708    1.334999
 H   -0.824914    2.638644   -0.441745
 H    5.926963   -0.366932   -1.457455
 H   -4.977500    1.168094   -1.573597
