48 
1qfs_ligand_dft.xyz
 C    3.081255   -2.186747   -0.456113
 C    4.195979   -1.445806   -0.066948
 C    4.083841   -0.505163    0.951814
 C    2.854113   -0.310148    1.579193
 C    1.742365   -1.047715    1.187778
 C    1.850023   -1.997817    0.168837
 C    0.648891   -2.814672   -0.230821
 O   -0.436019   -1.935112   -0.528832
 C   -1.623677   -2.177950    0.093712
 O   -1.853041   -3.146565    0.787633
 N   -2.499447   -1.185585   -0.186782
 C   -2.130827    0.041069   -0.876650
 C   -1.119900    0.853254   -0.054260
 O   -1.367153    1.074297    1.135605
 C   -3.474083    0.794938   -0.952737
 C   -4.232430    0.327135    0.296114
 C   -3.816504   -1.139518    0.445911
 C    1.979174    2.515466   -1.026315
 C    1.974338    1.255193   -1.886975
 C    0.282660    3.543265    0.583709
 O   -0.202417    3.433462    1.891387
 N   -0.043831    1.366001   -0.681402
 C    0.489549    0.900987   -1.970577
 C    0.903992    2.252028    0.031019
 H    3.171527   -2.918752   -1.255173
 H    5.149072   -1.602189   -0.563337
 H    4.950245    0.072967    1.258919
 H    2.760316    0.420495    2.377518
 H    0.782026   -0.872995    1.666174
 H    0.858168   -3.405976   -1.127905
 H    0.333974   -3.493914    0.565935
 H   -1.750671   -0.182139   -1.873972
 H   -3.337812    1.878771   -0.992219
 H   -3.999477    0.485412   -1.862589
 H   -3.894957    0.896511    1.164123
 H   -5.314296    0.442541    0.194403
 H   -3.742521   -1.461870    1.486772
 H   -4.503429   -1.818526   -0.073503
 H    1.699671    3.391190   -1.627950
 H    2.948013    2.719415   -0.563860
 H    2.515745    0.450888   -1.378966
 H    2.419404    1.400728   -2.874663
 H   -0.487393    3.888471   -0.129597
 H    1.065267    4.310442    0.608359
 H   -0.747075    2.626235    1.902111
 H    0.334849   -0.172927   -2.084885
 H    0.000847    1.425607   -2.801936
 H    1.327936    1.701249    0.877044
