17 
1qft_ligand_dft.xyz
 N    3.208920   -0.214466   -0.014144
 C    1.739127   -0.216495   -0.450663
 C    0.925609    0.768434    0.368643
 C   -0.497772    0.349633    0.176063
 N   -0.807275   -0.980286    0.280653
 C   -1.636927    1.070295   -0.135848
 C   -2.127811   -0.978167    0.032513
 N   -2.689923    0.214046   -0.222846
 H    3.768888   -0.909360   -0.513018
 H    3.631471    0.706281   -0.155343
 H    3.254770   -0.422128    0.987310
 H    1.341925   -1.219234   -0.265333
 H    1.729091    0.004212   -1.519076
 H    1.095180    1.802566    0.043814
 H    1.241477    0.697112    1.427876
 H   -1.749455    2.139525   -0.289876
 H   -2.708753   -1.896238    0.033755
