88 
1qiw_ligand_dft.xyz
 C    2.138967   -1.333417   -1.647156
 C    3.146649   -2.304692   -1.589066
 C    4.470425   -1.956394   -1.355589
 C    4.819240   -0.618459   -1.175253
 C    3.829605    0.353885   -1.232061
 C    2.499788    0.001238   -1.462975
 C    0.306248   -2.889627   -0.940601
 C    0.334583   -2.667722    0.440362
 C   -0.059736   -3.664228    1.323984
 C   -0.489862   -4.901652    0.844609
 C   -0.520337   -5.132568   -0.525955
 C   -0.121098   -4.131053   -1.411317
 C    0.700454   -1.782753   -1.905846
 C   -0.305388   -0.617025   -1.910037
 C   -1.767995   -0.995425   -2.154643
 N   -2.440835   -1.491608   -0.959657
 C   -3.884997   -1.630101   -1.109284
 C   -4.614185   -0.312239   -0.853726
 C   -6.125884   -0.437374   -1.001282
 N   -6.778852    0.828766   -0.667669
 C   -3.717041    1.673944    2.117710
 C   -4.947533    2.522897    1.988296
 C   -2.566811    1.791156    1.433259
 C   -1.477595    0.745460    1.572246
 C   -0.081929    1.224200    1.262226
 C    0.104730    2.313555    0.489700
 C   -1.048221    3.085187    0.034209
 C   -2.300428    2.852107    0.462602
 O    0.837929    0.343716    1.717166
 C    2.203016    0.698519    1.947438
 C    2.970625   -0.594529    2.156382
 C    2.447391   -1.458468    3.303716
 C    3.120337   -2.828614    3.342375
 O    1.342450    2.698306    0.014416
 C    1.851848    3.896575    0.584014
 C    3.186345    4.201756   -0.074871
 C    3.123645    4.287611   -1.603457
 C    2.149207    5.343357   -2.124029
 H    2.881944   -3.351708   -1.715442
 H    5.231792   -2.729779   -1.311005
 H    5.853182   -0.342506   -0.989700
 H    4.079223    1.401372   -1.086294
 H    1.755101    0.788740   -1.470238
 H    0.643464   -1.698540    0.820684
 H   -0.034317   -3.472914    2.393271
 H   -0.799245   -5.678588    1.537486
 H   -0.853559   -6.091845   -0.911791
 H   -0.150679   -4.315430   -2.482937
 H    0.681182   -2.221254   -2.914383
 H   -0.251148   -0.068993   -0.965011
 H    0.000349    0.083056   -2.696969
 H   -2.293128   -0.087000   -2.468718
 H   -1.839817   -1.705278   -3.002034
 H   -2.042262   -2.385538   -0.697126
 H   -1.704190   -0.082064    0.874425
 H   -4.226462   -2.366024   -0.371563
 H   -4.163752   -2.028543   -2.103737
 H   -4.247261    0.459096   -1.545846
 H   -4.373364    0.039620    0.153579
 H   -6.366275   -0.802683   -2.016234
 H   -6.495768   -1.195708   -0.299631
 H   -7.784960    0.744998   -0.782603
 H   -6.474211    1.548724   -1.318150
 H   -3.797834    0.841698    2.817976
 H   -5.703519    2.012525    1.373532
 H   -5.392290    2.707945    2.972752
 H   -4.743876    3.495763    1.531949
 H   -1.476781    0.311688    2.577502
 H   -0.844083    3.875338   -0.684421
 H   -3.117392    3.471899    0.108288
 H    2.604560    1.241683    1.093592
 H    2.242911    1.345492    2.836361
 H    2.940886   -1.163714    1.219043
 H    4.025016   -0.339920    2.326456
 H    2.599121   -0.935572    4.257676
 H    1.364927   -1.585259    3.190791
 H    4.206248   -2.733141    3.459460
 H    2.930529   -3.374417    2.410877
 H    2.745382   -3.436767    4.172416
 H    1.976023    3.762653    1.668377
 H    1.136778    4.717767    0.433334
 H    3.557099    5.149331    0.338264
 H    3.906752    3.427533    0.218420
 H    2.842939    3.308370   -2.006729
 H    4.131268    4.503665   -1.978701
 H    2.349255    6.325344   -1.678543
 H    1.112092    5.075624   -1.895131
 H    2.228539    5.446322   -3.210809
