44 
1qku_ligand_xtb.xyz
 C    2.642075   -1.479427   -0.415022
 C    3.998820   -1.439580   -0.157494
 C    4.595976   -0.240415    0.203045
 O    5.928521   -0.138543    0.473636
 C    3.812562    0.900590    0.283409
 C    2.450377    0.860428    0.023558
 C    1.681955    2.148782    0.143812
 C    0.297897    2.066666   -0.485504
 C   -0.381004    0.785525   -0.013445
 C    0.356851   -0.417196   -0.626045
 C    1.839026   -0.348677   -0.317265
 C   -0.289800   -1.740954   -0.189148
 C   -1.796023   -1.785459   -0.468461
 C   -2.505714   -0.575799    0.133277
 C   -1.843737    0.694226   -0.422277
 C   -2.807646    1.814015   -0.022617
 C   -4.197462    1.151605   -0.099060
 C   -3.952309   -0.356745   -0.350134
 O   -4.863648   -1.197541    0.315859
 C   -2.511050   -0.669489    1.659938
 H    2.211078   -2.424853   -0.703495
 H    4.593928   -2.339983   -0.239372
 H    6.343758   -1.003357    0.373786
 H    4.286362    1.832284    0.552718
 H    2.259858    2.956737   -0.310786
 H    1.578962    2.387304    1.207764
 H   -0.288729    2.940494   -0.197945
 H    0.379967    2.059166   -1.574637
 H   -0.302255    0.741893    1.076286
 H    0.247732   -0.344734   -1.718526
 H   -0.097061   -1.899236    0.872713
 H    0.166296   -2.570586   -0.730382
 H   -1.956123   -1.792348   -1.550141
 H   -2.216282   -2.707658   -0.063823
 H   -1.873778    0.618885   -1.517303
 H   -2.735554    2.667934   -0.695078
 H   -2.592606    2.164546    0.986636
 H   -4.803480    1.584045   -0.895754
 H   -4.743450    1.268525    0.837559
 H   -3.996458   -0.558829   -1.433462
 H   -5.751628   -0.990530    0.007991
 H   -2.921709    0.228384    2.109573
 H   -3.138371   -1.508444    1.949672
 H   -1.514206   -0.829553    2.056660
