61 
1ql7_ligand_dft.xyz
 N    7.764003    3.013345   -1.002689
 C    8.049923    1.796361   -0.542006
 C    7.106680    0.850523   -0.155402
 C    5.435980    2.453479   -0.713247
 C    6.461764    3.310226   -1.075495
 C    5.743006    1.168250   -0.233333
 N    4.733980    0.291936    0.171337
 C    5.123455   -0.947122    0.829544
 C    3.953328   -1.551166    1.602012
 C    2.383882   -0.442535    0.017557
 C    3.590962    0.125072   -0.720962
 C    2.741067   -1.774431    0.697479
 C    1.557323   -2.294467    1.509669
 O    1.467837   -2.050452    2.704346
 N    0.597506   -3.031231    0.859004
 C    0.469459   -3.230934   -0.573570
 C   -0.758990   -2.496065   -1.109550
 C   -1.818901   -2.718129    1.088469
 C   -0.584087   -3.456402    1.594014
 N   -1.937868   -2.928488   -0.358401
 S   -3.420681   -2.551473   -1.039611
 O   -4.429509   -3.127026   -0.168776
 O   -3.324044   -2.893490   -2.447882
 C   -3.541156   -0.776001   -0.921062
 C   -4.101497   -0.216196    0.198423
 C   -2.989202    0.022741   -1.951203
 C   -3.004035    1.385780   -1.825000
 C   -4.128046    1.192506    0.345038
 C   -3.565802    2.005966   -0.677221
 C   -3.586086    3.416144   -0.529697
 C   -4.708747    3.177154    1.613381
 C   -4.698646    1.814498    1.486002
 C   -4.143746    3.973026    0.589595
Cl   -4.168671    5.707692    0.775810
 H    9.107587    1.545266   -0.483647
 H    7.447264   -0.121840    0.178785
 H    4.410820    2.802226   -0.769967
 H    6.221138    4.307326   -1.439376
 H    5.926517   -0.725979    1.536638
 H    5.515584   -1.679929    0.099194
 H    3.667245   -0.885185    2.420402
 H    4.270581   -2.497402    2.052327
 H    2.054621    0.268387    0.784138
 H    1.559837   -0.564963   -0.695056
 H    3.858766   -0.550253   -1.555093
 H    3.327435    1.086047   -1.163032
 H    3.022560   -2.500695   -0.076443
 H    0.358963   -4.303768   -0.774471
 H    1.356391   -2.880080   -1.099495
 H   -0.909891   -2.740182   -2.162476
 H   -0.606037   -1.407961   -1.009068
 H   -2.715261   -3.113718    1.568321
 H   -1.725503   -1.645226    1.324067
 H   -0.419681   -3.244564    2.649674
 H   -0.721744   -4.535360    1.454880
 H   -4.540608   -0.849779    0.963282
 H   -2.586124   -0.455160   -2.837468
 H   -2.592788    2.011223   -2.612142
 H   -3.161011    4.045468   -1.304797
 H   -5.142653    3.655381    2.484237
 H   -5.130640    1.192665    2.264722
