61 
1ql9_ligand_dft.xyz
 N    5.509284    3.884179    0.553217
 C    5.973263    2.778143    1.135867
 C    5.785284    1.487235    0.660223
 C    4.573700    2.449124   -1.147321
 C    4.821689    3.686280   -0.575308
 C    5.063494    1.283695   -0.528592
 N    4.877449    0.025772   -1.094580
 C    5.369480   -1.157574   -0.398884
 C    4.388361   -1.647832    0.668803
 C    2.543744   -0.717019   -0.778753
 C    3.621693   -0.270414   -1.773419
 C    3.020275   -1.937069    0.036034
 C    2.000227   -2.276721    1.121934
 O    2.132049   -1.838380    2.255530
 N    0.935185   -3.078034    0.788126
 C    0.535050   -3.490442   -0.545415
 C   -0.759619   -2.789918   -0.957584
 C   -1.389323   -2.622683    1.404669
 C   -0.094019   -3.331660    1.785385
 N   -1.782976   -3.046104    0.056354
 S   -3.360230   -2.704088   -0.392423
 O   -4.197649   -3.091729    0.728170
 O   -3.537577   -3.259776   -1.722627
 C   -3.420872   -0.927591   -0.535448
 C   -3.744046   -0.177765    0.566399
 C   -3.061459   -0.322228   -1.763519
 C   -3.024500    1.043261   -1.853455
 C   -3.713295    1.236416    0.491265
 C   -3.342193    1.857056   -0.733447
 C   -3.305386    3.272499   -0.809236
 C   -3.998259    3.416336    1.516527
 C   -4.040372    2.051325    1.606237
 C   -3.625652    4.019304    0.292436
Cl   -3.579796    5.760949    0.203703
 H    6.530033    2.923982    2.059831
 H    6.185453    0.662375    1.236143
 H    4.029514    2.410705   -2.083423
 H    4.443600    4.581845   -1.065199
 H    6.356686   -0.956117    0.020497
 H    5.513625   -1.937718   -1.158439
 H    4.264273   -0.892358    1.450134
 H    4.775209   -2.551027    1.153167
 H    2.326675    0.108772   -0.089905
 H    1.616646   -0.941324   -1.319756
 H    3.814425   -1.070610   -2.500179
 H    3.278570    0.592730   -2.342892
 H    3.141591   -2.786732   -0.649191
 H    0.369621   -4.574887   -0.546545
 H    1.312671   -3.268893   -1.275154
 H   -1.110647   -3.185626   -1.912142
 H   -0.571634   -1.707723   -1.061887
 H   -2.185781   -2.898008    2.097569
 H   -1.234431   -1.532002    1.445732
 H    0.269255   -2.969756    2.746237
 H   -0.273017   -4.411790    1.845231
 H   -4.040673   -0.665667    1.490086
 H   -2.846129   -0.948368   -2.622556
 H   -2.759887    1.521413   -2.792212
 H   -3.024607    3.755517   -1.739470
 H   -4.245631    4.041705    2.366869
 H   -4.325985    1.576673    2.540478
