11 
1qpb_ligand_dft.xyz
 C    0.748415    0.291443   -0.000423
 N    1.693734   -0.670377    0.000253
 O    0.950338    1.492574   -0.000106
 C   -0.684308   -0.297311   -0.000082
 O   -0.831226   -1.501000   -0.000203
 C   -1.821276    0.686767    0.000166
 H    2.668232   -0.415711    0.000670
 H    1.412501   -1.639214    0.000511
 H   -2.446947    0.505563   -0.879335
 H   -2.442241    0.510058    0.883959
 H   -1.457554    1.713959   -0.003076
