109 
1qsc_ligand_xtb.xyz
 C    4.314242   -2.551642    2.306815
 O    5.513706   -2.486858    2.487225
 C    3.432279   -3.640164    2.877653
 N    3.634637   -1.641073    1.577967
 C    4.301187   -0.630266    0.799601
 C    3.753423    0.737333    1.173263
 O    2.643799    0.861019    1.696080
 C    4.031451   -0.894614   -0.701401
 C    4.472403   -2.289631   -1.038532
 C    3.553541   -3.332418   -1.034024
 C    5.808187   -2.576957   -1.277233
 C    3.955440   -4.632125   -1.265664
 C    6.221461   -3.874836   -1.510577
 C    5.297454   -4.912224   -1.501506
 O    5.658476   -6.205917   -1.720186
 N    4.484026    1.809580    0.854145
 C    4.031174    3.156345    1.193987
 C    3.096870    3.743040    0.110844
 O    3.272293    4.842486   -0.371785
 C    5.319390    3.963104    1.303052
 C    6.207103    3.296068    0.255728
 C    5.865281    1.813723    0.400700
 N    2.098912    2.913122   -0.232160
 C    0.984809    3.309817   -1.061819
 C   -0.258802    2.667655   -0.454635
 O   -0.181607    1.841371    0.441419
 C    1.169864    2.936275   -2.556788
 C    1.754594    1.533947   -2.753645
 C    2.059633    3.977456   -3.235189
 C    0.815245    0.403785   -2.347771
 N   -1.434851    3.071856   -0.955013
 C   -2.690243    2.637321   -0.364961
 C   -3.108532    1.250696   -0.889064
 O   -4.077803    1.067573   -1.602284
 C   -3.793016    3.665491   -0.594617
 C   -5.032486    3.346043    0.248777
 C   -4.700370    3.426659    1.732706
 O   -4.595384    4.482269    2.321427
 N   -4.509922    2.236611    2.335700
 N   -2.316945    0.253501   -0.461297
 C   -2.805276   -1.102886   -0.571053
 C   -4.147361   -1.163769    0.177452
 O   -4.377098   -0.466907    1.151148
 C   -1.831689   -2.134447    0.003114
 C   -1.343294   -1.779099    1.411997
 C    0.055249   -1.189888    1.375890
 O    0.286447   -0.321489    2.326409
 O    0.884788   -1.533180    0.559301
 N   -5.023592   -2.041518   -0.321769
 C   -6.347378   -2.222677    0.210536
 C   -6.614222   -3.712587    0.359251
 O   -5.843547   -4.572576    0.035348
 C   -7.407538   -1.593156   -0.726001
 O   -7.280624   -2.260899   -1.965400
 C   -7.203667   -0.088292   -0.853643
 O   -7.807630   -3.955199    0.897713
 H    2.544125   -3.212845    3.335920
 H    3.989390   -4.210603    3.614568
 H    3.128058   -4.303793    2.070365
 H    2.654870   -1.773316    1.355571
 H    5.369441   -0.709815    1.025150
 H    2.958601   -0.796959   -0.868422
 H    4.557401   -0.162731   -1.315254
 H    2.512083   -3.119813   -0.842215
 H    6.539190   -1.781036   -1.277582
 H    3.248825   -5.446949   -1.262414
 H    7.267034   -4.087385   -1.691160
 H    6.614131   -6.261569   -1.839341
 H    3.458692    3.118115    2.127663
 H    5.136430    5.012243    1.081470
 H    5.751014    3.867601    2.299010
 H    7.265820    3.489126    0.411418
 H    5.926228    3.653159   -0.735279
 H    5.976277    1.273819   -0.541255
 H    6.503528    1.337102    1.153295
 H    1.898862    2.109602    0.362347
 H    0.883816    4.402233   -0.999925
 H    0.182297    2.963611   -3.032494
 H    2.688872    1.456861   -2.195319
 H    1.994660    1.423290   -3.813759
 H    2.200891    3.730021   -4.284717
 H    1.612908    4.966814   -3.172655
 H    3.031138    4.020243   -2.752273
 H   -0.169421    0.543567   -2.790964
 H    1.210277   -0.548904   -2.694161
 H    0.702508    0.346840   -1.270314
 H   -1.474472    3.752491   -1.696764
 H   -2.503431    2.524356    0.711207
 H   -3.423721    4.656010   -0.321753
 H   -4.071107    3.660904   -1.650707
 H   -5.799571    4.091055    0.035182
 H   -5.409960    2.358842   -0.010314
 H   -4.558635    1.348246    1.858232
 H   -4.269710    2.233187    3.313888
 H   -1.553307    0.471493    0.169825
 H   -2.990431   -1.320976   -1.630232
 H   -0.959802   -2.209396   -0.651476
 H   -2.336589   -3.101292    0.005063
 H   -1.276145   -2.683351    2.021570
 H   -2.018594   -1.090489    1.919209
 H    1.172239    0.114258    2.208192
 H   -4.815305   -2.585287   -1.145338
 H   -6.396532   -1.738262    1.190685
 H   -8.399614   -1.799628   -0.292459
 H   -7.703186   -1.729275   -2.648331
 H   -7.965587    0.336219   -1.505023
 H   -7.285918    0.381347    0.122656
 H   -6.223524    0.135978   -1.271237
 H   -7.965871   -4.911534    0.956869
