42 
1qti_ligand_xtb.xyz
 C    2.528003   67.659934   63.278873
 C    2.634765   68.012477   62.008656
 C    3.945773   68.126391   61.273549
 C    5.090690   68.306467   62.273520
 C    5.016909   67.272591   63.389083
 C    3.678195   67.266876   64.168366
 O    5.190040   65.950821   62.859183
 C    4.455470   63.723250   63.547985
 C    3.591814   63.042068   64.399490
 C    2.735740   63.721724   65.252414
 C    1.715835   65.816354   66.207104
 N    2.362451   66.827296   67.032220
 C    2.542645   68.096710   66.349479
 C    3.771732   68.116583   65.439335
 C    4.407453   65.115527   63.602763
 C    3.529373   65.787817   64.439265
 C    2.672397   65.109055   65.287073
 C    5.386427   61.753887   62.603999
 O    5.336338   63.156834   62.675785
 O    4.157145   67.017798   60.425235
 C    1.676986   66.994640   68.297348
 H    1.549543   67.572853   63.727986
 H    1.749927   68.204156   61.419049
 H    3.904995   68.992343   60.600135
 H    6.043359   68.202920   61.751776
 H    5.037463   69.301040   62.718190
 H    5.844409   67.447640   64.095802
 H    3.585753   61.963937   64.413645
 H    2.094484   63.146647   65.903967
 H    1.273680   65.068240   66.868637
 H    0.890291   66.254856   65.613920
 H    1.641185   68.388397   65.783813
 H    2.705087   68.861547   67.113706
 H    4.621907   67.763278   66.026881
 H    3.961426   69.152395   65.145131
 H    6.138128   61.525855   61.850148
 H    5.686725   61.311745   63.559872
 H    4.424378   61.331874   62.294850
 H    4.443268   66.277311   60.980774
 H    2.235915   67.695079   68.916425
 H    0.647303   67.370448   68.186164
 H    1.643592   66.037340   68.815405
