27 
1qvt_ligand_dft.xyz
 C   -2.479699    1.609542    0.000026
 C   -3.629894    0.885635    0.000004
 C   -3.590245   -0.550227   -0.000029
 C   -2.374562   -1.195384    0.000031
 C    2.374576   -1.195319    0.000031
 C    3.590316   -0.550102    0.000032
 C    3.629913    0.885640   -0.000024
 C    2.479639    1.609510   -0.000008
 C   -0.000018    1.663862   -0.000016
 N   -0.000008   -1.153783    0.000003
 C   -1.153006   -0.468103    0.000105
 C    1.204794    0.968677   -0.000020
 C   -1.204806    0.968759    0.000014
 C    1.153077   -0.468024   -0.000099
 N   -4.779364   -1.234837   -0.000132
 N    4.779320   -1.234883    0.000025
 H   -2.518630    2.696237    0.000017
 H   -4.594871    1.386400   -0.000079
 H   -2.311191   -2.279392    0.000049
 H    2.311311   -2.279324    0.000067
 H    4.594795    1.386582   -0.000003
 H    2.518558    2.696206    0.000024
 H    0.000011    2.753071   -0.000016
 H   -5.659480   -0.751309    0.000785
 H   -4.794759   -2.239570   -0.000241
 H    4.794569   -2.239619    0.000039
 H    5.659549   -0.751550   -0.000201
