27 
1qvt_ligand_xtb.xyz
 C   -2.470531    1.605086   -0.012550
 C   -3.615273    0.874108   -0.011221
 C   -3.572299   -0.546603    0.000451
 C   -2.357821   -1.188100    0.004626
 C    2.357743   -1.188179   -0.004863
 C    3.572272   -0.546599   -0.000413
 C    3.615221    0.874165    0.010967
 C    2.470567    1.605086    0.012527
 C    0.000085    1.669454    0.000125
 N   -0.000026   -1.134885    0.000025
 C   -1.148673   -0.462179    0.002855
 C    1.203537    0.973123    0.003448
 C   -1.203437    0.973111   -0.003371
 C    1.148584   -0.462116   -0.002878
 N   -4.755881   -1.246644    0.074827
 N    4.755865   -1.246701   -0.074410
 H   -2.507787    2.685976   -0.022315
 H   -4.580981    1.360448   -0.017528
 H   -2.299520   -2.265586    0.010744
 H    2.299593   -2.265734   -0.011692
 H    4.581054    1.360243    0.016505
 H    2.507901    2.685838    0.022484
 H    0.000114    2.752905    0.000337
 H   -5.588140   -0.772564   -0.234447
 H   -4.712556   -2.226691   -0.150717
 H    4.712581   -2.226890    0.150716
 H    5.588180   -0.772474    0.234599
