35 
1qw7_ligand_dft.xyz
 C   -1.415118    0.009452    1.001680
 C   -2.013361    1.209338    0.615675
 C   -3.199664    1.210537   -0.108182
 C   -3.824980    0.015834   -0.470849
 C   -3.218161   -1.182026   -0.090123
 C   -2.031583   -1.186275    0.634183
 C   -0.118272    0.003922    1.771142
 C   -5.130120    0.021034   -1.226600
 C    2.053443   -2.240951   -0.468555
 C    3.203136   -1.921407   -1.404887
 C    1.993420    1.693373   -1.204220
 C    3.324985    2.278597   -0.768248
 P    1.378719    0.014406    0.746767
 O    1.145163   -1.133413   -0.366135
 O    1.157879    1.370722   -0.082688
 O    2.651796   -0.134410    1.491449
 H   -1.537639    2.151213    0.874952
 H   -3.647668    2.158141   -0.398022
 H   -3.680184   -2.127279   -0.365057
 H   -1.574545   -2.132575    0.912287
 H   -0.033979   -0.886087    2.404283
 H   -0.040291    0.872893    2.433260
 H   -5.982855    0.061430   -0.538001
 H   -5.203525    0.888530   -1.889998
 H   -5.242499   -0.881424   -1.835508
 H    2.430691   -2.504382    0.523749
 H    1.450768   -3.069082   -0.850155
 H    2.827644   -1.624185   -2.389212
 H    3.812717   -1.111626   -0.992618
 H    3.842082   -2.801990   -1.530312
 H    2.130116    0.796526   -1.818428
 H    1.415638    2.414397   -1.787204
 H    3.165937    3.170677   -0.155620
 H    3.894235    1.555900   -0.177844
 H    3.911517    2.561083   -1.649152
