67 
1qxk_ligand_xtb.xyz
 C   -3.835681    1.291174   -1.114235
 C   -3.985211   -0.101019   -1.134265
 C   -2.922157   -0.902903   -1.512609
 C   -1.693706   -0.333264   -1.795882
 C   -1.514828    1.039067   -1.713403
 C   -2.602924    1.847996   -1.413270
 O   -5.204662   -0.595305   -0.675640
 C    0.483266    1.660296   -0.381479
 N   -0.351068    2.403399    0.529787
 C   -1.235863    1.872794    1.371671
 C    1.833257    2.386754   -0.443075
 N    2.802842    1.700483   -1.046328
 C    4.143498    2.216369   -1.208834
 C    5.160993    1.197335   -0.704451
 C    5.114001   -0.542772    1.115430
 C    5.047457    0.953870    0.806908
 O    4.016118   -1.224068    0.540870
 O   -1.395153    0.658009    1.490294
 C   -2.064640    2.864676    2.147368
 C   -5.085017   -1.650006    0.261843
 O    1.948346    3.517455    0.002762
 C   -0.140915    1.632840   -1.800559
 C   -3.855362   -1.422601    1.146558
 O   -3.800851   -0.205723    1.621036
 O   -3.016416   -2.274669    1.329522
 C    2.808511   -1.234412    1.168054
 C    2.573944   -0.890361    2.492371
 C    1.313564   -1.084690    3.037097
 C    0.283706   -1.623259    2.297473
 C    0.485632   -1.941552    0.956188
 C    1.746511   -1.720290    0.388473
 C    1.944878   -1.925249   -1.068015
 O    2.304404   -1.048219   -1.829119
 O    1.653312   -3.154467   -1.462436
 C    1.743360   -3.416322   -2.854384
 O   -0.493499   -2.420579    0.176248
 O   -4.872899    2.085244   -0.748059
 H   -3.034545   -1.975163   -1.545868
 H   -0.859760   -0.972293   -2.037451
 H   -2.500163    2.920885   -1.361696
 H    0.593670    0.638770   -0.007099
 H   -0.139114    3.394763    0.545200
 H    2.640899    0.741580   -1.352278
 H    4.326374    2.424811   -2.269304
 H    4.205047    3.154154   -0.651206
 H    6.165719    1.531598   -0.963348
 H    4.970544    0.258017   -1.227754
 H    5.179116   -0.726598    2.192517
 H    5.994162   -0.985089    0.639676
 H    5.841627    1.469062    1.347398
 H    4.090056    1.335167    1.168602
 H   -1.548447    3.811669    2.270681
 H   -2.319571    2.453282    3.120461
 H   -2.990871    3.033173    1.598929
 H   -5.998247   -1.631590    0.863057
 H   -4.995415   -2.624066   -0.233194
 H   -0.183068    2.653861   -2.184297
 H    0.501777    1.033721   -2.444932
 H   -2.848795    0.078413    1.828047
 H    3.355080   -0.482208    3.112226
 H    1.144105   -0.816466    4.069127
 H   -0.690130   -1.784209    2.731627
 H    0.999540   -2.830855   -3.399392
 H    1.552216   -4.479002   -2.977139
 H    2.737273   -3.157682   -3.226449
 H   -1.336031   -2.443383    0.670024
 H   -5.602704    1.500237   -0.494060
