26 
1qy1_ligand_xtb.xyz
 N   -0.535289   -1.805429   -0.500889
 C   -0.136196   -0.551050   -0.518513
 C   -1.029750    0.473399   -0.120317
 N   -2.258762    0.204942    0.284172
 C   -2.632561   -1.073165    0.302541
 C   -1.775097   -2.076036   -0.094996
 C    1.262015   -0.246085   -0.947636
 C    2.150738    0.162600    0.239761
 C    3.532523    0.568002   -0.265308
 C    2.264243   -0.980187    1.244216
 O   -0.614634    1.747593   -0.165517
 C   -1.562661    2.723702    0.224188
 H   -3.640837   -1.262755    0.642411
 H   -2.060102   -3.118007   -0.097719
 H    1.238095    0.574989   -1.667296
 H    1.675448   -1.135671   -1.423988
 H    1.689249    1.025539    0.730725
 H    4.009507   -0.266301   -0.775214
 H    3.460221    1.401245   -0.960583
 H    4.166573    0.869254    0.565537
 H    1.284616   -1.262347    1.622873
 H    2.709246   -1.853679    0.772906
 H    2.887055   -0.686214    2.086274
 H   -2.444924    2.681281   -0.418107
 H   -1.875799    2.564008    1.258240
 H   -1.062443    3.684244    0.121473
