40 
1qyg_ligand_xtb.xyz
 C   22.506206   -1.326010   26.261165
 C   23.843073   -1.939144   25.798897
 C   23.790439   -2.230611   24.291111
 C   22.485337   -2.926586   23.918246
 C   21.296379   -2.219542   24.574104
 C   21.290011   -0.703685   24.262357
 C   22.122030   -0.098280   25.402953
 C   26.089263   -2.528582   23.870837
 C   27.132932   -3.510531   23.494154
 C   26.872940   -4.878386   23.503262
 C   27.875064   -5.766677   23.159568
 C   29.131395   -5.299254   22.805937
 C   29.393396   -3.938112   22.801997
 C   28.398710   -3.043905   23.148938
 C   24.095881   -3.191774   26.612442
 C   20.271708   -2.144006   26.790534
 N   21.478138   -2.323527   26.014457
 O   24.869231   -3.071143   23.885939
 O   26.308202   -1.366156   24.127797
 O   24.338616   -2.878465   27.894438
 O   24.096063   -4.325643   26.224131
 H   22.575038   -1.090731   27.325022
 H   24.659213   -1.241947   26.012142
 H   23.898155   -1.278637   23.755793
 H   22.374171   -2.947843   22.833657
 H   22.536619   -3.950584   24.287386
 H   20.370232   -2.711617   24.269950
 H   21.710170   -0.499366   23.280072
 H   20.268878   -0.322328   24.275255
 H   21.529288    0.595860   25.998723
 H   23.003124    0.432461   25.049826
 H   25.894524   -5.228133   23.792581
 H   27.678359   -6.828574   23.168557
 H   29.909918   -5.998086   22.536370
 H   30.374094   -3.576794   22.529961
 H   28.579280   -1.979515   23.157123
 H   19.574754   -2.940750   26.534389
 H   20.522147   -2.233023   27.846985
 H   19.774826   -1.177780   26.629074
 H   24.479197   -3.686593   28.412869
