56 
1r0p_ligand_dft.xyz
 O   -5.053947   -0.718424    0.860102
 C   -4.016917   -1.243474    0.514977
 O   -3.938731   -2.415245   -0.105204
 C   -5.190138   -3.049638   -0.394770
 C   -2.662650   -0.576288    0.748449
 O   -2.834775    0.430327    1.694801
 C   -2.093341   -0.026405   -0.615102
 O   -1.485116   -1.149585   -1.191998
 C   -3.143663    0.462431   -1.605970
 N   -1.070858    0.994685   -0.337044
 C    0.295559    0.738671   -0.244547
 C    1.005855   -0.469374   -0.200931
 N    0.509284   -1.755635   -0.218952
 C   -0.905208   -1.980217   -0.193981
 C   -1.567996   -1.575065    1.142542
 C    1.567111   -2.643051   -0.109088
 C    1.558009   -4.037052   -0.062832
 C    2.783248   -4.679831    0.042063
 C    3.985953   -3.959721    0.104840
 C    3.991572   -2.573529    0.066323
 C    2.770154   -1.901862   -0.038682
 C    2.404714   -0.500813   -0.088528
 C    3.091562    0.724192   -0.016976
 C    4.544308    1.009945    0.115238
 O    5.486453    0.237135    0.165172
 C    2.398660    1.921035   -0.028208
 C    3.364996    3.069321    0.102191
 N    4.634115    2.379293    0.174455
 C    1.001892    1.947941   -0.128897
 C    0.013161    2.997069   -0.109546
 C   -1.251926    2.374314   -0.204621
 C   -2.419678    3.136215   -0.120006
 C    0.110041    4.384675    0.015048
 C   -1.049998    5.140595    0.059716
 C   -2.300848    4.512878    0.002869
 H   -5.799171   -2.407508   -1.034699
 H   -5.731158   -3.255832    0.530980
 H   -4.935294   -3.975047   -0.908339
 H   -3.790504    0.590569    1.758847
 H   -3.598547   -0.419214   -2.062884
 H   -3.931741    1.042665   -1.125371
 H   -2.681850    1.064699   -2.390484
 H   -1.106044   -3.016968   -0.466483
 H   -0.854960   -1.056196    1.786931
 H   -1.953433   -2.441465    1.681898
 H    0.632671   -4.603628   -0.105259
 H    2.808643   -5.765136    0.078839
 H    4.925449   -4.497014    0.188448
 H    4.910445   -1.998926    0.118240
 H    3.317374    3.746495   -0.761206
 H    3.170444    3.660250    1.007652
 H    5.525306    2.837033    0.271040
 H   -3.399844    2.680300   -0.107845
 H    1.082266    4.863376    0.086720
 H   -0.991579    6.219720    0.160102
 H   -3.203928    5.111994    0.071262
