50 
1r5h_ligand_dft.xyz
 C    4.467369   -1.048367    0.270145
 C    5.775502   -1.278939    1.034821
 C    6.934182   -0.502310    0.406571
 C    6.606312    0.989025    0.310307
 C    5.301896    1.219530   -0.455895
 C    4.125300    0.445876    0.160164
 C    2.852451    0.720159   -0.656463
 C    1.616103   -0.063825   -0.231839
 N    1.329914    0.122469    1.236898
 C    0.336453    0.370815   -0.955902
 O    0.067240    1.677200   -0.489274
 C   -0.835739   -0.553920   -0.586052
 O   -0.954996   -1.006182    0.553244
 N   -1.731050   -0.783266   -1.561899
 N   -2.910960   -1.482228   -1.342648
 C   -3.912104   -0.769081   -0.616116
 C   -4.116354    0.592903   -0.816968
 C   -5.139438    1.247007   -0.137148
 C   -5.984335    0.565513    0.738898
 C   -5.764705   -0.802524    0.920156
 C   -4.740946   -1.467355    0.258664
 C   -7.114903    1.268853    1.445702
 H    4.556330   -1.465986   -0.743450
 H    3.661269   -1.613121    0.763654
 H    5.645165   -0.956192    2.077366
 H    5.999949   -2.350005    1.063733
 H    7.847878   -0.654297    0.989550
 H    7.131644   -0.897913   -0.599022
 H    7.421815    1.528661   -0.181458
 H    6.514510    1.410720    1.320808
 H    5.063821    2.289337   -0.493301
 H    5.430628    0.887451   -1.496189
 H    3.988453    0.843930    1.181069
 H    2.620730    1.791751   -0.638410
 H    3.040831    0.459192   -1.705661
 H    1.762682   -1.137984   -0.370599
 H    2.093345   -0.216638    1.824992
 H    1.162791    1.115774    1.426303
 H    0.436527   -0.395835    1.421421
 H    0.530990    0.355152   -2.037493
 H   -0.778897    1.993750   -0.832100
 H   -1.564629   -0.490698   -2.514965
 H   -2.699067   -2.379998   -0.919703
 H   -3.495419    1.145376   -1.517202
 H   -5.289138    2.310385   -0.304550
 H   -6.402106   -1.361736    1.599695
 H   -4.586979   -2.530247    0.426771
 H   -7.267305    0.864836    2.451097
 H   -8.055909    1.145043    0.897526
 H   -6.925461    2.342160    1.537643
