60 
1rd4_ligand_xtb.xyz
 O   -3.328833    4.047865   -0.511250
 N   -3.606666    2.924071   -0.886802
 C   -2.655589    1.889911   -0.702155
 C   -3.051553    0.552251   -0.843029
 C   -2.066844   -0.427575   -0.685633
 C   -0.772090   -0.086354   -0.376970
 C   -0.389094    1.250013   -0.196842
 C   -1.349714    2.230926   -0.363229
 C    0.994580    1.603844    0.149056
 C    1.262411    2.603022    1.089832
 C    2.584403    2.882524    1.369760
 N    3.606711    2.266873    0.805359
 C    3.372015    1.316233   -0.106373
 N    4.476358    0.783686   -0.712677
 C    5.784704    1.086571   -0.174180
 C    6.233483   -0.027150    0.785832
 N    6.203965   -1.299076    0.101280
 C    4.902628   -1.604747   -0.456448
 C    4.476338   -0.481004   -1.410877
 C    7.262848   -2.089480   -0.209480
 O    7.127117   -3.088185   -0.890088
 C    8.607340   -1.682730    0.354388
 C    2.059484    0.954812   -0.453251
 S   -4.713414    0.168136   -1.194669
 C   -4.790473   -1.518401   -0.602688
 C   -4.483493   -1.776683    0.742682
 C   -4.636541   -3.070598    1.224900
 C   -5.096833   -4.075652    0.388189
 C   -5.409860   -3.811206   -0.932180
 C   -5.259638   -2.524673   -1.424539
 O   -4.042483   -0.715481    1.460004
 C   -3.617357   -0.891677    2.796017
 C   -3.043518    0.437105    3.262491
 O   -4.666177    2.617354   -1.413859
 H   -2.331532   -1.465876   -0.815172
 H   -0.036378   -0.867708   -0.254528
 H   -1.105986    3.278130   -0.265257
 H    0.463455    3.122684    1.592353
 H    2.853380    3.641341    2.093480
 H    5.726370    2.038144    0.351844
 H    6.489770    1.160437   -1.008244
 H    5.531371   -0.064187    1.628098
 H    7.227316    0.187594    1.169654
 H    4.173805   -1.690924    0.358206
 H    4.980719   -2.557012   -0.983045
 H    5.200715   -0.415003   -2.229817
 H    3.500295   -0.698750   -1.837530
 H    9.328625   -2.446056    0.075636
 H    8.928752   -0.729396   -0.059162
 H    8.568271   -1.611413    1.438759
 H    1.861691    0.208467   -1.204944
 H   -4.413957   -3.298577    2.255377
 H   -5.213501   -5.073809    0.782467
 H   -5.771639   -4.597456   -1.575901
 H   -5.503471   -2.292165   -2.449593
 H   -2.849379   -1.675733    2.845459
 H   -4.466548   -1.186818    3.427019
 H   -2.197389    0.715110    2.638508
 H   -3.799437    1.213782    3.185906
 H   -2.716083    0.358031    4.294922
