36 
1rhq_ligand_dft.xyz
 C    3.485555    1.355594   -0.521767
 O    3.810303    0.856841   -1.587867
 C    4.121036    2.628326    0.003579
 N    2.523383    0.815659    0.282750
 C    1.674415   -0.259796   -0.173562
 C    0.239846    0.085452    0.226340
 O   -0.012875    0.921559    1.087726
 C    2.081505   -1.642740    0.400820
 C    1.971134   -1.677835    1.926318
 C    3.488358   -2.025338   -0.059653
 N   -0.726232   -0.617355   -0.408794
 C   -2.112946   -0.543564   -0.023710
 C   -2.841903   -1.702471   -0.681723
 O   -2.286035   -2.490967   -1.410655
 C   -2.745334    0.806223   -0.407374
 C   -4.115192    0.996984    0.191479
 O   -4.633492    2.191883   -0.128766
 O   -4.697849    0.193684    0.883812
 H    3.700563    3.483328   -0.535514
 H    3.962299    2.777230    1.075160
 H    5.192151    2.597157   -0.204895
 H    2.138323    1.362676    1.042230
 H    1.757880   -0.303544   -1.265810
 H    1.375130   -2.376152   -0.013717
 H    2.254422   -2.664687    2.306133
 H    2.646808   -0.940098    2.373340
 H    0.956037   -1.460594    2.275143
 H    3.583535   -1.979814   -1.148113
 H    3.731700   -3.039923    0.273277
 H    4.231736   -1.341506    0.362725
 H   -0.494648   -1.345951   -1.073344
 H   -2.214456   -0.660632    1.063794
 H   -3.918890   -1.774467   -0.456774
 H   -2.094338    1.602074   -0.032543
 H   -2.803099    0.926427   -1.495036
 H   -5.504468    2.241330    0.297767
