87 
1riw_ligand_xtb.xyz
 N   -1.979283   -1.345264   -0.905103
 C   -1.688139   -2.526048   -0.114971
 C   -3.402669   -1.303067   -1.194897
 C   -1.128350   -0.403850   -1.334483
 C   -2.768765   -3.554659   -0.517470
 C   -1.734971   -2.201920    1.380029
 C   -3.776842   -2.773176   -1.378910
 C   -4.224188   -0.663338   -0.055939
 C    0.362947   -0.717300   -1.175630
 O   -1.521806    0.633352   -1.855891
 C   -3.396581   -4.202693    0.716324
 C   -1.432338   -3.477592    2.174150
 N   -3.774282    0.541116    0.319249
 O   -5.189306   -1.213137    0.437630
 C    0.818471   -1.716577   -2.256730
 N    1.173010    0.465981   -1.270126
 C   -2.308218   -4.647358    1.690055
 O   -0.081691   -3.866396    2.000170
 C   -4.457950    1.355711    1.296776
 C    2.227933   -2.154105   -1.967412
 C    1.591129    1.147169   -0.189816
 C   -4.723076    2.762923    0.743661
 C    3.304575   -1.554076   -2.607120
 C    2.474542   -3.127135   -1.005629
 C    2.645224    2.202794   -0.523622
 O    1.215122    0.905041    0.942191
 C   -3.428800    3.484115    0.567474
 C    4.602681   -1.921319   -2.295930
 C    3.771305   -3.496907   -0.696278
 C    4.034084    1.565162   -0.302459
 O    2.592017    2.627703   -1.860832
 C   -2.565391    3.377182   -0.486235
 C   -2.798593    4.317846    1.528023
 C    4.839231   -2.893299   -1.339470
 C    4.198639    1.039408    1.091414
 N   -1.443383    4.118626   -0.216840
 C   -1.594075    4.694695    1.018213
 C    4.008467   -0.308437    1.364598
 C    4.519252    1.896106    2.136362
 C   -0.306982    4.171005   -1.032853
 C    4.135374   -0.789717    2.654944
 C    4.647636    1.416726    3.427268
 N    0.541644    5.206311   -0.768434
 N   -0.004986    3.321036   -1.923324
 C    4.455057    0.071472    3.690182
 H   -0.696052   -2.916287   -0.342437
 H   -3.561065   -0.699356   -2.094684
 H   -2.303713   -4.343240   -1.115848
 H   -2.715169   -1.817574    1.656093
 H   -0.995244   -1.431458    1.615587
 H   -4.799400   -2.936646   -1.042006
 H   -3.699557   -3.057981   -2.427404
 H    0.539498   -1.117864   -0.171301
 H   -4.078154   -3.502881    1.200052
 H   -3.981127   -5.070515    0.407447
 H   -1.618087   -3.279195    3.240689
 H   -2.992951    0.964303   -0.163283
 H    0.761160   -1.220850   -3.228254
 H    0.149634   -2.577808   -2.277979
 H    1.480787    0.789675   -2.176486
 H   -2.757646   -5.155010    2.542713
 H   -1.644017   -5.356809    1.192544
 H    0.491413   -3.165577    2.332734
 H   -5.394530    0.846278    1.535097
 H   -3.849218    1.430005    2.205415
 H   -5.248829    2.678192   -0.209051
 H   -5.357309    3.303590    1.446826
 H    3.129765   -0.796333   -3.357840
 H    1.650343   -3.601694   -0.491442
 H    2.514973    3.044945    0.173521
 H    5.430495   -1.444155   -2.799388
 H    3.947921   -4.254712    0.052496
 H    4.780380    2.331970   -0.518861
 H    4.148199    0.759380   -1.030526
 H    1.682472    2.974176   -2.039299
 H   -2.676753    2.864793   -1.421663
 H   -3.202816    4.599909    2.480217
 H    5.851427   -3.177026   -1.093208
 H   -0.818335    5.285964    1.461710
 H    3.759471   -0.985247    0.559955
 H    4.670641    2.947354    1.934996
 H    3.984075   -1.841475    2.852634
 H    4.897880    2.094198    4.231080
 H    1.310106    5.303604   -1.411260
 H    0.164419    6.054927   -0.383654
 H   -0.616160    2.514532   -2.000247
 H    4.553662   -0.303680    4.698519
