74 
1rjk_ligand_xtb.xyz
 O    7.523635   -2.170805    0.987112
 C    6.487907   -1.251364    0.726737
 C    7.045866    0.139398    0.592501
 C    8.335858    0.419849    0.657320
 C    5.984180    1.182897    0.346108
 O    5.069461    1.272147    1.425207
 C    5.176710    0.821506   -0.911835
 C    5.722870   -1.589897   -0.571517
 C    4.642305   -0.573821   -0.795520
 C    3.351896   -0.928354   -0.826420
 C    2.222735   -0.047072   -0.984554
 C    0.938160   -0.404734   -1.101029
 C    0.413254   -1.813267   -1.135637
 C   -0.658642   -2.030286   -0.062006
 C   -0.185640    0.577789   -1.229886
 C   -1.198033    0.435700   -0.064556
 C   -1.770488   -0.982839   -0.135680
 C   -0.511113    0.676896    1.281820
 C    0.098474    2.073668   -1.269499
 C   -1.262134    2.708492   -0.936546
 C   -2.184565    1.578781   -0.409944
 C   -3.124127    2.105790    0.688012
 C   -3.969861    3.257365    0.134401
 C   -4.045223    1.049659    1.317430
 C   -5.013516    0.372025    0.350739
 C   -5.815325   -0.722395    1.052506
 C   -6.937351   -1.317904    0.178398
 C   -6.380616   -1.962363   -1.091251
 C   -7.709133   -2.363355    0.995814
 O   -7.821677   -0.295024   -0.253724
 H    7.144955   -3.056151    1.000277
 H    5.761818   -1.254254    1.558898
 H    8.703222    1.426206    0.542703
 H    9.060810   -0.355947    0.825013
 H    6.467848    2.162375    0.193963
 H    5.565808    1.429324    2.235409
 H    5.845760    0.890037   -1.774009
 H    4.379519    1.551704   -1.028716
 H    5.303265   -2.596559   -0.496045
 H    6.441751   -1.575378   -1.396571
 H    3.128352   -1.982320   -0.722118
 H    2.452804    1.006986   -0.999401
 H    1.208565   -2.545083   -1.002646
 H   -0.035072   -1.988596   -2.119452
 H   -1.093633   -3.025308   -0.186241
 H   -0.190063   -1.998072    0.922635
 H   -0.730959    0.322749   -2.149124
 H   -2.473956   -1.166662    0.675899
 H   -2.309773   -1.105313   -1.079113
 H   -0.305768    1.732067    1.430963
 H   -1.140115    0.335272    2.100847
 H    0.436878    0.146780    1.328887
 H    0.837261    2.343622   -0.516353
 H    0.474071    2.391043   -2.241955
 H   -1.139375    3.483840   -0.180188
 H   -1.700493    3.176255   -1.817367
 H   -2.806377    1.231938   -1.241564
 H   -2.508285    2.506738    1.500817
 H   -3.353273    4.116753   -0.112743
 H   -4.703834    3.572440    0.873175
 H   -4.497326    2.950615   -0.765141
 H   -3.438427    0.287098    1.806757
 H   -4.623933    1.542540    2.104633
 H   -4.457177   -0.066500   -0.474944
 H   -5.709708    1.104161   -0.059501
 H   -6.269474   -0.302865    1.956412
 H   -5.149199   -1.529114    1.364730
 H   -5.589613   -2.664954   -0.845644
 H   -7.176476   -2.486768   -1.613045
 H   -5.992962   -1.194580   -1.753225
 H   -8.087301   -1.926619    1.919252
 H   -8.553000   -2.732677    0.417704
 H   -7.063590   -3.199890    1.248158
 H   -8.211555    0.119538    0.523769
