24 
1rpj_ligand_dft.xyz
 C    0.836200   -1.192487    0.225949
 C    1.626868   -0.124092   -0.519608
 C    0.994350    1.245119   -0.298601
 C   -0.511682    1.220048   -0.568912
 C   -1.170901    0.033072    0.148734
 C   -2.627178   -0.160024   -0.235635
 O    1.416288   -2.417069   -0.083720
 O    2.953958   -0.045302   -0.041953
 O    1.147467    1.639819    1.054366
 O   -1.100699    2.438891   -0.184816
 O   -0.503523   -1.179698   -0.205505
 O   -3.193239   -1.259867    0.437035
 H    0.873485   -0.992000    1.310101
 H    1.594213   -0.380203   -1.588835
 H    1.472276    1.980729   -0.960955
 H   -0.674697    1.106388   -1.647086
 H   -1.101836    0.183236    1.236753
 H   -3.193540    0.729829    0.046189
 H   -2.695144   -0.278516   -1.329381
 H    0.997390   -3.098683    0.456182
 H    3.301673   -0.947254   -0.030568
 H    2.075226    1.481689    1.279905
 H   -0.688361    2.677875    0.658701
 H   -2.608628   -2.007098    0.254172
