10 
1rql_ligand_xtb.xyz
 O   -1.211472   -1.139428    0.567689
 S   -0.409898   -0.047104    0.131421
 C    1.209562   -0.632626   -0.319290
 C    2.252007    0.087909    0.018084
 O   -0.312096    1.129242    0.942237
 O   -0.943946    0.433720   -1.319537
 H    1.206796   -1.564532   -0.851485
 H    2.100446    1.002633    0.567816
 H    3.266393   -0.190897   -0.218929
 H   -1.044569    1.386491   -1.316005
