23 
1rsi_ligand_dft.xyz
 N   -2.390813   -3.340166    0.114675
 C   -1.869894   -2.075232    0.125441
 N   -0.578824   -1.910735    0.116129
 C   -0.088507   -0.627922    0.062057
 C   -0.914259    0.466203    0.007420
Br   -0.324584    2.241838   -0.192573
 C   -2.358914    0.313831    0.030165
 O   -3.208886    1.179988   -0.017736
 N   -2.747824   -1.037491    0.107464
 C    1.397463   -0.568089    0.056941
 C    2.108627    0.317317    0.870580
 C    3.499109    0.310665    0.864230
 C    4.192358   -0.572815    0.042280
 C    3.489019   -1.464918   -0.763155
 C    2.099809   -1.472353   -0.744814
 H   -1.701927   -4.055851    0.297349
 H   -3.288934   -3.495675    0.547583
 H   -3.747925   -1.187975    0.061919
 H    1.575336    1.008001    1.514069
 H    4.041355    0.997794    1.506618
 H    5.278339   -0.570465    0.033550
 H    4.023760   -2.161324   -1.402064
 H    1.544888   -2.180108   -1.351830
