44 
1rt1_ligand_xtb.xyz
 C   -2.074949   -0.147500    0.300736
 C   -3.083006   -0.950164    0.823383
 C   -4.295956   -1.072006    0.170543
 C   -4.516977   -0.395045   -1.017142
 C   -3.518935    0.405561   -1.544331
 C   -2.306042    0.531067   -0.888892
 C    0.382557    0.378153    0.183065
 N    0.830377   -0.625030   -0.662918
 C    1.881408   -0.443307   -1.543216
 O    2.290129   -1.314812   -2.277424
 N    2.425693    0.809225   -1.527889
 C    2.069135    1.878915   -0.719378
 O    2.672208    2.926675   -0.816034
 C    0.959039    1.606824    0.188382
 C   -0.773178   -0.008398    1.057586
 C    0.594617    2.793717    1.059205
 C    0.903019    2.562437    2.541839
 C   -0.829806    3.307617    0.838286
 C    0.271433   -1.974321   -0.610820
 O    0.583029   -2.645633    0.565437
 C    1.942139   -3.049715    0.676241
 C    2.075491   -3.933298    1.904307
 H   -2.911807   -1.484453    1.746888
 H   -5.069353   -1.699245    0.588901
 H   -5.462465   -0.491981   -1.528861
 H   -3.683458    0.936787   -2.469856
 H   -1.533918    1.159525   -1.308141
 H    3.193291    0.965733   -2.172619
 H   -0.545144   -0.955966    1.550663
 H   -0.907921    0.741342    1.833927
 H    1.270132    3.589694    0.724306
 H    0.223817    1.854582    3.009662
 H    1.918387    2.190805    2.658166
 H    0.822375    3.505848    3.077045
 H   -0.992969    3.513218   -0.216989
 H   -1.589913    2.606504    1.170066
 H   -0.963669    4.236972    1.387570
 H    0.672996   -2.497946   -1.489226
 H   -0.818844   -1.927065   -0.669391
 H    2.589882   -2.166297    0.768246
 H    2.235755   -3.594130   -0.231126
 H    1.783797   -3.381977    2.794113
 H    1.429054   -4.800998    1.806910
 H    3.104627   -4.263377    2.010808
