19 
1s39_ligand_xtb.xyz
 C   -2.939084    0.266858    0.001112
 C   -2.758945   -1.116447   -0.000060
 C   -1.497161   -1.663031   -0.001016
 C   -0.369003   -0.833255   -0.000669
 N    0.873094   -1.408435   -0.000448
 C    1.901035   -0.629224    0.000207
 N    3.142364   -1.167079    0.000451
 N    1.815795    0.739155    0.000042
 C    0.608950    1.437404   -0.000415
 O    0.614867    2.650286   -0.000938
 C   -0.555235    0.563635   -0.000110
 C   -1.844845    1.099932    0.000851
 H   -3.936744    0.679256    0.002217
 H   -3.623166   -1.765007   -0.000104
 H   -1.344784   -2.730688   -0.001863
 H    3.217891   -2.166700    0.002589
 H    3.968792   -0.600218    0.003442
 H    2.655374    1.305745   -0.000017
 H   -1.949344    2.174602    0.001526
