19 
1s50_ligand_xtb.xyz
 N   88.125641   -7.827591   -9.949761
 C   87.741419   -7.420703  -11.286260
 C   88.574021   -6.252546  -11.805050
 O   89.338103   -5.613124  -11.132472
 C   86.259310   -7.017269  -11.304788
 C   85.382111   -8.179874  -10.854001
 C   83.979695   -7.738598  -10.533710
 O   83.616590   -6.609113  -10.348152
 O   83.141731   -8.783054  -10.459711
 O   88.364897   -6.009590  -13.102034
 H   89.094895   -8.126553   -9.937242
 H   88.054954   -7.030905   -9.323088
 H   87.889341   -8.268200  -11.965844
 H   86.103985   -6.177318  -10.624758
 H   85.982503   -6.697822  -12.309544
 H   85.339109   -8.969816  -11.603983
 H   85.811555   -8.610858   -9.945602
 H   82.247898   -8.484033  -10.229485
 H   88.893242   -5.250033  -13.396513
