94 
1sdv_ligand_xtb.xyz
 N    3.059723    3.281961   -1.596018
 C    3.519837    2.068943   -2.239745
 C    2.884214    0.847059   -1.554068
 C    3.575521    0.653042   -0.189851
 O    4.788721    0.699101   -0.134242
 N    2.780162    0.371177    0.852873
 C    3.221466    0.269170    2.246938
 C    1.976844   -0.053111    3.070112
 C    3.817813    1.608409    2.685804
 C    4.254155   -0.851946    2.373354
 N    1.416778    0.919617   -1.498351
 C    0.991943    2.231478   -0.985860
 C    1.623305    3.412631   -1.719791
 C    0.766381    0.625643   -2.778756
 C    1.027457   -0.780709   -3.342081
 O    2.260202   -0.731788   -4.034904
 C    1.024138   -1.919289   -2.310832
 C   -0.368573   -2.319095   -1.818900
 C   -0.320690   -3.758340   -1.210016
 C    0.732512   -3.914452   -0.152302
 C    1.976048   -4.456311   -0.454509
 C    2.939688   -4.605524    0.526665
 C    2.668304   -4.221801    1.828907
 C    1.430252   -3.684554    2.140820
 C    0.470994   -3.526486    1.157044
 C   -0.957669   -1.376286   -0.819175
 O   -0.235582   -0.564052   -0.062789
 N   -2.295658   -1.407098   -0.639372
 C   -2.991978   -0.865050    0.507448
 C   -3.618101   -2.009580    1.355038
 O   -2.832265   -3.174782    1.241096
 C   -5.053952   -2.182531    0.813214
 C   -5.358891   -0.848072    0.199202
 C   -6.583123   -0.342274   -0.189184
 C   -6.634389    0.941640   -0.714042
 C   -5.483955    1.703965   -0.830672
 C   -4.248976    1.199061   -0.445880
 C   -4.203143   -0.084539    0.061135
 C   -0.068840    3.005352    3.385451
 C   -0.534768    3.494607    2.192036
 C   -1.497369    2.792626    1.404012
 N   -1.978723    3.202361    0.256452
 C   -1.568715    4.376771   -0.225919
 C   -0.633200    5.168918    0.440051
 C   -0.106710    4.736116    1.628404
 H    3.538528    4.090873   -1.975752
 H    3.281156    2.041296   -3.318506
 H    4.601279    1.990917   -2.120044
 H    3.164485   -0.026069   -2.150120
 H    1.782279    0.394234    0.731213
 H    1.505100   -0.961006    2.700480
 H    2.246013   -0.198462    4.112876
 H    1.263968    0.767784    3.011431
 H    4.152513    1.551632    3.717922
 H    3.071460    2.395438    2.601413
 H    4.664225    1.858128    2.052524
 H    3.828063   -1.792400    2.030560
 H    5.123465   -0.619126    1.766214
 H    4.563209   -0.959387    3.409511
 H    0.509833   -0.109743   -0.587718
 H    1.297414    2.307023    0.058867
 H   -0.095982    2.292548   -1.030862
 H    1.300956    4.334296   -1.233521
 H    1.285355    3.441034   -2.772586
 H    1.071092    1.323788   -3.567510
 H   -0.310598    0.742540   -2.623712
 H    0.222930   -0.975432   -4.074225
 H    2.440258   -1.586000   -4.442014
 H    1.460471   -2.793133   -2.802645
 H    1.670235   -1.675869   -1.466834
 H   -1.048814   -2.369329   -2.679663
 H   -0.133263   -4.462496   -2.023021
 H   -1.297065   -3.980439   -0.776518
 H    2.190540   -4.781515   -1.463314
 H    3.901144   -5.028924    0.276444
 H    3.414868   -4.350593    2.598556
 H    1.210466   -3.397447    3.158884
 H   -0.496530   -3.116727    1.402013
 H   -2.802012   -2.120020   -1.142422
 H   -2.270964   -0.270177    1.069088
 H   -3.659547   -1.674162    2.400390
 H   -3.163825   -3.837113    1.855498
 H   -5.073304   -2.973320    0.056635
 H   -5.761858   -2.450819    1.598048
 H   -7.483162   -0.929616   -0.080413
 H   -7.585230    1.352860   -1.019733
 H   -5.545727    2.709407   -1.217957
 H   -3.361478    1.817456   -0.492542
 H    0.651481    3.548416    3.971142
 H   -0.461386    2.094567    3.803572
 H   -1.878461    1.842180    1.762997
 H   -2.003121    4.678478   -1.170157
 H   -0.334427    6.118219    0.015069
 H    0.622401    5.329364    2.163758
