92 
1sgu_ligand_dft.xyz
 N    8.505881   23.046962    4.071271
 C    8.920008   23.852360    5.210013
 C   10.306163   24.451089    4.970424
 C   10.702958   25.229646    6.233399
 O   10.838948   24.669981    7.312640
 N   10.856409   26.563819    6.043673
 C   11.251165   27.535703    7.077345
 C   11.308942   28.901862    6.388301
 C   12.634209   27.170150    7.633360
 C   10.204314   27.558984    8.198278
 N   11.265382   23.389940    4.718627
 C   10.842529   22.548849    3.609693
 C    9.460378   21.969233    3.861871
 C   12.636109   23.852147    4.565502
 C   13.653046   22.808618    5.021961
 O   14.918831   23.450901    4.925665
 C   13.335937   22.314117    6.439482
 C   14.494582   21.533828    7.068332
 C   14.105395   20.846573    8.390408
 C   15.279962   20.090860    8.966701
 C   16.270781   20.759247    9.691328
 C   17.406086   20.089477   10.139218
 C   17.568797   18.731510    9.866613
 C   16.586300   18.053611    9.145744
 C   15.453642   18.729951    8.698096
 C   14.994582   20.471007    6.098632
 O   14.274581   19.579463    5.674838
 N   16.295151   20.635938    5.702005
 C   16.994697   19.633051    4.934752
 C   18.021467   18.835641    5.798270
 O   18.574494   19.674653    6.797073
 C   19.133562   18.454002    4.804722
 C   19.062646   19.534249    3.750851
 C   20.000830   19.893963    2.791800
 C   19.707139   20.941654    1.919393
 C   18.491395   21.619909    2.006707
 C   17.548651   21.255125    2.966462
 C   17.847069   20.209788    3.829279
 C    7.146858   22.555530    4.223108
 C    6.123559   23.665667    4.149160
 C    6.235888   24.674296    3.187670
 N    5.364822   25.672469    3.040922
 C    4.318832   25.698196    3.871990
 C    4.108102   24.752482    4.868803
 C    5.031905   23.722125    5.009307
 H    8.201010   24.665492    5.353780
 H    8.962065   23.259818    6.141094
 H   10.231906   25.140009    4.103954
 H   10.763599   26.908953    5.100340
 H   11.595338   29.672552    7.109754
 H   12.050319   28.906071    5.580258
 H   10.332459   29.175080    5.971526
 H   12.945971   27.907619    8.380977
 H   12.606297   26.184369    8.102355
 H   13.379117   27.156295    6.830198
 H   10.482598   28.301045    8.954445
 H    9.220783   27.825953    7.797108
 H   10.135231   26.578833    8.674269
 H   10.825999   23.115529    2.658386
 H   11.558088   21.728449    3.496588
 H    9.505268   21.288774    4.733129
 H    9.149229   21.383676    2.989595
 H   12.862022   24.154021    3.527291
 H   12.797981   24.734080    5.193495
 H   13.632432   21.944590    4.340566
 H   15.596127   22.760862    4.934020
 H   13.080543   23.164896    7.081492
 H   12.444633   21.682222    6.387334
 H   15.309678   22.238470    7.276246
 H   13.750524   21.608948    9.092826
 H   13.272965   20.163165    8.194757
 H   16.151165   21.819185    9.904146
 H   18.165788   20.626318   10.699258
 H   18.453719   18.206647   10.213250
 H   16.702696   16.995246    8.930615
 H   14.702128   18.205222    8.115105
 H   16.899745   21.185625    6.300866
 H   16.231800   18.958257    4.533028
 H   17.551323   17.959753    6.259054
 H   18.103111   19.507702    7.624890
 H   20.099400   18.399118    5.314549
 H   18.928424   17.469756    4.363909
 H   20.954847   19.377311    2.727747
 H   20.435772   21.238476    1.170590
 H   18.280271   22.439513    1.326327
 H   16.604578   21.789221    3.045617
 H    6.961111   21.844134    3.408095
 H    7.012389   21.992892    5.167891
 H    7.091356   24.671063    2.515534
 H    3.618816   26.519507    3.733483
 H    3.245674   24.826407    5.523286
 H    4.907719   22.969248    5.784288
