53 
1sqa_ligand_dft.xyz
 N    8.836598   -0.730129   -0.842225
 C    8.280228   -0.093187    0.442088
 C    6.791433   -0.166512    0.416655
 C    6.117411   -1.249410    0.990613
 C    4.739422   -1.337304    0.911132
 C    3.992272   -0.344882    0.252966
 N    2.614717   -0.500129    0.205002
 C    1.671849    0.358701   -0.358028
 O    1.973277    1.425002   -0.856880
 C    0.263995   -0.135471   -0.280131
 C   -0.745661    0.850723   -0.233931
 C   -2.074997    0.491113   -0.177536
 N   -3.111997    1.417018   -0.164400
 C   -3.116713    2.782938    0.024585
 N   -4.339361    3.324069   -0.110257
 C   -4.418388    4.634958    0.076767
 C   -3.310925    5.418806    0.394458
 C   -2.105348    4.745234    0.502735
 N   -1.988467    3.427410    0.320931
 C   -2.435243   -0.905298   -0.156581
 C   -3.771801   -1.359604   -0.037827
 C   -4.086991   -2.699503   -0.052596
 C   -3.054639   -3.660882   -0.178380
 C   -1.751847   -3.255648   -0.276951
 C   -1.403938   -1.880362   -0.254964
 C   -0.049373   -1.473317   -0.313463
 C   -5.516683   -3.127529    0.063747
 N   -6.514484   -2.553470   -0.493143
 N   -5.711912   -4.279308    0.802331
 C    4.665682    0.748462   -0.320075
 C    6.045525    0.824250   -0.229618
 H    9.860647   -0.706128   -0.893295
 H    8.529721   -1.705893   -0.908953
 H    8.458615   -0.243854   -1.661923
 H    8.664341    0.929077    0.447708
 H    8.730026   -0.652574    1.264833
 H    6.667344   -2.023318    1.521794
 H    4.230590   -2.179488    1.371599
 H    2.238491   -1.285553    0.716420
 H   -0.465476    1.894060   -0.240803
 H   -4.036569    1.084607   -0.390753
 H   -5.407298    5.074304   -0.032514
 H   -3.388408    6.488285    0.544016
 H   -1.184966    5.271889    0.743960
 H   -4.587075   -0.659971    0.118963
 H   -3.313738   -4.714307   -0.205341
 H   -0.957674   -3.991182   -0.374429
 H    0.712590   -2.240282   -0.430150
 H   -6.200172   -1.805907   -1.109688
 H   -6.690381   -4.489310    0.954069
 H   -5.134746   -4.398143    1.623031
 H    4.095654    1.525947   -0.807740
 H    6.545002    1.691842   -0.657418
