48 
1sqc_ligand_xtb.xyz
 N    4.803959    0.895222    0.009659
 O    4.178814    1.533567   -1.059703
 C    5.998580    0.181186   -0.462043
 C    5.170631    1.892077    1.027554
 C    3.773699   -0.035041    0.563722
 C    3.336102   -1.128775   -0.405392
 C    2.117373   -1.881502    0.143074
 C    0.829338   -1.059608    0.145071
 C   -0.372105   -1.927920    0.519192
 C   -1.676346   -1.139086    0.642783
 C   -2.182455   -0.591636   -0.690673
 C   -3.521072    0.139172   -0.566148
 C   -4.688664   -0.790709   -0.243172
 C   -6.059900   -0.122887   -0.365866
 C   -6.311705    0.998966    0.651550
 C   -6.059094    2.394676    0.090922
 H    4.782135    2.164339   -1.488965
 H    6.389687   -0.455214    0.328757
 H    5.739595   -0.433676   -1.322310
 H    6.769886    0.893108   -0.755871
 H    4.280539    2.435885    1.342262
 H    5.614750    1.403241    1.891930
 H    5.889807    2.602124    0.618514
 H    2.907426    0.580944    0.809570
 H    4.174346   -0.474650    1.477609
 H    4.141037   -1.848825   -0.556746
 H    3.071404   -0.683259   -1.365080
 H    2.330672   -2.237156    1.152966
 H    1.961476   -2.759585   -0.484619
 H    0.677009   -0.632448   -0.846753
 H    0.895694   -0.238086    0.861932
 H   -0.165212   -2.414909    1.475102
 H   -0.497426   -2.711807   -0.229995
 H   -1.537579   -0.313122    1.344865
 H   -2.432083   -1.803952    1.061221
 H   -2.287579   -1.415463   -1.400294
 H   -1.448181    0.107177   -1.098625
 H   -3.728617    0.639789   -1.514834
 H   -3.434677    0.904900    0.206501
 H   -4.581898   -1.183120    0.769957
 H   -4.658782   -1.639590   -0.931381
 H   -6.814133   -0.900811   -0.229664
 H   -6.180829    0.271556   -1.376794
 H   -5.686030    0.838660    1.532203
 H   -7.350982    0.952883    0.982859
 H   -5.032130    2.509283   -0.244750
 H   -6.716935    2.585692   -0.754075
 H   -6.256896    3.147516    0.851063
