28 
1sre_ligand_dft.xyz
 C   -1.736587   -0.581419   -0.027594
 C   -2.760951    0.383431    0.022740
 C   -4.086890   -0.054213    0.006730
 C   -4.395971   -1.405035   -0.057082
 C   -3.372818   -2.351585   -0.108961
 C   -2.049378   -1.942581   -0.096522
 C    1.821444   -0.519181   -0.016241
 C    2.209994    0.804169   -0.280489
 C    3.546934    1.147065   -0.278501
 C    4.519779    0.174088   -0.010642
 C    4.142365   -1.146516    0.241973
 C    2.797855   -1.485974    0.229005
 C   -2.571466    1.889475    0.095855
 N   -0.394483   -0.110830   -0.020649
 N    0.494262   -0.988102    0.007415
 O   -3.523318    2.632667    0.096450
 O   -1.327807    2.360936    0.165031
 O    5.809230    0.577979   -0.021451
 H   -4.864880    0.699936    0.045006
 H   -5.434039   -1.722076   -0.068828
 H   -3.609061   -3.409956   -0.162456
 H   -1.237463   -2.658952   -0.141043
 H    1.462911    1.556713   -0.505955
 H    3.867564    2.161727   -0.487483
 H    4.896045   -1.904001    0.442363
 H    2.480339   -2.506235    0.417951
 H   -0.697813    1.603399    0.141867
 H    6.387244   -0.171037    0.169339
