31 
1srg_ligand_xtb.xyz
 C    2.033623   -0.665412    0.080473
 C    2.902385    0.442003   -0.105037
 C    4.269155    0.288050    0.121534
 C    4.785653   -0.922086    0.530950
 C    3.931959   -2.006468    0.732015
 C    2.582471   -1.888807    0.517147
 C   -1.480391   -0.762720   -0.363736
 C   -1.903585    0.362386    0.352855
 C   -3.243514    0.640381    0.528970
 C   -4.187491   -0.246653   -0.010416
 C   -3.771179   -1.369530   -0.723802
 C   -2.431879   -1.623427   -0.916162
 C    2.234136    1.684414   -0.506074
 C   -3.681447    1.865660    1.272188
 N    0.711623   -0.472250    0.057550
 N   -0.155823   -1.043786   -0.626683
 O    1.037247    1.733141   -0.684362
 O    2.978825    2.799011   -0.639010
 O   -5.507943    0.018120    0.169937
 H    4.952064    1.114977   -0.031581
 H    5.846536   -1.032232    0.692749
 H    4.341091   -2.954997    1.047172
 H    1.914163   -2.721719    0.673588
 H   -1.152013    1.040181    0.728584
 H   -4.514959   -2.039529   -1.136070
 H   -2.103895   -2.488331   -1.470503
 H   -3.236236    1.884399    2.265205
 H   -3.354082    2.758369    0.741797
 H   -4.762759    1.886947    1.365822
 H    3.913742    2.633238   -0.462220
 H   -6.038676   -0.657963   -0.268567
