31 
1srg_ligand_dft.xyz
 C    2.000404   -0.621714    0.045084
 C    2.923808    0.428456   -0.051904
 C    4.291204    0.144080   -0.055379
 C    4.738672   -1.169460    0.031122
 C    3.816504   -2.208680    0.137463
 C    2.455065   -1.937541    0.149004
 C   -1.525179   -0.834388   -0.069689
 C   -1.983405    0.486529    0.041984
 C   -3.336844    0.772337    0.093400
 C   -4.243636   -0.303718    0.033409
 C   -3.799439   -1.619211   -0.087776
 C   -2.437453   -1.882221   -0.148702
 C    2.460662    1.851065   -0.209669
 C   -3.856613    2.179965    0.201331
 N    0.629956   -0.259204    0.116425
 N   -0.159512   -1.193194   -0.138452
 O    1.654628    2.225490   -1.015644
 O    3.071458    2.735106    0.615260
 O   -5.562483    0.013771    0.089759
 H    5.008691    0.954202   -0.158381
 H    5.803110   -1.381063    0.016858
 H    4.161637   -3.235038    0.216881
 H    1.720971   -2.729862    0.243499
 H   -1.251496    1.287855    0.070270
 H   -4.517898   -2.434118   -0.141142
 H   -2.066281   -2.896744   -0.251274
 H   -4.454187    2.310184    1.110022
 H   -3.031283    2.895980    0.222130
 H   -4.507491    2.424441   -0.644833
 H    3.598089    2.255821    1.269236
 H   -6.088296   -0.792794    0.027861
