34 
1sri_ligand_dft.xyz
 C   -2.231326   -0.650862   -0.049233
 C   -3.242153    0.314233    0.058211
 C   -4.579869   -0.087214    0.063146
 C   -4.912273   -1.433903   -0.031348
 C   -3.903755   -2.388514   -0.147494
 C   -2.570927   -2.000477   -0.161130
 C    1.299697   -0.552631    0.047847
 C    1.639438    0.802176   -0.050752
 C    2.966243    1.194040   -0.102232
 C    3.957910    0.197681   -0.056363
 C    3.643397   -1.163680    0.052580
 C    2.299896   -1.518503    0.112579
 C   -2.903994    1.770613    0.224910
 C    3.370082    2.640321   -0.196840
 C    4.737998   -2.199707    0.110456
 N   -0.898581   -0.168458   -0.122054
 N   -0.028088   -1.032193    0.117341
 O   -3.586469    2.602712   -0.598070
 O   -2.136654    2.209362    1.036099
 O    5.243851    0.634216   -0.113924
 H   -5.364295    0.657241    0.173322
 H   -5.954313   -1.737153   -0.015742
 H   -4.158989   -3.440373   -0.233169
 H   -1.771700   -2.725891   -0.263641
 H    0.843699    1.540213   -0.068501
 H    2.008905   -2.561039    0.205319
 H    3.953698    2.827780   -1.104605
 H    2.489126    3.286910   -0.209851
 H    4.000442    2.928969    0.650962
 H    5.361061   -2.191887   -0.794197
 H    5.397875   -2.053708    0.976464
 H    4.315025   -3.203295    0.198058
 H   -4.067637    2.082609   -1.255863
 H    5.845784   -0.117583   -0.064425
