29 
1syo_ligand_xtb.xyz
 C   -1.252891   -1.628077   -0.520857
 C   -2.014750   -0.991328    0.650652
 C   -2.333642    0.480979    0.331332
 C   -1.062543    1.223562   -0.117012
 C   -0.394032    0.469906   -1.267991
 C    0.945701    1.100836   -1.634606
 O   -2.148500   -1.789068   -1.572698
 O   -1.343467   -1.105161    1.868824
 O   -2.884285    1.114403    1.456365
 O   -1.385621    2.514526   -0.571770
 O   -0.120521   -0.881578   -0.920428
 O    1.834855    1.153382   -0.544537
 P    2.186954   -0.089975    0.388679
 O    3.597851    0.399364    0.893546
 O    1.264389   -0.399938    1.494282
 O    2.578751   -1.310207   -0.553033
 H   -0.833853   -2.592822   -0.190835
 H   -2.957307   -1.539383    0.766605
 H   -3.074824    0.534260   -0.474358
 H   -0.361155    1.282999    0.728597
 H   -1.059173    0.505696   -2.142557
 H    0.777405    2.136332   -1.937725
 H    1.400336    0.532704   -2.453432
 H   -1.705959   -2.217513   -2.315962
 H   -0.402143   -0.848093    1.767348
 H   -2.479354    0.695788    2.233035
 H   -2.032718    2.873586    0.050730
 H    3.646706    0.315694    1.844457
 H    1.803043   -1.830670   -0.759601
