59 
1szd_ligand_xtb.xyz
 N   -1.773533    3.455729   -1.732346
 C   -2.899673    2.825517   -1.996155
 N   -3.487332    1.864926   -1.300093
 C   -2.827119    1.592473   -0.170587
 C   -1.660378    2.230054    0.270439
 C   -1.087915    3.159092   -0.622152
 N    0.078726    3.781053   -0.390905
 N   -1.292150    1.705204    1.487368
 C   -2.181159    0.788270    1.744390
 N   -3.136477    0.666941    0.787331
 C   -4.108623   -0.394248    0.645856
 C   -4.082115   -0.934493   -0.812768
 O   -5.227053   -0.597972   -1.537891
 C   -3.953655   -2.454413   -0.614442
 O   -5.198794   -3.088305   -0.570584
 O   -3.810711   -1.455521    1.502354
 C   -3.268150   -2.537589    0.760471
 C   -1.735537   -2.462695    0.681309
 O   -1.371745   -1.320377   -0.086477
 P    0.121882   -0.852109   -0.310321
 O    0.219814    0.265769   -1.227921
 O    0.823700   -2.218187   -0.696634
 O    0.635861   -0.576554    1.196374
 P    1.507283    0.667839    1.718991
 O    0.779693    1.070468    3.041013
 O    1.756128    1.757555    0.769500
 O    2.809356   -0.013117    2.329110
 C    4.036360    0.126380    1.644861
 O    2.966798   -0.613062   -0.377123
 O    3.550880    1.458717   -1.261282
 C    3.390630    0.116192   -1.522623
 O    4.560230   -1.744064   -2.458863
 C    4.753691   -0.504153   -1.847048
 O    6.228179   -1.746755   -0.409054
 C    5.350337   -0.652600   -0.429256
 C    4.092917   -0.842288    0.459308
 H   -3.397832    3.113735   -2.912617
 H    0.466963    4.273906   -1.179969
 H    0.724040    3.294694    0.219344
 H   -2.193276    0.180296    2.627850
 H   -5.107585   -0.007933    0.900551
 H   -3.179920   -0.570318   -1.312114
 H   -5.123964    0.330006   -1.799154
 H   -3.327435   -2.901741   -1.397614
 H   -5.817550   -2.534247   -1.068554
 H   -3.558405   -3.452496    1.283963
 H   -1.338776   -3.362139    0.205220
 H   -1.322310   -2.371356    1.689214
 H    1.739732   -2.062219   -0.947298
 H   -0.038914    1.537142    2.766644
 H    4.821196   -0.093022    2.373235
 H    4.135677    1.150847    1.272239
 H    2.769298    1.744968   -0.745876
 H    2.639864   -0.075030   -2.300107
 H    5.330601   -2.290523   -2.248720
 H    5.356032    0.166006   -2.471459
 H    6.679533   -1.786271    0.439565
 H    5.864938    0.276171   -0.155346
 H    4.019638   -1.875154    0.821681
