84 
1t31_ligand_xtb.xyz
 O    4.687145   -3.644073    1.131119
 P   -3.788092    2.660771   -0.017951
 O   -4.238391    2.967100   -1.379120
 O   -4.871732    1.917782    0.882962
 O   -3.475900    3.980674    0.840538
 C   -2.323869    1.571253    0.238946
 O   -1.661474    0.532266   -1.821561
 C   -2.418640    0.561306   -0.884431
 C   -7.012893   -0.946942   -1.965808
 C   -8.062414   -1.794730   -1.745057
 C   -7.955196   -2.825063   -0.797534
 C   -6.800155   -2.992759   -0.085795
 C   -5.699470   -2.135176   -0.289298
 C   -5.808166   -1.092776   -1.247490
 C   -4.712777   -0.226917   -1.450898
 C   -3.563629   -0.378177   -0.723074
 C   -3.442730   -1.435431    0.212080
 C   -4.492863   -2.284205    0.427382
 O   -2.098328   -1.099723    2.131962
 C   -2.159009   -1.507803    0.981907
 C    1.302821    3.827309   -0.165794
 C    0.303729    3.910577   -1.092561
 C   -0.876316    3.177087   -0.914920
 C   -1.059923    2.369652    0.181539
 C   -0.046637    2.278431    1.174633
 C    1.152790    3.021325    0.981475
 C    2.180414    2.941659    1.945114
 C    2.037306    2.172203    3.064120
 C    0.852177    1.449073    3.264080
 C   -0.162316    1.499020    2.347538
 N   -1.088192   -1.970810    0.305403
 C   -1.187105   -2.513090   -1.030892
 C    2.201550   -2.887660    1.979014
 N    3.061040   -2.084023    1.136766
 C    2.496410   -0.808430    0.768676
 C    1.178092   -1.015642    0.019384
 C    0.227962   -1.823618    0.906769
 C    0.876266   -3.162144    1.269567
 C    4.267911   -2.563942    0.755115
 C    5.473708   -0.750208   -2.332391
 C    4.690474   -1.485130   -1.489394
 C    5.081258   -1.691062   -0.150113
 C    6.264709   -1.168918    0.303416
 C    7.090323   -0.401147   -0.542288
 C    6.686701   -0.184120   -1.886032
 C    7.516076    0.580100   -2.732669
 C    8.691749    1.102874   -2.271466
 C    9.092049    0.886111   -0.943297
 C    8.309241    0.152086   -0.097126
 H   -5.761539    2.135235    0.600957
 H   -3.165415    4.687277    0.274468
 H   -2.495517    1.078904    1.195903
 H   -7.087626   -0.150866   -2.691970
 H   -8.982895   -1.677987   -2.297623
 H   -8.794699   -3.485040   -0.636375
 H   -6.713093   -3.783939    0.644793
 H   -4.792837    0.572002   -2.172307
 H   -4.403077   -3.082236    1.150249
 H    2.223256    4.378429   -0.293951
 H    0.414314    4.530856   -1.969211
 H   -1.653168    3.232488   -1.664253
 H    3.085097    3.509004    1.779112
 H    2.827705    2.118080    3.798277
 H    0.740249    0.847919    4.154548
 H   -1.054937    0.924994    2.537170
 H   -2.160071   -2.981233   -1.171828
 H   -0.417951   -3.270553   -1.168129
 H   -1.059803   -1.734243   -1.787550
 H    2.731612   -3.817259    2.194704
 H    2.015129   -2.352367    2.917350
 H    2.303107   -0.229998    1.681011
 H    3.203423   -0.250839    0.154332
 H    1.372246   -1.552725   -0.910071
 H    0.738489   -0.048729   -0.228321
 H    0.056517   -1.266566    1.835387
 H    1.070518   -3.753616    0.373019
 H    0.216998   -3.731681    1.925336
 H    5.174959   -0.594630   -3.359309
 H    3.770319   -1.926742   -1.843878
 H    6.575125   -1.346766    1.323024
 H    7.204972    0.742415   -3.754890
 H    9.323441    1.685389   -2.926040
 H   10.025609    1.304884   -0.597191
 H    8.612761   -0.019667    0.925575
