54 
1t49_ligand_dft.xyz
Br   -6.564802    1.319327   -2.099074
 C   -5.126561    0.724311   -1.038791
 C   -5.274896    0.710964    0.357928
 O   -6.433903    1.116925    0.887991
 C   -4.186060    0.268620    1.120054
Br   -4.347389    0.244072    3.009339
 C   -3.008606   -0.155888    0.530769
 C   -3.951299    0.306716   -1.635653
 C   -2.890252   -0.160955   -0.856513
 C   -1.631888   -0.600632   -1.529514
 O   -1.297970   -0.117704   -2.598349
 C   -0.776440   -1.607418   -0.863189
 C   -1.128238   -2.700623   -0.117455
 C   -2.427441   -3.335894    0.253075
 C   -2.673895   -3.425549    1.765005
 C    0.665780   -1.648367   -0.975463
 C    1.632092   -0.864690   -1.612211
 C    1.062473   -2.760480   -0.230285
 O   -0.029555   -3.402480    0.274405
 C    2.380367   -3.139780   -0.049766
 C    3.318460   -2.334897   -0.686152
 C    2.963252   -1.219423   -1.462847
 S    5.043494   -2.689651   -0.421864
 O    5.162487   -4.024466    0.134815
 O    5.775186   -2.263604   -1.598035
 N    5.495099   -1.668319    0.847723
 C    5.262360   -0.273347    0.735730
 C    4.343205    0.353428    1.578015
 C    5.958503    0.467253   -0.224319
 C    5.704664    1.823521   -0.360348
 C    4.775673    2.436121    0.477314
 C    4.105758    1.716725    1.458988
 S    4.439971    4.172519    0.286028
 O    3.702749    4.605091    1.463475
 O    5.665794    4.823627   -0.146336
 N    3.399051    4.216066   -1.027884
 H   -6.382892    1.054840    1.854956
 H   -2.180759   -0.474800    1.153128
 H   -3.846709    0.332023   -2.714663
 H   -2.416442   -4.348220   -0.169263
 H   -3.240566   -2.796237   -0.236926
 H   -1.821969   -3.883131    2.275260
 H   -2.856513   -2.441107    2.206343
 H   -3.557041   -4.040631    1.958546
 H    1.341104   -0.016637   -2.220502
 H    2.669324   -4.010411    0.527521
 H    3.740794   -0.646144   -1.954565
 H    5.191821   -2.079201    1.725185
 H    3.803827   -0.228499    2.320091
 H    6.685676   -0.029960   -0.854829
 H    6.243038    2.411402   -1.096027
 H    3.403537    2.219879    2.114373
 H    2.458730    4.462177   -0.735047
 H    3.756877    4.858158   -1.728328
