20 
1t4s_ligand_dft.xyz
 N    0.085487    1.723359    0.167616
 C   -0.030629    0.391671   -0.536544
 C   -1.425935   -0.108959   -0.157159
 O   -1.655882   -1.319893   -0.619683
 C    1.125934   -0.556133   -0.176425
 C    1.137040   -0.933790    1.308496
 C    2.467450    0.022948   -0.636351
 O   -2.193835    0.577650    0.477328
 H    0.643019    1.640702    1.023906
 H   -0.876980    1.992452    0.452182
 H    0.502968    2.452430   -0.414646
 H   -0.025091    0.598805   -1.611163
 H   -2.560951   -1.591874   -0.383953
 H    0.922515   -1.462613   -0.756349
 H    1.911622   -1.683836    1.486037
 H    1.381316   -0.087685    1.966125
 H    0.185659   -1.362943    1.637729
 H    3.262028   -0.709617   -0.475210
 H    2.460939    0.274061   -1.702135
 H    2.749131    0.920134   -0.069100
