8 
1t5a_ligand_dft.xyz
 C   -0.771428   -0.150915   -0.025021
 C    0.771316   -0.151174    0.024935
 O   -1.407234   -1.059570   -0.464362
 O    1.348991    0.981783   -0.434529
 O   -1.348613    0.981988    0.434777
 O    1.406803   -1.059967    0.464346
 H    0.712203    1.528960   -0.917338
 H   -0.711104    1.529700    0.916007
