82 
1tft_ligand_dft.xyz
 C   -2.185586    2.872266    0.230630
 C   -1.676264    1.546923    0.758157
 C   -3.549124    3.080639   -0.007111
 C   -1.256295    3.873951   -0.068843
 N   -1.094340    0.815925   -0.382268
 C   -2.765776    0.715567    1.435764
 C   -4.591150    2.035328    0.340134
 C   -3.949890    4.308508   -0.544589
 C   -1.669735    5.086453   -0.600849
 C   -0.143372   -0.105148   -0.253970
 C   -4.008156    0.637955    0.554206
 C   -3.026505    5.301783   -0.840143
 C    0.386543   -0.702593   -1.579500
 O    0.314872   -0.459004    0.836256
 N    1.522036   -1.567936   -1.301163
 C   -0.615014   -1.658559   -2.237727
 C    2.625179   -1.135651   -0.655799
 C    1.109729   -2.975927   -1.188174
 C   -0.392946   -2.973602   -1.478915
 C    3.045034    0.346851   -0.789237
 O    3.318343   -1.896495    0.031125
 N    3.626673    0.677968    0.506613
 C    4.019229    0.621282   -1.970607
 C    2.815860    1.205012    1.473117
 C    3.313748    0.314157   -3.299285
 C    4.383724    2.112155   -1.930139
 C    5.293287   -0.226343   -1.855220
 C    2.942979    0.519239    2.846961
 O    1.961448    2.043835    1.275558
 N    2.302776   -0.837185    2.633363
 C    4.349700    0.394568    3.412717
 C    2.061094   -1.642502    3.856769
 O   -1.041080   -2.966675   -0.220845
 C   -2.406969   -3.023383   -0.161000
 C   -3.247368   -3.210474   -1.257836
 C   -4.628416   -3.248491   -1.060488
 C   -5.173000   -3.106392    0.208800
 C   -4.321855   -2.932433    1.300582
 C   -2.947468   -2.889515    1.119726
 H   -0.848070    1.719392    1.451972
 H   -0.201855    3.689977    0.127579
 H   -1.409513    1.078551   -1.305993
 H   -2.372373   -0.280883    1.655036
 H   -3.015351    1.192430    2.392239
 H   -5.362720    2.014637   -0.437220
 H   -5.098395    2.352693    1.261893
 H   -5.006859    4.482543   -0.730753
 H   -0.943268    5.861372   -0.824241
 H   -3.744346    0.176102   -0.407174
 H   -4.756757   -0.019050    1.005851
 H   -3.363734    6.245675   -1.257343
 H    0.656700    0.108600   -2.260264
 H   -1.645236   -1.303190   -2.173797
 H   -0.356426   -1.787935   -3.293131
 H    1.309380   -3.358608   -0.186040
 H    1.667860   -3.577353   -1.910424
 H   -0.692905   -3.853530   -2.057944
 H    2.180147    1.001969   -0.908295
 H    4.273354   -0.042420    0.804391
 H    3.016475   -0.736721   -3.379007
 H    2.424315    0.942456   -3.431968
 H    3.988040    0.531214   -4.133263
 H    4.903623    2.369695   -1.003228
 H    3.490034    2.742663   -2.003165
 H    5.040975    2.359301   -2.769958
 H    5.835495   -0.015089   -0.926611
 H    5.082644   -1.299418   -1.890976
 H    5.969005    0.013360   -2.682120
 H    2.288035    1.063088    3.530085
 H    2.859336   -1.379780    1.949151
 H    1.406378   -0.686111    2.121444
 H    4.982627   -0.272891    2.817601
 H    4.819466    1.381017    3.427351
 H    4.335658    0.021879    4.439895
 H    1.462256   -1.053222    4.551952
 H    1.517675   -2.543145    3.569871
 H    3.011439   -1.915349    4.314029
 H   -2.851857   -3.338882   -2.259466
 H   -5.278169   -3.396556   -1.917473
 H   -6.247810   -3.140633    0.351186
 H   -4.732821   -2.830725    2.300434
 H   -2.268433   -2.761554    1.956539
