57 
1tfz_ligand_xtb.xyz
 O   -5.631050   -1.259550   -1.714991
 C   -6.868293   -1.150523   -1.052406
 C   -3.298341   -1.162741   -1.725439
 C   -2.087806   -0.940383   -1.108944
 C   -2.035634   -0.552403    0.230342
 C   -3.220672   -0.419889    0.939823
 C   -4.440941   -0.651773    0.328030
 C   -4.492000   -1.018481   -1.013027
 C    0.197501   -1.337233    1.019219
 C    1.457796   -1.042369    1.543112
 C    1.781867    0.239654    1.972066
 C    0.849121    1.251421    1.848974
 C   -0.380278    0.981238    1.280159
 C   -0.728730   -0.297153    0.865658
 C   -0.126753   -2.739015    0.607469
 C    3.502063   -1.897940    0.393055
 C    2.861867   -1.201263   -0.805569
 C    4.519252   -0.865093    0.772291
 N    3.486283    0.011281   -0.893797
 N    4.456740    0.172178    0.037146
 O    1.979811   -1.613070   -1.524801
 C    2.510577   -2.098086    1.546935
 O    2.619586   -2.993950    2.336030
 S   -1.470326    2.404156    1.065815
 O   -0.662627    3.576197    1.284385
 O   -2.644786    2.260793    1.882551
 C   -1.967375    2.423402   -0.684483
 C    3.201790    1.057371   -1.876902
 C    1.733545    1.469994   -1.734806
 C    4.115754    2.245127   -1.593393
 C    3.469654    0.493195   -3.274694
 H   -6.943956   -1.862087   -0.224149
 H   -7.035940   -0.135996   -0.677524
 H   -7.623385   -1.387548   -1.800155
 H   -3.351688   -1.455976   -2.761691
 H   -1.169564   -1.060464   -1.664359
 H   -3.194086   -0.129417    1.977313
 H   -5.341724   -0.540620    0.909459
 H    2.753631    0.441631    2.396773
 H    1.061851    2.261926    2.158850
 H   -1.200336   -2.882992    0.528897
 H    0.323205   -2.946101   -0.363830
 H    0.276504   -3.448470    1.326478
 H    3.944383   -2.864739    0.145754
 H    5.225111   -0.949778    1.574967
 H   -2.826598    1.782342   -0.822321
 H   -1.125202    2.091483   -1.277045
 H   -2.210855    3.452980   -0.916673
 H    1.548989    1.883804   -0.745354
 H    1.089043    0.607289   -1.883499
 H    1.492999    2.222461   -2.480893
 H    3.940837    2.628318   -0.592118
 H    5.158748    1.951617   -1.671101
 H    3.915838    3.034190   -2.312473
 H    2.826571   -0.362085   -3.463933
 H    4.507309    0.178876   -3.362963
 H    3.271135    1.252920   -4.025106
