44 
1tkz_ligand_xtb.xyz
 C   -1.642713    1.305886    0.096977
 C   -1.379558    2.414775   -0.910047
 C   -2.561255    2.531445   -1.870671
 C   -3.851044    2.797318   -1.099962
 C   -4.099701    1.691182   -0.078982
 C   -2.918121    1.572721    0.881122
 N    2.450973   -1.262817   -1.422477
 C    2.880868    0.016847   -1.138782
 O    3.896352    0.442213   -1.655316
 C    2.014957    0.781041   -0.237669
 C    0.881336    0.225237    0.258211
 S   -0.226636    1.180182    1.278742
 C    1.349826   -1.872724   -0.891776
 C    0.527279   -1.144190   -0.011145
 C   -0.565016   -1.787229    0.579134
 C   -0.850435   -3.096260    0.261573
 C   -0.058743   -3.807446   -0.637761
 C    1.039373   -3.198902   -1.201211
Cl   -2.210804   -3.875010    0.992466
 C    2.481023    2.165244    0.075766
 C    3.596959    2.147183    1.131787
 C    3.119966    1.602142    2.470808
 H   -1.709562    0.342843   -0.415650
 H   -0.461504    2.205705   -1.465183
 H   -1.244827    3.358487   -0.376539
 H   -2.660219    1.601637   -2.436417
 H   -2.375742    3.338150   -2.582049
 H   -4.691949    2.858297   -1.793329
 H   -3.772492    3.756127   -0.582796
 H   -4.238430    0.740425   -0.599466
 H   -5.009796    1.899938    0.486024
 H   -2.804181    2.500987    1.445434
 H   -3.093244    0.766382    1.596258
 H    3.039069   -1.791008   -2.056799
 H   -1.169565   -1.258801    1.299334
 H   -0.302301   -4.830280   -0.876135
 H    1.672613   -3.744993   -1.884335
 H    1.648012    2.766680    0.441071
 H    2.884153    2.606803   -0.838046
 H    3.956316    3.169532    1.262873
 H    4.426162    1.545695    0.756045
 H    2.268065    2.172716    2.833931
 H    2.814652    0.561650    2.381361
 H    3.916991    1.661695    3.208270
