45 
1tl1_ligand_xtb.xyz
 C   -0.491933    1.932793    0.066172
 C   -0.475209    3.292640   -0.612370
 C   -0.121986    4.376421    0.403078
 C   -1.119018    4.361716    1.558800
 C   -1.150034    2.988642    2.224441
 C   -1.495329    1.903350    1.203542
 N    0.333355   -2.839915    1.376068
 C   -1.016088   -2.668511    1.161516
 O   -1.820186   -3.411151    1.691392
 C   -1.358544   -1.537197    0.293581
 C   -0.390645   -0.754173   -0.236453
 S   -0.967649    0.675823   -1.232704
 C    1.336560   -2.088900    0.829571
 C    1.003702   -1.008822   -0.015866
 C    2.037454   -0.258040   -0.589024
 C    3.349455   -0.564036   -0.302590
 C    3.678598   -1.618747    0.547389
 C    2.675152   -2.378562    1.102564
Cl    4.617020    0.374071   -1.009573
 C   -2.815394   -1.353831   -0.001170
 C   -3.149099   -1.895007   -1.398028
 C   -4.623869   -1.706053   -1.724181
 O   -0.023314    0.875664   -2.333830
 H    0.507366    1.677823    0.424432
 H   -1.461979    3.494726   -1.037326
 H    0.244890    3.283310   -1.432434
 H    0.884671    4.198914    0.788534
 H   -0.127313    5.353215   -0.083193
 H   -0.847626    5.121940    2.293473
 H   -2.114915    4.602690    1.180326
 H   -0.171380    2.773769    2.659951
 H   -1.884626    2.980412    3.031575
 H   -1.495789    0.925032    1.689933
 H   -2.496610    2.088713    0.806531
 H    0.586032   -3.614972    1.978741
 H    1.806460    0.533853   -1.282715
 H    4.713365   -1.838164    0.755994
 H    2.915508   -3.206958    1.752390
 H   -3.386240   -1.912793    0.742508
 H   -3.095215   -0.301862    0.052861
 H   -2.897839   -2.956603   -1.435210
 H   -2.536634   -1.376334   -2.139984
 H   -4.885901   -0.650378   -1.711124
 H   -5.244030   -2.224627   -0.996766
 H   -4.847279   -2.102885   -2.711287
