44 
1tl3_ligand_xtb.xyz
 C    0.715426   -1.672871    0.004196
 C    0.229662   -2.697012   -1.025049
 C    1.428257   -3.305565   -1.747854
 C    2.364380   -3.982086   -0.750843
 C    2.828292   -2.984604    0.306284
 C    1.632212   -2.357681    1.016275
 N   -1.917885    2.372494   -0.865350
 C   -2.830227    1.433448   -0.423130
 O   -4.018321    1.634115   -0.601205
 C   -2.260058    0.226089    0.162361
 C   -0.906627    0.083743    0.279581
 O   -0.387570   -1.096840    0.714646
 C   -0.582510    2.354004   -0.594590
 C   -0.035469    1.220185    0.035575
 C    1.295598    1.281101    0.466471
 C    2.071000    2.382471    0.178167
 C    1.555289    3.460875   -0.535909
 C    0.228994    3.449731   -0.900962
Cl    3.713874    2.430399    0.720693
 C   -3.276581   -0.800596    0.602661
 C   -3.214078   -2.087933   -0.218420
 C   -3.119111   -1.105161    2.093261
 H    1.267529   -0.895803   -0.537156
 H   -0.439683   -2.210630   -1.737582
 H   -0.325590   -3.486061   -0.515138
 H    1.969597   -2.520084   -2.280774
 H    1.079799   -4.030797   -2.485104
 H    3.228152   -4.396310   -1.274052
 H    1.839411   -4.807178   -0.264827
 H    3.418346   -2.198272   -0.170863
 H    3.466229   -3.484267    1.037240
 H    1.058089   -3.125370    1.538108
 H    1.970677   -1.636289    1.762702
 H   -2.315262    3.190612   -1.311785
 H    1.709664    0.486012    1.063781
 H    2.184602    4.304457   -0.769241
 H   -0.200901    4.297831   -1.412390
 H   -4.256382   -0.339469    0.439553
 H   -3.237697   -1.865433   -1.282873
 H   -2.307440   -2.636493    0.012014
 H   -4.069397   -2.715785    0.020198
 H   -2.145243   -1.546010    2.287296
 H   -3.213358   -0.194026    2.679801
 H   -3.891378   -1.801916    2.410771
