54 
1tlo_ligand_xtb.xyz
 C    0.977153    2.701738   -0.766614
 O    2.199774    2.710128   -0.506281
 O    0.417379    1.944982   -1.584395
 C    0.134254    3.707147    0.031099
 C   -1.366639    3.385577    0.097110
 O   -2.046184    4.307642    0.912739
 C   -1.561552    1.984176    0.669468
 O   -1.572461    1.791970    1.880389
 N   -1.764534    1.015490   -0.234368
 C   -1.974750   -0.368881    0.157612
 C   -2.804074   -1.081411   -0.906095
 C   -3.218969   -2.505704   -0.519227
 C   -4.127243   -2.524655    0.708256
 C   -3.934013   -3.157287   -1.701924
 C   -0.596142   -1.010000    0.347927
 O   -0.093464   -1.739349   -0.495306
 N   -0.007320   -0.654198    1.500121
 C    1.391631   -0.899823    1.819781
 C    1.758714   -2.380024    1.654954
 C    3.256789   -2.663133    1.513592
 C    3.974399   -1.864488    0.409100
 N    3.161163   -1.665549   -0.773412
 C    2.802215   -0.447694   -1.244763
 N    3.554999    0.622641   -1.061616
 N    1.724481   -0.340194   -2.015466
 H    3.045014    1.577478   -0.988766
 H    0.263009    4.692790   -0.421468
 H    0.544959    3.751784    1.043163
 H   -1.807020    3.452177   -0.901909
 H   -1.936869    4.002423    1.825841
 H   -1.440087    1.197037   -1.178878
 H   -2.499478   -0.341061    1.117821
 H   -2.210109   -1.126143   -1.821623
 H   -3.696258   -0.484239   -1.104484
 H   -2.314069   -3.080962   -0.299956
 H   -4.987424   -1.876822    0.553331
 H   -4.488777   -3.534507    0.888500
 H   -3.601204   -2.195321    1.600487
 H   -4.208126   -4.182443   -1.464568
 H   -4.841146   -2.607386   -1.943819
 H   -3.293798   -3.168915   -2.580591
 H   -0.480785    0.062205    2.042534
 H    2.013326   -0.272456    1.172390
 H    1.553763   -0.579319    2.850324
 H    1.241096   -2.758019    0.775217
 H    1.381279   -2.937254    2.513880
 H    3.767282   -2.452522    2.454893
 H    3.367454   -3.730487    1.312470
 H    4.256146   -0.887184    0.807105
 H    4.896775   -2.390604    0.136283
 H    2.525078   -2.418115   -0.993439
 H    4.416296    0.537875   -0.549457
 H    1.297687    0.613633   -2.075836
 H    1.043474   -1.087187   -1.955088
