18 
1tnh_ligand_xtb.xyz
 C    0.839086    0.046350   -0.358286
 C    0.171106   -1.173078   -0.277948
 C   -1.191937   -1.212214   -0.058293
 C   -1.879961   -0.015916    0.081058
 C   -1.236981    1.210198    0.003316
 C    0.127280    1.233623   -0.214133
 C    2.325437    0.074095   -0.570435
 N    3.025703   -0.078169    0.757919
 F   -3.193013   -0.046303    0.294975
 H    0.712318   -2.098902   -0.407214
 H   -1.726604   -2.146354   -0.001752
 H   -1.805810    2.119780    0.106530
 H    0.634892    2.183472   -0.290464
 H    2.639323    1.019699   -1.013332
 H    2.644242   -0.746539   -1.214320
 H    4.047977   -0.071683    0.650655
 H    2.748368    0.690205    1.383060
 H    2.738307   -0.964110    1.194956
