12 
1tok_ligand_xtb.xyz
 C    1.738900    0.008723   -0.004153
 O    2.890365    0.363447   -0.028639
 O    1.397962   -1.260423   -0.002585
 C    0.677081    1.079070    0.024893
 C   -0.660731    1.053127    0.023142
 C   -1.572230   -0.113197    0.004240
 O   -2.872820    0.175775   -0.036965
 O   -1.219670   -1.270216    0.026756
 H    0.419351   -1.423791    0.017396
 H    1.151934    2.053790    0.040810
 H   -1.170950    2.011910    0.039501
 H   -3.065153    1.123086   -0.054984
