35 
1tou_ligand_xtb.xyz
 F   -0.875072    2.647755   -0.689731
 C   -1.691079    2.201041    0.283101
 F   -2.723310    3.048062    0.331874
 F   -1.016471    2.338294    1.431178
 C   -2.118868    0.772964    0.034201
 N   -1.201742   -0.140642    0.428762
 C   -3.304832    0.480965   -0.552625
 C   -3.653536   -0.905834   -0.789763
 O   -4.657772   -1.334750   -1.297800
 N   -2.650709   -1.790564   -0.347604
 C   -1.495478   -1.393040    0.229882
 S   -0.412438   -2.648409    0.736287
 C    1.014316   -1.697332    1.351592
 C    2.068931   -1.626772    0.244886
 O    2.625927   -2.657220   -0.087790
 N    2.316369   -0.445838   -0.347341
 C    1.827256    0.868118    0.006720
 C    2.958482    1.703260    0.609713
 C    4.110543    1.807270   -0.386048
 C    4.560776    0.409039   -0.801709
 C    3.373621   -0.385246   -1.343201
 H   -4.008305    1.240347   -0.849024
 H   -2.832049   -2.779976   -0.480699
 H    1.424392   -2.305279    2.158529
 H    0.636509   -0.755124    1.731239
 H    0.986589    0.808593    0.691521
 H    1.474692    1.351021   -0.911858
 H    3.307468    1.227330    1.528725
 H    2.577413    2.693360    0.860482
 H    4.943790    2.354158    0.057582
 H    3.777055    2.359485   -1.267636
 H    4.974596   -0.116858    0.060998
 H    5.335013    0.468073   -1.567263
 H    2.975060    0.098489   -2.240975
 H    3.667007   -1.407599   -1.584589
