16 
1tpw_ligand_xtb.xyz
 C   -1.389810    0.261897    0.336473
 C   -0.484399    1.478774    0.414211
 N   -2.570848    0.450836   -0.255450
 O   -3.420069   -0.642662   -0.413656
 O   -1.088715   -0.816535    0.827012
 O    0.824164    1.075040    0.707338
 O    1.584050   -1.374076    0.742897
 O    2.892825    0.301719   -0.452985
 O    0.617577   -0.308772   -1.454986
 P    1.393786   -0.135055   -0.233216
 H   -0.806176    2.133698    1.230167
 H   -0.513824    2.022079   -0.535359
 H   -2.825283    1.221595   -0.850847
 H   -2.911813   -1.394873   -0.049639
 H    0.719186   -1.722666    0.980424
 H    3.393660    0.288403    0.362583
