43 
1tpz_ligand_dft.xyz
 P    0.543378    2.327757   -0.428363
 O   -0.253069    1.261683   -1.061602
 O    1.219651    3.420229   -1.355741
 O   -0.099060    3.221169    0.689855
 O    1.848540    1.653788    0.376023
 P    3.048688    0.962311   -0.440240
 O    3.206310    1.553418   -1.784495
 O    4.277784    1.096396    0.575853
 O    2.793651   -0.594975   -0.440764
 C    3.168749   -1.512899    0.598743
 C    2.064691   -2.526116    0.817073
 O    1.014674   -1.925864    1.587812
 C    1.415619   -3.077988   -0.456860
 O    1.102711   -4.432854   -0.240240
 C    0.123126   -2.261429   -0.561418
 O   -0.829552   -3.010023   -1.264919
 C   -0.211064   -2.068323    0.929856
 N   -0.989009   -0.863567    1.193652
 C   -0.623303    0.203380    1.966802
 N   -1.487185    1.189047    1.913785
 C   -2.471221    0.743036    1.061727
 C   -3.617076    1.430966    0.535176
 O   -4.050007    2.538460    0.764858
 N   -4.290119    0.585893   -0.400718
 C   -3.894517   -0.655210   -0.805684
 N   -4.688357   -1.292441   -1.717874
 N   -2.836074   -1.263014   -0.329739
 C   -2.167711   -0.518641    0.594898
 H    1.907390    2.989948   -1.907489
 H   -0.711188    2.696179    1.273116
 H    4.568649    2.013458    0.675054
 H    3.371091   -0.981645    1.531329
 H    4.081123   -2.017701    0.269452
 H    2.481868   -3.359902    1.392335
 H    2.055342   -2.947593   -1.338722
 H    0.290590   -4.591762   -0.748077
 H    0.306691   -1.278573   -1.012936
 H   -1.685675   -2.553797   -1.138406
 H   -0.769520   -2.935422    1.305480
 H    0.299648    0.202113    2.524067
 H   -5.137662    0.992303   -0.776166
 H   -5.194723   -0.728221   -2.384055
 H   -4.286235   -2.133906   -2.104678
