16 
1trd_ligand_xtb.xyz
 C    1.398008    0.253466   -0.324804
 C    0.490099    1.468614   -0.404131
 N    2.593983    0.455552    0.232204
 O    3.447875   -0.633450    0.396517
 O    1.083492   -0.835669   -0.780996
 O   -0.813316    1.064314   -0.715778
 O   -1.595518   -1.378599   -0.736124
 O   -0.647963   -0.300059    1.464826
 O   -2.902234    0.321752    0.426165
 P   -1.404349   -0.131941    0.230212
 H    0.818993    2.133485   -1.208890
 H    0.507035    2.001223    0.551999
 H    2.867606    1.244475    0.794316
 H    2.929692   -1.395772    0.069664
 H   -0.731831   -1.742543   -0.952577
 H   -3.391483    0.310591   -0.396381
