46 
1tsm_ligand_dft.xyz
 C    0.159556   -1.030103    2.441549
 C    1.484255   -0.860179    1.785836
 C    2.586587   -1.450447    2.352733
 C    3.867959   -1.169359    1.843812
 C    4.039943   -0.288428    0.804653
 C    2.921075    0.337365    0.192172
 C    2.975645    1.298212   -0.861893
 C    1.848725    1.891422   -1.367391
 C    0.575837    1.510288   -0.904233
 C    0.456598    0.568959    0.085787
 C    1.622589    0.018838    0.680250
 C   -0.883951   -0.026598    0.491864
 C   -2.014084    0.983285    0.330326
 C   -2.128114    2.033779    1.247919
 C   -3.108044    3.001208    1.109246
 C   -3.996030    2.940122    0.032015
 C   -3.889252    1.904560   -0.893042
 C   -2.903930    0.932537   -0.737799
 C   -1.149455   -1.328858   -0.272233
 C   -2.100489   -2.218345    0.243814
 C   -2.408022   -3.397247   -0.412539
 C   -1.767184   -3.711411   -1.613622
 C   -0.822986   -2.834236   -2.141325
 C   -0.519252   -1.652707   -1.469832
 N    4.244652    1.705253   -1.478317
 O   -0.877603   -0.348264    1.904073
 O   -0.004781   -1.652500    3.459643
 O   -4.935929    3.915444   -0.056831
 O   -2.106046   -4.880068   -2.214631
 O    4.307654    2.833619   -1.940664
 O    5.154955    0.889744   -1.524226
 H    2.451538   -2.101747    3.209542
 H    4.737223   -1.635479    2.296135
 H    5.034524   -0.067991    0.443639
 H    1.949996    2.637020   -2.146452
 H   -0.308587    1.949477   -1.352309
 H   -1.444497    2.083696    2.089156
 H   -3.204778    3.810722    1.824689
 H   -4.578312    1.845812   -1.732662
 H   -2.839300    0.126360   -1.461250
 H   -2.595943   -1.981002    1.179481
 H   -3.138717   -4.090010   -0.009264
 H   -0.314379   -3.070979   -3.073205
 H    0.223225   -0.987671   -1.898546
 H   -5.492424    3.753782   -0.828111
 H   -1.585978   -4.988489   -3.019927
