33 
1tsv_ligand_dft.xyz
 N   -2.013845    0.601933    0.034044
 C   -1.692161   -0.732078    0.232945
 N   -2.755378   -1.597258    0.185721
 C   -4.112990   -1.310287   -0.051715
 C   -4.347637    0.107588   -0.274633
 C   -3.319644    0.970463   -0.232880
 O   -0.554926   -1.123046    0.452138
 O   -4.938079   -2.197775   -0.058088
 C   -0.963002    1.617743   -0.023310
 C   -0.055084    1.766078    1.194003
 C    1.104735    2.527149    0.568000
 C    1.182086    1.897773   -0.844430
 O    0.720600    3.891014    0.509430
 O   -0.107897    1.342210   -1.105733
 C    2.259916    0.838073   -1.005340
 O    2.389259    0.090503    0.200149
 P    2.754696   -1.478158    0.174922
 O    4.017395   -1.590405   -0.818833
 O    2.988217   -1.990559    1.531528
 O    1.635278   -2.133784   -0.741988
 H   -2.524865   -2.570059    0.348910
 H   -5.356321    0.438323   -0.478574
 H   -3.460750    2.031094   -0.404954
 H   -1.491008    2.563808   -0.195543
 H    0.280928    0.790807    1.545112
 H   -0.520422    2.331084    2.003409
 H    2.038496    2.395690    1.124681
 H    1.366538    2.683160   -1.590093
 H    1.444833    4.395953    0.121257
 H    3.222433    1.318881   -1.213864
 H    1.999998    0.190099   -1.848170
 H    4.782183   -1.904897   -0.319363
 H    0.746002   -1.924564   -0.379678
