33 
1tsy_ligand_xtb.xyz
 N    1.609101    0.374175    0.060986
 C    2.849016    0.668829    0.619068
 N    3.810039   -0.274258    0.394239
 C    3.704281   -1.466730   -0.331881
 C    2.375869   -1.672270   -0.870068
 C    1.403728   -0.769234   -0.662853
 O    3.056445    1.685128    1.240423
 O    4.664298   -2.189784   -0.450083
 C    0.561957    1.349819    0.242118
 C    0.286791    2.213983   -0.992997
 C   -1.124752    2.728099   -0.691607
 C   -1.731325    1.594943    0.164059
 O   -1.138093    3.893162    0.088628
 O   -0.671529    0.716257    0.527288
 C   -2.800982    0.795414   -0.580338
 O   -3.236750   -0.293334    0.191076
 P   -2.322527   -1.624116    0.137494
 O   -1.545243   -1.726884   -1.104353
 O   -1.558240   -1.720790    1.514114
 O   -3.384536   -2.767597    0.367933
 H    4.719285   -0.074696    0.798200
 H    2.191058   -2.569654   -1.433156
 H    0.397651   -0.918658   -1.027638
 H    0.865482    1.986342    1.088406
 H    1.015996    3.013816   -1.099400
 H    0.284628    1.589359   -1.886503
 H   -1.706533    2.876920   -1.611894
 H   -2.157704    2.029430    1.077171
 H   -0.720231    4.615627   -0.394088
 H   -3.672731    1.424117   -0.773136
 H   -2.380824    0.422728   -1.521151
 H   -0.965242   -0.974843    1.624686
 H   -3.605240   -3.184564   -0.463695
