36 
1ttm_ligand_dft.xyz
 S   -4.254275   -0.205402    0.494844
 O   -4.357510   -1.636685    0.353180
 O   -3.777122    0.423026    1.699397
 O   -3.349215    0.367570   -0.761439
 N   -5.703733    0.448932    0.097730
 C   -1.977156    0.126797   -0.697434
 C   -1.478859   -1.149755   -0.957290
 C   -0.109432   -1.343032   -0.940378
 C    0.779378   -0.287688   -0.679180
 C    0.228708    0.974110   -0.415808
 C   -1.146024    1.194220   -0.420546
 C    2.228815   -0.412362   -0.644295
 C    2.987317    0.666745   -0.323389
 C    2.376745    1.969873   -0.042795
 C    2.925177   -1.726874   -0.889232
 C    4.486342    0.568744   -0.203611
 O    2.970796    2.976409    0.251451
 O    1.004482    2.048543   -0.133502
 C    4.968664   -0.342573    0.960692
 C    3.954145   -1.377706    1.463464
 C    3.436281   -2.374596    0.418940
 H   -6.094974    0.061880   -0.753783
 H   -5.704126    1.462574    0.122534
 H   -2.163359   -1.965150   -1.157506
 H    0.277261   -2.337557   -1.131438
 H   -1.543619    2.177712   -0.202807
 H    3.777347   -1.539104   -1.551064
 H    2.285367   -2.432381   -1.424201
 H    4.891189    1.574074   -0.075787
 H    4.886774    0.191399   -1.152553
 H    5.240005    0.290888    1.811975
 H    5.889258   -0.850355    0.648644
 H    3.100126   -0.849004    1.902426
 H    4.410005   -1.942471    2.284895
 H    4.225888   -3.088684    0.156661
 H    2.625329   -2.956219    0.872861
