55 
1ttv_ligand_xtb.xyz
 C    1.363128   -0.824023    1.120487
 N    0.598448   -1.851708    1.117630
 C   -0.640011   -1.510657    1.771171
 C   -0.523954    0.037448    2.096249
 N    0.873025    0.263888    1.798137
 C   -1.846642   -1.813234    0.922454
 C   -1.722324   -2.004949   -0.446015
 C   -2.839464   -2.191302   -1.239061
 C   -4.093949   -2.178588   -0.653958
 C   -4.238743   -2.007564    0.713111
 C   -3.112756   -1.829714    1.494266
Cl   -5.500155   -2.380596   -1.640248
 C   -2.652064    1.337876    1.768680
 C   -3.540123    2.040760    0.976169
 C   -3.222780    2.277487   -0.351030
 C   -2.026809    1.826376   -0.884731
 C   -1.149519    1.123098   -0.081950
 C   -1.452741    0.866415    1.250528
Cl   -4.332199    3.144833   -1.353162
 C    4.562782    0.238823   -0.564638
 C    3.311009    0.338615    0.018528
 C    2.687300   -0.828989    0.506074
 C    3.340313   -2.045788    0.360083
 C    4.588610   -2.145125   -0.222414
 C    5.210063   -0.991431   -0.684749
 O    2.607297    1.498857    0.123875
 C    3.108772    2.723399   -0.402990
 C    4.109633    3.362308    0.558770
 C    1.891189    3.620889   -0.609545
 O    6.436449   -0.939885   -1.269626
 C    7.151816   -2.140955   -1.436885
 H   -0.711826   -2.076335    2.708743
 H   -0.721143    0.224050    3.157768
 H    1.200786    1.189006    1.574147
 H   -0.735098   -2.017421   -0.881490
 H   -2.740311   -2.338656   -2.303283
 H   -5.222133   -2.011626    1.156929
 H   -3.222223   -1.697164    2.560761
 H   -2.898480    1.151277    2.803703
 H   -4.472436    2.401152    1.381788
 H   -1.791807    2.017864   -1.920095
 H   -0.220507    0.763240   -0.498791
 H    5.084127    1.099155   -0.950279
 H    2.833792   -2.926776    0.720379
 H    5.059195   -3.110570   -0.307625
 H    3.583622    2.536059   -1.375432
 H    3.618126    3.594722    1.500881
 H    4.937797    2.687948    0.761961
 H    4.500602    4.280623    0.129485
 H    1.399615    3.810716    0.341685
 H    1.177942    3.140483   -1.274224
 H    2.197613    4.567896   -1.043771
 H    7.365686   -2.617817   -0.475314
 H    8.088440   -1.860828   -1.916292
 H    6.611919   -2.843105   -2.079661
