29 
1tuf_ligand_xtb.xyz
 C   -4.569179    0.183779    0.166766
 C   -3.119903    0.402589   -0.225851
 C   -2.295727   -0.870305   -0.045625
 C   -0.877136   -0.758713   -0.602496
 C    0.002869    0.213534    0.182417
 C    1.429705    0.304707   -0.361460
 C    2.259221   -0.951696   -0.099204
 C    3.694684   -0.790248   -0.615432
 C    4.414542    0.354807    0.073229
 O   -5.351123    1.277350    0.051942
 O   -5.024066   -0.852846    0.547923
 O    4.630634    0.178818    1.389897
 O    4.775444    1.352575   -0.478109
 H   -2.718490    1.214979    0.385896
 H   -3.092749    0.720352   -1.273146
 H   -2.817325   -1.685018   -0.550895
 H   -2.257717   -1.121217    1.015601
 H   -0.919780   -0.442755   -1.647540
 H   -0.428117   -1.752463   -0.576224
 H    0.032405   -0.091883    1.231043
 H   -0.436503    1.211658    0.141108
 H    1.929653    1.157042    0.104334
 H    1.396122    0.495060   -1.436010
 H    1.809536   -1.809446   -0.601110
 H    2.259770   -1.162951    0.974583
 H    3.680176   -0.581067   -1.685349
 H    4.258707   -1.712473   -0.448897
 H   -4.869426    2.051287   -0.267465
 H    4.292159   -0.669003    1.706774
