38 
1tvo_ligand_xtb.xyz
 C   -4.900974   -1.864470    0.269660
 C   -4.582552   -0.541124    0.256665
 N   -3.287922   -0.174444    0.138011
 C   -2.267219   -1.099455    0.023290
 C   -2.580146   -2.465385    0.036140
 C   -3.888036   -2.841672    0.158434
 N   -2.842959    1.069821    0.109948
 C   -1.515127    0.992423   -0.025279
 C   -1.084623   -0.349345   -0.070329
 C    0.258834   -0.893280   -0.114460
 C   -0.731069    2.217339   -0.154152
 C   -1.029221    3.320041    0.641813
 C   -0.295327    4.485630    0.523160
 C    0.736628    4.568138   -0.397071
 C    1.023964    3.482075   -1.208660
 C    0.295155    2.313570   -1.091991
 C    1.355349   -0.205360    0.390776
 C    2.577859   -0.854728    0.264888
 C    2.583409   -2.175914   -0.326533
 N    1.455440   -2.778426   -0.730538
 N    0.355900   -2.143944   -0.630211
 C    3.926261   -0.611745    0.565060
 N    4.586662   -1.711731    0.159403
 N    3.817304   -2.671410   -0.373999
 N    4.525054    0.447038    1.198412
 H   -5.932163   -2.163522    0.363683
 H   -5.298699    0.261015    0.334979
 H   -1.771784   -3.170336   -0.067489
 H   -4.159082   -3.885474    0.167847
 H   -1.839155    3.246559    1.351068
 H   -0.529113    5.334602    1.149124
 H    1.310539    5.478879   -0.488787
 H    1.816203    3.549155   -1.940930
 H    0.510328    1.472556   -1.735533
 H    1.254732    0.759615    0.866542
 H    3.986509    1.298963    1.195539
 H    5.507996    0.580941    1.016914
 H    5.578354   -1.881707    0.241402
