23 
1u0g_ligand_dft.xyz
 C   -1.760476    1.146589   -0.248935
 O   -2.985184    1.851109   -0.077483
 C   -2.171109   -0.307787   -0.478599
 O   -3.118366   -0.678915    0.510440
 C   -1.051246   -1.344744   -0.332983
 O   -0.657451   -1.413280    1.032912
 C    0.171746   -1.140356   -1.211630
 O    0.826232    0.103591   -0.972599
 P    2.035807    0.169310    0.105255
 O    1.304448    0.387721    1.499552
 O    3.002176   -0.934972   -0.024504
 O    2.614042    1.636251   -0.159789
 H   -1.192648    1.528010   -1.103015
 H   -1.131187    1.222431    0.646256
 H   -2.790386    2.720428    0.288029
 H   -2.615000   -0.399944   -1.481174
 H   -3.642153    0.122390    0.672638
 H   -1.482201   -2.315221   -0.621158
 H   -1.494722   -1.342245    1.524675
 H   -0.141071   -1.132775   -2.259875
 H    0.875331   -1.966097   -1.063809
 H    0.579182   -0.278073    1.572149
 H    3.477080    1.567193   -0.588894
