80 
1u1b_ligand_xtb.xyz
 P    0.852146   -1.008045   -0.201082
 O    0.017055   -2.195950   -0.259720
 O    1.594345   -0.712367    1.132213
 O    1.989797   -0.966745   -1.339608
 P   -1.071765    0.694796   -1.521849
 O   -1.777753    1.897624   -1.034245
 O   -0.533385    0.775399   -2.971210
 O    0.183138    0.410361   -0.581305
 P    6.762813   -1.970308    1.409739
 O    7.732564   -3.210903    1.290099
 O    5.781149   -2.050881    2.479143
 O    7.812883   -0.772960    1.428969
 N    3.533951    1.351763   -1.717635
 C    3.047377    2.253105   -0.810096
 N    3.575873    2.617101    0.361179
 C    2.842911    3.527790    0.981678
 N    1.707199    4.064546    0.587434
 C    1.154241    3.683968   -0.567560
 N   -0.004254    4.264763   -0.932704
 C    1.855546    2.750839   -1.357328
 N    1.639430    2.146958   -2.576960
 C    2.646499    1.333457   -2.740395
 C    2.734902   -2.125147   -1.666860
 C    4.243389   -1.836073   -1.569198
 O    4.584403   -0.668497   -2.310699
 C    4.636884    0.444316   -1.472105
 C    4.554443   -0.057890   -0.005656
 O    5.481923    0.558442    0.831670
 C    4.755705   -1.571449   -0.148809
 O    6.109324   -1.930217   -0.083021
 O   -1.242789   -0.170219    1.500213
 C   -2.559238   -0.658642    1.709519
 C   -2.949175   -1.492295    0.489195
 O   -4.180307   -2.153430    0.737984
 C   -4.998022   -2.158241   -0.403183
 C   -4.212290   -1.484919   -1.537742
 C   -3.146871   -0.674238   -0.799707
 O   -1.967418   -0.596570   -1.575192
 P   -0.821184    1.251682    2.086724
 O   -1.308755    1.186710    3.597560
 O   -1.786024    2.323109    1.479918
 O    0.625352    1.489351    1.961190
 N   -6.257386   -1.472126   -0.121757
 C   -6.287978   -0.314227    0.608266
 C   -7.420622   -2.055358   -0.594771
 O   -7.427601   -3.074888   -1.243309
 N   -8.564041   -1.368694   -0.280686
 C   -8.694620   -0.184464    0.441099
 O   -9.785251    0.302788    0.626793
 C   -7.418913    0.348298    0.908059
 C   -7.448035    1.609557    1.707954
 H    1.327448    0.155735    1.541701
 H    0.271254    1.380598   -3.020660
 H    8.418821   -3.069037    0.638081
 H    7.331434    0.053822    1.506245
 H    3.223605    3.872528    1.933040
 H   -0.584340    3.787066   -1.603355
 H   -0.471155    4.782862   -0.205148
 H    2.783374    0.701507   -3.594658
 H    2.496911   -2.381420   -2.704184
 H    2.455887   -2.956082   -1.016115
 H    4.793441   -2.666388   -2.022338
 H    5.583368    0.978230   -1.650850
 H    3.539725    0.097744    0.367510
 H    5.092861    1.426751    1.055452
 H    4.196021   -2.104651    0.623598
 H   -2.572490   -1.294814    2.598584
 H   -3.247066    0.179404    1.862647
 H   -2.148260   -2.222751    0.308684
 H   -5.287096   -3.187448   -0.654617
 H   -4.852487   -0.876419   -2.171523
 H   -3.707789   -2.231747   -2.148465
 H   -3.486977    0.344307   -0.575470
 H   -0.678600    1.612764    4.176617
 H   -1.792762    2.292819    0.486096
 H   -5.323966    0.027699    0.951015
 H   -9.425945   -1.784295   -0.619006
 H   -6.443364    1.948005    1.942959
 H   -7.975410    2.383339    1.153149
 H   -8.000010    1.446270    2.632207
