18 
1u1w_ligand_xtb.xyz
 O    2.332585   -1.314297   -0.324198
 C    1.996429   -0.190818   -0.025463
 O    2.939430    0.693123    0.339452
 C    0.594587    0.286145   -0.028753
 C    0.298796    1.653996   -0.103902
 C   -1.002697    2.098706   -0.139425
 C   -2.048278    1.189274   -0.051573
 C   -1.785914   -0.162298    0.034373
 O   -2.835214   -1.028520    0.141524
 C   -0.459491   -0.646529   -0.006476
 N   -0.246816   -2.006095    0.074941
 H    2.563482    1.538594    0.618108
 H    1.093438    2.383556   -0.188070
 H   -1.214535    3.152876   -0.220984
 H   -3.075486    1.516252   -0.044499
 H   -2.518778   -1.870111    0.493334
 H    0.722206   -2.266458   -0.074184
 H   -0.897614   -2.585348   -0.435202
