43 
1u2r_ligand_dft.xyz
 P   -2.802676    1.467532   -0.577722
 O   -2.833241    0.368897   -1.563919
 O   -4.191820    1.899042    0.063234
 O   -2.163727    2.843914   -0.957149
 O   -1.892806    1.018587    0.737183
 P   -2.202825   -0.390750    1.455077
 O   -3.647393   -0.694844    1.478417
 O   -1.434362   -0.224036    2.843605
 O   -1.236007   -1.456521    0.790556
 C   -1.700956   -2.415880   -0.179202
 C   -0.489825   -3.069768   -0.821911
 O    0.137688   -2.182955   -1.757907
 C    0.624056   -3.492108    0.139880
 O    1.328600   -4.559899   -0.442709
 C    1.506187   -2.240800    0.188056
 O    2.834046   -2.589038    0.471374
 C    1.318431   -1.663357   -1.234161
 N    1.210823   -0.202134   -1.204735
 C    0.203585    0.554142   -1.732888
 N    0.330493    1.829159   -1.449625
 C    1.485563    1.912816   -0.705120
 C    2.118178    3.042980   -0.082552
 O    1.808549    4.213158   -0.057444
 N    3.296183    2.608066    0.605953
 C    3.763650    1.327924    0.696828
 N    4.878947    1.129325    1.461446
 N    3.174832    0.304049    0.129722
 C    2.042095    0.657520   -0.545018
 H   -4.626039    1.105657    0.425574
 H   -1.213633    2.710574   -1.251946
 H   -1.824067    0.478062    3.382573
 H   -2.298526   -1.907623   -0.940353
 H   -2.309001   -3.165664    0.335293
 H   -0.836449   -3.937546   -1.390259
 H    0.235341   -3.754968    1.132756
 H    2.246601   -4.470960   -0.145411
 H    1.108135   -1.535036    0.923168
 H    3.321059   -1.745457    0.482888
 H    2.166056   -1.936766   -1.871925
 H   -0.621851    0.109200   -2.266959
 H    3.757956    3.350028    1.116816
 H    5.541833    1.884209    1.553604
 H    5.294164    0.214055    1.369143
