32 
1u3r_ligand_dft.xyz
 C   -5.001598    0.093643    0.000059
 C   -3.974194    1.036221    0.000272
 C   -2.693836    0.515423    0.000110
 C   -2.396216   -0.846001   -0.000225
 C   -3.432832   -1.774231   -0.000382
 C   -4.733958   -1.288585   -0.000249
 O   -1.514953    1.190340    0.000273
 C   -0.546899    0.209248    0.000027
 N   -1.013940   -0.997468   -0.000278
 C    0.839836    0.690312    0.000001
 C    1.971809   -0.197250    0.000083
 C    3.269874    0.394164   -0.000031
 C    3.425378    1.800890   -0.000181
 C    2.325859    2.617553   -0.000181
 C    1.036692    2.058499   -0.000063
 C    1.867330   -1.614765    0.000269
 C    2.997821   -2.389574    0.000278
 C    4.286386   -1.818238    0.000154
 C    4.418260   -0.452651    0.000019
 O   -6.274029    0.575353    0.000215
 O    5.625321    0.175369   -0.000098
 H   -4.187515    2.097850    0.000467
 H   -3.229708   -2.839420   -0.000612
 H   -5.566848   -1.987988   -0.000366
 H    4.426823    2.215601   -0.000264
 H    2.440794    3.696647   -0.000266
 H    0.175380    2.715985   -0.000075
 H    0.887654   -2.071327    0.000344
 H    2.904777   -3.471531    0.000395
 H    5.167435   -2.456193    0.000166
 H   -6.893518   -0.163627   -0.000320
 H    6.323317   -0.490163   -0.000395
