32 
1u3s_ligand_xtb.xyz
 C   -0.255723    0.894346    0.035309
 C   -0.873645   -0.294912    0.346236
 C   -2.268110   -0.437292    0.233363
 C   -3.044951    0.666161   -0.207856
 C   -2.389206    1.881555   -0.502515
 C   -1.035938    1.995692   -0.382104
 C   -2.924423   -1.648877    0.543351
 C   -4.276202   -1.768770    0.417715
 C   -5.047423   -0.673759   -0.025975
 C   -4.439195    0.518490   -0.330405
 O   -6.388655   -0.863619   -0.129815
 C    1.186175    1.049558    0.142551
 C    2.213794    0.055857   -0.016365
 C    3.394364    0.790224    0.201876
 O    3.085407    2.073608    0.456457
 N    1.724875    2.208194    0.408017
 C    2.300669   -1.296090   -0.349085
 C    3.544837   -1.870574   -0.418731
 C    4.714177   -1.128301   -0.171263
 C    4.656603    0.219940    0.137045
 O    5.892553   -1.791585   -0.261699
 H   -0.298125   -1.132328    0.711853
 H   -2.981759    2.725208   -0.826511
 H   -0.529198    2.922097   -0.601590
 H   -2.334316   -2.487716    0.882799
 H   -4.789765   -2.688223    0.649596
 H   -5.027980    1.361747   -0.668889
 H   -6.813603   -0.053831   -0.437639
 H    1.416869   -1.875202   -0.562773
 H    3.663025   -2.911980   -0.671525
 H    5.544505    0.807750    0.312614
 H    6.626955   -1.191612   -0.082486
