43 
1u71_ligand_dft.xyz
 N    4.200661   -0.788166    0.096499
 C    4.756392    0.280839   -0.433164
 N    6.102173    0.255691   -0.653913
 N    4.135147    1.427892   -0.808739
 C    2.859185    1.540128   -0.508582
 N    2.257234    2.691722   -0.953728
 C    2.148270    0.523003    0.229675
 C    0.818504    0.604290    0.735997
 C    0.034241    1.894761    0.755927
 C    0.265740   -0.546863    1.275438
 C    1.073775   -1.703107    1.329176
 N    2.327566   -1.788314    0.958245
 C    2.892003   -0.678162    0.422215
 C   -1.161052   -0.638167    1.782581
 C   -2.198056   -0.517744    0.684110
 C   -2.275980   -1.504837   -0.307189
 O   -1.417788   -2.552328   -0.164768
 C   -1.327726   -3.492360   -1.209166
 C   -3.201030   -1.380954   -1.343784
 C   -4.055854   -0.286593   -1.392523
 C   -4.003215    0.691598   -0.403481
 O   -4.882948    1.724525   -0.530849
 C   -4.855591    2.735013    0.447865
 C   -3.073951    0.564901    0.630847
 H    6.545134   -0.648323   -0.609683
 H    6.474990    0.935105   -1.296872
 H    2.839098    3.202989   -1.603890
 H    1.282573    2.651580   -1.205024
 H    0.688404    2.762252    0.855573
 H   -0.580827    2.012627   -0.146110
 H   -0.659661    1.903225    1.598743
 H    0.634927   -2.616590    1.730729
 H   -1.355639    0.127261    2.543328
 H   -1.283034   -1.604593    2.284070
 H   -2.261493   -4.058089   -1.325938
 H   -1.075328   -3.009425   -2.161870
 H   -0.524940   -4.175522   -0.929414
 H   -3.270025   -2.135280   -2.119368
 H   -4.778147   -0.181823   -2.195136
 H   -5.086743    2.339963    1.446180
 H   -3.881450    3.242305    0.480413
 H   -5.623693    3.454731    0.161566
 H   -3.011654    1.313778    1.413435
