27 
1u9e_ligand_xtb.xyz
 C   -4.086490    1.116000   -0.044732
 C   -2.816353    1.649731   -0.055960
 C   -1.751810    0.763471   -0.019382
 C   -1.943608   -0.631889    0.027240
 C   -3.235822   -1.155233    0.040454
 C   -4.296669   -0.270893    0.003370
 O   -0.430908    1.054107   -0.025041
 C    0.237776   -0.134500    0.012904
 C   -0.635185   -1.188122    0.047245
 C    1.686109   -0.099995    0.009657
 C    2.359953    1.123449    0.067723
 C    3.735803    1.175035    0.062887
 C    4.478139   -0.001645   -0.002784
 C    3.817250   -1.224553   -0.062023
 C    2.438426   -1.272966   -0.055341
 O   -5.592085   -0.697828    0.010487
 O    5.833516    0.089744   -0.007554
 H   -4.954622    1.754033   -0.073436
 H   -2.653885    2.714593   -0.093124
 H   -3.399206   -2.223565    0.077380
 H   -0.388268   -2.229008    0.086820
 H    1.786307    2.035555    0.118167
 H    4.260698    2.115826    0.109020
 H    4.390468   -2.141189   -0.115406
 H    1.941927   -2.228792   -0.106170
 H   -5.615933   -1.661427    0.043139
 H    6.223215   -0.791554   -0.057058
