42 
1ucn_ligand_dft.xyz
 P    0.430339   -2.210818   -0.955890
 O    1.089880   -2.815069    0.334492
 O    0.716208   -0.815501   -1.330084
 O    0.782962   -3.329567   -2.034128
 P   -2.179892   -1.828496    0.287279
 O   -3.553168   -2.592581   -0.021317
 O   -1.738495   -1.896398    1.690690
 O   -1.185493   -2.471983   -0.792564
 O   -2.432465   -0.385498   -0.331300
 C   -3.325319    0.507752    0.358305
 C   -2.708661    1.886730    0.477345
 O   -1.593456    1.830717    1.374697
 C   -2.199305    2.517623   -0.822598
 O   -2.418406    3.905150   -0.752257
 C   -0.697678    2.226434   -0.783266
 O   -0.016084    3.227573   -1.487544
 C   -0.424385    2.247779    0.735613
 N    0.647502    1.322766    1.092454
 C    0.551573    0.162666    1.800802
 N    1.650337   -0.562188    1.759474
 C    2.514474    0.174164    0.969837
 C    3.791452   -0.084487    0.442824
 N    4.495717   -1.194333    0.754140
 N    4.336372    0.808624   -0.396712
 C    3.627207    1.889506   -0.728404
 N    2.404653    2.234166   -0.324585
 C    1.899841    1.335620    0.531591
 H    1.262497   -2.116915    1.031869
 H    0.714617   -2.973009   -2.930111
 H   -3.687389   -3.317859    0.604670
 H   -4.256230    0.554490   -0.213913
 H   -3.536931    0.131377    1.363821
 H   -3.465280    2.549952    0.911050
 H   -2.678769    2.079627   -1.708407
 H   -1.658109    4.307419   -1.203578
 H   -0.482443    1.222233   -1.167469
 H    0.937881    3.107778   -1.301447
 H   -0.133309    3.254932    1.057846
 H   -0.362201   -0.128913    2.296156
 H    5.319124   -1.391489    0.207004
 H    4.033451   -1.960561    1.217112
 H    4.107259    2.569927   -1.426604
