42 
1ucn_ligand_xtb.xyz
 P    0.531925   -2.055564   -0.894843
 O    1.172955   -2.684940    0.371884
 O    0.664418   -0.617677   -1.119251
 O    1.091376   -2.972671   -2.050774
 P   -2.042027   -1.944302    0.190399
 O   -3.350307   -2.799129   -0.097897
 O   -1.595767   -1.981155    1.578715
 O   -1.025498   -2.527384   -0.881091
 O   -2.392150   -0.521625   -0.415169
 C   -3.302777    0.273002    0.340882
 C   -2.790271    1.705476    0.513379
 O   -1.712823    1.741811    1.442441
 C   -2.299060    2.355174   -0.790810
 O   -2.701467    3.694868   -0.839589
 C   -0.771340    2.226505   -0.692492
 O   -0.144686    3.314111   -1.304479
 C   -0.535164    2.182684    0.838394
 N    0.560910    1.294413    1.139074
 C    0.554753    0.143177    1.854650
 N    1.670654   -0.530319    1.768514
 C    2.475222    0.213422    0.937334
 C    3.745425    0.016978    0.371366
 N    4.524146   -1.042835    0.658423
 N    4.209039    0.941739   -0.474542
 C    3.457648    1.986366   -0.767130
 N    2.243734    2.272931   -0.327791
 C    1.778697    1.357309    0.525050
 H    1.357833   -2.000137    1.079097
 H    1.064415   -2.514294   -2.889769
 H   -3.376382   -3.583489    0.449713
 H   -4.260969    0.286160   -0.185045
 H   -3.432748   -0.165010    1.334112
 H   -3.606132    2.308599    0.931646
 H   -2.685491    1.812777   -1.663117
 H   -1.961478    4.191247   -1.222859
 H   -0.447939    1.271122   -1.122317
 H    0.819286    3.190312   -1.180153
 H   -0.273058    3.191681    1.205470
 H   -0.296206   -0.172617    2.422928
 H    5.356771   -1.174635    0.111066
 H    4.121028   -1.818615    1.153088
 H    3.886017    2.693154   -1.465001
