64 
1udt_ligand_dft.xyz
 C   -1.471966   67.092092   80.130584
 C   -0.905330   66.091707   81.137903
 C   -1.743652   66.011073   82.420858
 C   -1.167794   65.076879   83.438597
 N   -1.851630   64.035995   83.903852
 N   -1.070528   63.414015   84.798190
 C   -1.541133   62.222325   85.481790
 C    0.124251   64.034858   84.919975
 C    1.270436   63.756524   85.756006
 O    1.426311   62.874088   86.578366
 N    2.276716   64.702934   85.497116
 C    2.197102   65.751027   84.613641
 N    1.145096   66.003834   83.893349
 C    0.106045   65.121826   84.053374
 C    3.363846   66.655465   84.435859
 C    3.405118   67.344972   83.234467
 C    4.310108   68.374930   83.027154
 C    5.261990   68.694412   83.990580
 C    5.300891   67.949144   85.160668
 C    4.358428   66.935653   85.399558
 O    4.327867   66.201884   86.521817
 C    5.289510   66.421484   87.564956
 C    4.984484   65.432949   88.668720
 S    4.112404   69.314940   81.555502
 O    5.292262   70.100019   81.256638
 O    3.533059   68.443277   80.530445
 N    2.913927   70.460256   82.022458
 C    1.695400   69.965088   82.657995
 C    0.742950   69.277703   81.688934
 N    0.394363   70.193943   80.535549
 C   -0.603780   71.240658   80.905844
 C    1.643204   70.765549   79.890749
 C    2.587056   71.380040   80.930872
 H   -2.449778   66.772694   79.756845
 H   -1.628952   68.078545   80.595293
 H   -0.810942   67.204272   79.261909
 H    0.125581   66.353855   81.404206
 H   -0.856270   65.100457   80.674596
 H   -2.763345   65.685505   82.190696
 H   -1.824486   67.016218   82.861896
 H   -2.460285   62.454466   86.022828
 H   -1.736437   61.435190   84.750780
 H   -0.763756   61.905389   86.176871
 H    3.109766   64.616805   86.068093
 H    2.680923   67.080814   82.474814
 H    5.970761   69.498149   83.821525
 H    6.058476   68.174448   85.900426
 H    5.199022   67.455258   87.917948
 H    6.296478   66.269780   87.159369
 H    3.971831   65.580846   89.052942
 H    5.078482   64.404838   88.308107
 H    5.690898   65.573211   89.491433
 H    1.218848   70.825927   83.140839
 H    1.930887   69.261269   83.456844
 H   -0.187664   68.981607   82.176114
 H    1.209423   68.397575   81.244929
 H   -0.055114   69.598066   79.834271
 H   -1.491430   70.750947   81.308448
 H   -0.176841   71.906636   81.654258
 H   -0.865192   71.809372   80.012828
 H    1.317967   71.506087   79.157033
 H    2.134052   69.933001   79.384617
 H    3.507111   71.682699   80.424670
 H    2.159175   72.284434   81.377104
