14 
1ugp_ligand_dft.xyz
 C    2.101700    0.385023    0.616809
 C    1.465302   -0.400770   -0.528229
 C    0.076983   -0.937677   -0.184530
 C   -0.978662    0.153651   -0.073397
 O   -2.176338   -0.250133    0.411046
 O   -0.820617    1.298429   -0.401558
 H    1.494228    1.258166    0.870552
 H    2.205185   -0.237907    1.513471
 H    3.099608    0.737626    0.338632
 H    2.105527   -1.248175   -0.798783
 H    1.382901    0.237824   -1.413351
 H    0.109227   -1.502728    0.757980
 H   -0.265876   -1.641153   -0.956099
 H   -2.147093   -1.191383    0.627768
