54 
1ugx_ligand_xtb.xyz
 C   -1.612490    0.244455   -0.050906
 C   -2.621268    1.005874   -0.913287
 C   -3.958216    1.045548   -0.153879
 C   -4.409078   -0.388120    0.161321
 C   -3.282579   -1.136057    0.889274
 C   -3.610469   -2.626306    1.041160
 O   -2.202638    2.301629   -1.236970
 O   -4.947953    1.659324   -0.942755
 O   -4.746274   -1.060263   -1.021409
 O   -2.047354   -1.071377    0.194665
 O   -2.598152   -3.308944    1.728493
 O    4.519557   -3.197807    0.450325
 C    3.350377   -2.898453   -0.262746
 C    2.588804   -1.741850    0.404190
 O    3.424635   -0.589329    0.447832
 C    3.175140    0.337316   -0.589933
 O    4.162172    1.311873   -0.569022
 C    5.441349    0.851626   -0.965742
 C    1.814463    1.015048   -0.351933
 N    1.975858    1.999147    0.695297
 C    1.014588    2.859826    1.081102
 O   -0.122556    2.831090    0.643734
 C    1.471961    3.851285    2.126031
 C    0.753718   -0.047051    0.030616
 O   -0.410057    0.205135   -0.734300
 C    1.240437   -1.475235   -0.277724
 O    1.345495   -1.652129   -1.667413
 H   -1.494665    0.777720    0.916188
 H   -2.761792    0.451880   -1.851167
 H   -3.819019    1.607595    0.784472
 H   -5.284587   -0.346297    0.830646
 H   -3.151362   -0.676373    1.883927
 H   -4.523865   -2.742669    1.625895
 H   -3.764232   -3.041888    0.038932
 H   -1.507633    2.582381   -0.617160
 H   -4.522273    2.407073   -1.384866
 H   -5.251021   -0.429107   -1.555260
 H   -1.776327   -3.146972    1.250702
 H    4.950109   -2.359341    0.660289
 H    2.733556   -3.797804   -0.265016
 H    3.580427   -2.625946   -1.300787
 H    2.415952   -1.996274    1.456854
 H    3.161613   -0.188278   -1.561070
 H    5.398380    0.396597   -1.960458
 H    5.836996    0.125627   -0.251424
 H    6.080108    1.731397   -0.989656
 H    1.471248    1.503706   -1.272096
 H    2.918607    2.104293    1.038520
 H    1.926014    3.335258    2.968241
 H    2.208200    4.522812    1.689858
 H    0.621350    4.432565    2.469843
 H    0.536675    0.033524    1.102575
 H    0.499845   -2.184292    0.124144
 H    0.531275   -1.292276   -2.049899
