37 
1ung_ligand_xtb.xyz
 O   -5.502091   -0.916524    0.032877
 C   -4.144270   -0.914385    0.017553
 C   -3.479137    0.225227    0.462528
 C   -2.101845    0.269234    0.461970
 C   -1.348071   -0.817862    0.014918
 C   -2.024996   -1.957761   -0.419623
 C   -3.404588   -2.007038   -0.421073
 C    0.106514   -0.779175    0.000374
 N    0.831486   -1.925699    0.281327
 C    2.151477   -1.648891    0.191334
 N    3.176805   -2.460054    0.396521
 C    2.282460   -0.278168   -0.186294
 N    3.482489    0.270967   -0.364783
 C    4.503191   -0.543944   -0.159234
 C    4.358219   -1.882251    0.215512
 C    0.968121    0.252984   -0.303106
 C    0.659998    1.655727   -0.704023
 C    0.935708    2.626083    0.451189
 C    0.640541    4.081492    0.092076
 C   -0.848443    4.369700   -0.065288
 H   -5.835481   -1.759240   -0.298380
 H   -4.063847    1.062433    0.808817
 H   -1.600701    1.146776    0.835139
 H   -1.468831   -2.807788   -0.787840
 H   -3.913965   -2.896424   -0.769074
 H    5.485670   -0.114096   -0.298159
 H    5.219439   -2.515271    0.375178
 H   -0.377676    1.725217   -1.031159
 H    1.309058    1.925883   -1.540080
 H    1.988179    2.529422    0.723985
 H    0.341075    2.339902    1.322865
 H    1.160782    4.335264   -0.833788
 H    1.040276    4.722187    0.881725
 H   -1.273060    3.806078   -0.892161
 H   -1.385815    4.105991    0.843680
 H   -1.009314    5.427617   -0.260550
 H    0.436206   -2.804085    0.572478
