30 
1unh_ligand_dft.xyz
 C    2.491284    0.569918   -0.000435
 C    1.147138    0.923777   -0.005213
 C    2.496732   -0.883958    0.005651
 N    1.291510   -1.409984    0.003984
 C    3.735443   -1.604841    0.012708
 C    4.887953   -0.885934    0.012534
 C    4.876363    0.556696    0.005760
 C    3.722185    1.285128   -0.000740
 C    0.397989   -0.343884   -0.002374
 C   -0.948950   -0.626383   -0.003868
 C   -1.454830   -2.090735   -0.009537
 N   -2.836008   -1.989688   -0.002206
 C   -3.263799   -0.677165    0.001913
 C   -2.146937    0.192894    0.000215
 C   -4.568647   -0.212263    0.007733
 C   -4.762304    1.166889    0.012103
 C   -3.680925    2.050504    0.010916
 C   -2.376357    1.575060    0.005104
 O   -0.855610   -3.134393   -0.019727
 N    0.587355    2.190508   -0.015247
 O    1.388692    3.122621   -0.016737
 H    3.717827   -2.689058    0.017461
 H    5.847674   -1.393359    0.017431
 H    5.831289    1.074323    0.005938
 H    3.725326    2.366617   -0.005694
 H   -3.424666   -2.807265   -0.007349
 H   -5.408444   -0.899365    0.008996
 H   -5.775504    1.557666    0.016687
 H   -3.858715    3.120502    0.014529
 H   -1.533459    2.254049    0.003177
