17 
1uod_ligand_xtb.xyz
 O    3.432394   -0.445651    0.726372
 C    2.984173    0.331999   -0.065839
 C    1.607074    0.182656   -0.670153
 O    1.065194   -1.080998   -0.410052
 C    0.689158    1.282442   -0.078294
 O   -0.618191    1.105198   -0.540830
 O   -0.995547   -0.431118    1.497122
 O   -2.941011    0.523908    0.101431
 O   -1.654273   -1.216787   -0.922449
 P   -1.481422   -0.081450    0.159359
 H    3.529097    1.236931   -0.385275
 H    1.643109    0.299189   -1.759095
 H    1.359598   -1.355010    0.474285
 H    0.703887    1.196909    1.014429
 H    1.016404    2.275700   -0.391418
 H   -3.193259    0.841086    0.967231
 H   -0.828469   -1.692050   -1.037570
