27 
1uou_ligand_xtb.xyz
Cl   -1.828066   -2.330833   -0.392825
 C   -1.519163   -0.642672   -0.228945
 C   -0.390262   -0.057583   -0.696915
 C    0.754699   -0.793062   -1.352801
 N    1.948500   -0.821559   -0.537087
 C    1.907519   -1.664148    0.659297
 C    2.892796   -1.020807    1.651465
 C    3.172553    0.310118    1.014367
 C    2.598431    0.368359   -0.186746
 N    2.542382    1.451664   -1.082089
 N   -0.209978    1.287117   -0.538490
 C   -1.100247    2.121455    0.092605
 O   -0.900267    3.300821    0.239549
 N   -2.242494    1.486844    0.529475
 C   -2.560827    0.136463    0.435908
 O   -3.599380   -0.290838    0.877236
 H    0.988139   -0.306127   -2.304123
 H    0.458068   -1.824268   -1.550117
 H    2.192863   -2.682777    0.387325
 H    0.893881   -1.691507    1.074838
 H    3.808672   -1.610840    1.740327
 H    2.465801   -0.920417    2.650950
 H    3.785637    1.062918    1.468548
 H    3.151472    2.202507   -0.782064
 H    2.762665    1.181993   -2.034019
 H    0.695089    1.681118   -0.829106
 H   -2.929871    2.074490    0.989115
