71 
1ur9_ligand_dft.xyz
 C   -0.754205    1.911196   -1.234036
 C    0.667451    2.475572   -0.949989
 C    1.690941    1.874193   -1.899405
 C    1.397847    0.387297   -1.976394
 C    0.067201    0.183220   -2.707823
 C   -0.546565   -1.175569   -2.373409
 C    0.000724    4.657771   -0.099693
 C    0.284080    6.145270   -0.090570
 N    0.690315    3.924226   -1.017266
 O    2.980809    2.137656   -1.399684
 O    2.459714   -0.239818   -2.666015
 O   -0.863256    1.236138   -2.455460
 O    0.408673   -2.208378   -2.559465
 O   -0.801317    4.141588    0.669784
 C   -1.617365   -1.171697    1.363532
 C   -2.942006   -1.245045    0.644089
 C   -3.268429    0.112495   -0.069669
 C   -2.346594    1.215251    0.454104
 C   -2.088985    1.102873    1.948339
 C   -3.289487    1.238601    2.874063
 C   -4.084729   -2.704112   -0.938245
 C   -4.003512   -3.955962   -1.780645
 N   -2.968105   -2.383428   -0.244888
 O   -4.593505    0.494206    0.161378
 O   -1.071753    1.080433   -0.143728
 O   -1.418095   -0.170010    2.212798
 O   -2.887636    1.161646    4.222216
 O   -5.110202   -2.027079   -0.876133
 N    2.612906   -1.713927    1.868090
 C    1.530018   -2.017656    1.109262
 O    0.419040   -1.858242    1.871929
 O    1.544811   -2.358078   -0.055492
 C    3.956922   -1.647935    1.429793
 C    4.956899   -1.835870    2.385027
 C    6.294743   -1.731242    2.023641
 C    6.644295   -1.451310    0.706159
 C    5.641461   -1.266436   -0.241019
 C    4.298148   -1.353059    0.108513
 N   -0.761016   -2.098101    1.143026
 H   -1.473398    2.728070   -1.308554
 H    0.930134    2.159117    0.064933
 H    1.570053    2.307286   -2.907041
 H    1.331136   -0.008917   -0.952197
 H    0.285061    0.235353   -3.780689
 H   -0.887412   -1.149888   -1.336426
 H   -1.412284   -1.363455   -3.018912
 H    0.937388    6.374944    0.757325
 H   -0.655127    6.681264    0.058172
 H    0.762998    6.497314   -1.008361
 H    1.476058    4.348163   -1.488879
 H    3.569245    1.503586   -1.834237
 H    2.160204   -1.153681   -2.815966
 H    0.712257   -2.466920   -1.671458
 H   -3.716119   -1.367451    1.414162
 H   -3.059013   -0.011797   -1.140003
 H   -2.787830    2.194294    0.239927
 H   -1.340757    1.848668    2.221851
 H   -3.730774    2.227799    2.726716
 H   -4.064572    0.500135    2.632892
 H   -2.975227   -4.264731   -1.986239
 H   -4.519597   -4.768878   -1.260176
 H   -4.526039   -3.777678   -2.722178
 H   -2.141211   -2.964843   -0.276368
 H   -5.128275   -0.251423   -0.172478
 H   -2.434399    0.316330    4.333587
 H    2.425968   -1.491401    2.834923
 H    4.685460   -2.069723    3.411420
 H    7.063818   -1.877341    2.775911
 H    7.688854   -1.375952    0.421091
 H    5.899915   -1.041309   -1.271503
 H    3.534121   -1.190320   -0.640938
