57 
1urw_ligand_dft.xyz
 C    9.068224  -11.045998   10.567955
 C   16.974490   -5.528124   14.999585
 C   16.579629   -5.333618   13.706721
 C   14.048337   -7.790628   13.343261
 C   16.344112   -6.545560   15.764037
 C   15.558508   -6.160293   13.197606
 N   15.394195   -7.331180   15.325848
 C   13.352440   -9.521895   15.045623
 C   13.214124   -8.886589   13.811145
 C   14.067220   -7.184920   12.093503
 C   10.055370  -10.280924   11.219896
 C   11.493553  -10.283487   13.296898
 C   12.478639  -10.572134   15.300446
 N   12.269863   -9.275657   12.930586
 C   10.506048   -9.093264   10.613555
 C    9.991407   -8.702372    9.390428
 C    9.026095   -9.481950    8.751806
 N   15.023496   -7.120196   14.051774
 N   14.980342   -6.198498   12.001771
 N   11.543736  -10.973310   14.445312
 N   10.501297  -10.741095   12.441048
 C    8.556430  -10.654580    9.346051
 S    8.443021   -8.998768    7.166885
 N    9.546263   -9.546206    6.020684
 C    9.741596  -10.980184    5.815355
 C    9.217380  -11.434844    4.445756
 C    7.684930  -11.407237    4.324859
 N    7.131616  -10.410495    3.323127
 C    7.568388  -10.679346    1.921015
 C    7.344961   -8.978540    3.711814
 O    8.487563   -7.555097    7.036321
 O    7.218693   -9.750179    6.883578
 H    8.696618  -11.952992   11.036332
 H   17.753543   -4.926684   15.452545
 H   17.010849   -4.578591   13.060049
 H   16.634257   -6.726584   16.793511
 H   14.100710   -9.213238   15.760986
 H   13.441898   -7.454825   11.254268
 H   12.532754  -11.119363   16.238488
 H   11.245117   -8.490814   11.120479
 H   10.321731   -7.769610    8.943682
 H   10.022896  -11.542291   12.829862
 H    7.776717  -11.236448    8.866563
 H   10.397926   -8.996502    6.066470
 H    9.256162  -11.551444    6.614618
 H   10.809369  -11.207232    5.877858
 H    9.560943  -12.458323    4.265854
 H    9.696155  -10.818630    3.677512
 H    7.222437  -11.140770    5.277821
 H    7.298246  -12.375481    3.998216
 H    6.119785  -10.559103    3.345928
 H    8.626425  -10.439388    1.823754
 H    7.399835  -11.731779    1.689352
 H    6.989170  -10.048512    1.245725
 H    6.877915   -8.812308    4.681932
 H    8.414166   -8.790055    3.795941
 H    6.896011   -8.345365    2.945605
