57 
1urw_ligand_xtb.xyz
 C   -0.953031   -2.924987    0.175405
 C    7.940412    2.811686   -0.105450
 C    6.704010    3.399523   -0.037799
 C    4.568987    0.589817   -0.061894
 C    8.021517    1.405642   -0.162154
 C    5.585460    2.559941   -0.028039
 N    6.988180    0.613963   -0.154238
 C    5.296953   -1.796289   -0.232671
 C    4.299342   -0.823880   -0.108464
 C    3.668825    1.653161    0.011758
 C    0.250717   -2.201939    0.170640
 C    2.719892   -2.455648   -0.077722
 C    4.871497   -3.112775   -0.278412
 N    3.006535   -1.166424   -0.030347
 C    0.212684   -0.812785    0.358221
 C   -0.993440   -0.172170    0.540106
 C   -2.167198   -0.906642    0.533801
 N    5.798852    1.183098   -0.088212
 N    4.288677    2.831674    0.030284
 N    3.596262   -3.454035   -0.205138
 N    1.418094   -2.890744   -0.007991
 C   -2.156521   -2.278744    0.353935
 S   -3.705183   -0.066718    0.734893
 N   -4.140610    0.562086   -0.769300
 C   -4.897003   -0.237386   -1.707101
 C   -6.350586    0.267548   -1.783352
 C   -7.064742    0.110416   -0.435350
 N   -7.455283    1.383489    0.240608
 C   -8.556188    2.067286   -0.459407
 C   -6.331505    2.305187    0.490450
 O   -3.577578    1.100258    1.561924
 O   -4.768940   -0.983761    1.064679
 H   -0.930837   -3.996277    0.044340
 H    8.842569    3.399919   -0.115841
 H    6.560278    4.466359    0.008204
 H    8.974621    0.902073   -0.216715
 H    6.335823   -1.525936   -0.291451
 H    2.599674    1.591611    0.047386
 H    5.569849   -3.932693   -0.378523
 H    1.144579   -0.273419    0.364205
 H   -1.041307    0.892001    0.709577
 H    1.354072   -3.898649   -0.083907
 H   -3.088101   -2.821156    0.377336
 H   -3.419977    1.143666   -1.160322
 H   -4.902263   -1.272600   -1.358280
 H   -4.446622   -0.206938   -2.700377
 H   -6.869528   -0.312068   -2.546252
 H   -6.338683    1.305253   -2.112891
 H   -6.392918   -0.425877    0.244996
 H   -7.976309   -0.477066   -0.554942
 H   -7.801078    1.097165    1.162019
 H   -8.234986    2.368689   -1.454017
 H   -9.414124    1.404461   -0.556274
 H   -8.860651    2.955036    0.091878
 H   -5.518215    1.798742    1.012066
 H   -5.942646    2.688110   -0.448700
 H   -6.673597    3.141594    1.096707
