23 
1usi_ligand_xtb.xyz
 N    3.310455   22.430679    5.985495
 C    4.186237   21.317670    5.689392
 C    5.364182   21.830779    4.881840
 O    5.274430   22.592572    3.957031
 C    3.520920   20.190401    4.849116
 C    4.498109   19.091232    4.555088
 C    4.777281   18.124320    5.512934
 C    5.175076   19.049653    3.342706
 C    5.711190   17.135162    5.263732
 C    6.109611   18.060775    3.092012
 C    6.380501   17.101357    4.052399
 O    6.521570   21.310346    5.288208
 H    2.406789   22.103128    6.307784
 H    3.172758   22.989177    5.148864
 H    4.560096   20.894878    6.627814
 H    2.671709   19.802834    5.417546
 H    3.151609   20.630028    3.919373
 H    4.256052   18.146185    6.459521
 H    4.968586   19.798753    2.590979
 H    5.917504   16.388609    6.016663
 H    6.627501   18.039215    2.144142
 H    7.109998   16.329392    3.856900
 H    7.252834   21.623854    4.731460
