23 
1usk_ligand_dft.xyz
 N    0.697234    1.670211   -0.364682
 C    0.607479    0.302581    0.270368
 C    2.002681   -0.293296    0.077374
 O    2.057351   -1.553325    0.453855
 C   -0.537047   -0.516653   -0.321487
 C   -1.926384    0.134711   -0.196316
 C   -2.283389    0.473481    1.253894
 C   -2.971410   -0.798778   -0.814078
 O    2.917430    0.370753   -0.354005
 H    0.351163    1.653133   -1.329537
 H    0.166286    2.380097    0.145646
 H    1.702947    1.921382   -0.404495
 H    0.457775    0.463938    1.341947
 H    2.966546   -1.884881    0.344012
 H   -0.534858   -1.478753    0.201617
 H   -0.315208   -0.736656   -1.374675
 H   -1.937008    1.067627   -0.783833
 H   -2.244047   -0.421534    1.885264
 H   -1.621263    1.227231    1.700657
 H   -3.298320    0.875583    1.312213
 H   -3.024855   -1.741755   -0.258763
 H   -2.737693   -1.031566   -1.857942
 H   -3.961931   -0.337024   -0.786665
