22 
1usk_ligand_xtb.xyz
 N   16.315335   15.401683   51.505337
 C   15.450325   16.549991   51.689582
 C   14.015993   16.087525   51.865376
 O   13.221861   16.580706   52.619787
 C   15.435019   17.574713   50.521949
 C   16.436245   18.733026   50.644822
 C   16.065802   19.677168   51.786462
 C   17.879041   18.254890   50.794286
 O   13.687450   15.095252   51.028991
 H   17.263398   15.697855   51.309227
 H   15.988388   14.839535   50.727189
 H   15.740786   17.052088   52.616984
 H   15.622405   17.025994   49.594475
 H   14.434857   18.009143   50.447622
 H   16.364936   19.298391   49.707094
 H   16.723286   20.543580   51.783722
 H   15.040449   20.022828   51.680491
 H   16.160597   19.184780   52.750827
 H   18.557357   19.104394   50.752028
 H   18.026526   17.758250   51.750604
 H   18.146683   17.571055   49.990742
 H   12.761260   14.840153   51.164403
