24 
1utl_ligand_xtb.xyz
 C   -2.191137    0.594842    0.142752
 C   -1.908317   -0.898489    0.081657
 C   -0.701506   -1.241214    0.969456
 C    0.552419   -0.573031    0.468010
 C    1.067587    0.549182    1.104288
 C    2.209997    1.167810    0.624762
 C    2.845676    0.673570   -0.501220
 C    2.339433   -0.445303   -1.141932
 C    1.199784   -1.063902   -0.659777
 N   -3.258045    0.973567   -0.838186
 H   -1.281479    1.149083   -0.097930
 H   -2.522597    0.880566    1.141768
 H   -1.676099   -1.188968   -0.944969
 H   -2.778161   -1.465100    0.417649
 H   -0.566246   -2.322948    0.961930
 H   -0.905098   -0.934568    1.995829
 H    0.584677    0.929897    1.993577
 H    2.606458    2.031845    1.135565
 H    3.738677    1.151674   -0.872095
 H    2.838248   -0.842157   -2.012710
 H    0.819381   -1.947559   -1.152427
 H   -3.455055    1.981567   -0.808210
 H   -2.956151    0.722294   -1.788994
 H   -4.123859    0.458618   -0.629666
