18 
1utn_ligand_dft.xyz
 N   30.323347   16.536769   14.534391
 C   28.847913   16.347636   14.897213
 C   28.757982   15.583356   16.181896
 C   28.720964   14.186142   16.162641
 C   28.694571   13.476462   17.358048
 C   28.705233   14.159610   18.572107
 C   28.736732   15.552205   18.595469
 C   28.763041   16.265309   17.402200
 H   30.455386   17.055842   13.659671
 H   30.809076   17.039279   15.284873
 H   30.782961   15.624737   14.441505
 H   28.398791   15.823484   14.051372
 H   28.427112   17.352848   14.963338
 H   28.689673   13.650300   15.216143
 H   28.654849   12.392563   17.342390
 H   28.678136   13.604566   19.503984
 H   28.729777   16.082186   19.541908
 H   28.764460   17.353206   17.423652
