21 
1uto_ligand_xtb.xyz
 C    0.165887   -0.024070    0.382736
 C    0.823738    1.187543    0.221137
 C    2.163552    1.212999   -0.123889
 C    2.853221    0.027404   -0.313794
 C    2.201165   -1.183586   -0.155348
 C    0.860859   -1.209450    0.188861
 C   -1.305797   -0.049175    0.734934
 C   -2.120977    0.024457   -0.550305
 N   -3.591619    0.009452   -0.250428
 H    0.293157    2.115712    0.379083
 H    2.669072    2.158850   -0.240284
 H    3.898327    0.047496   -0.579397
 H    2.736003   -2.109762   -0.295964
 H    0.359382   -2.157516    0.320416
 H   -1.539276    0.801877    1.377355
 H   -1.534005   -0.970721    1.273249
 H   -1.888599   -0.826722   -1.191680
 H   -1.886256    0.942037   -1.091432
 H   -4.152663    0.057335   -1.110069
 H   -3.832724   -0.852259    0.257071
 H   -3.830972    0.810772    0.348652
