27 
1utp_ligand_dft.xyz
 C   44.874889   19.488790   51.874556
 C   45.510050   18.496632   50.905070
 C   46.279742   19.065556   49.700204
 C   45.524138   20.072109   48.811708
 C   45.410616   21.455813   49.418235
 C   44.171221   22.017607   49.739634
 C   44.087108   23.257208   50.371502
 C   45.245004   23.963733   50.689175
 C   46.488158   23.433159   50.349956
 C   46.569680   22.190022   49.719410
 N   45.855805   20.536528   52.342978
 H   44.504186   18.982878   52.768292
 H   44.056836   20.047205   51.419956
 H   44.683835   17.872598   50.546067
 H   46.173601   17.823469   51.461629
 H   46.572676   18.207075   49.088263
 H   47.226495   19.513026   50.033622
 H   44.526409   19.683444   48.577333
 H   46.057427   20.146044   47.857496
 H   43.259697   21.481360   49.485234
 H   43.113551   23.676036   50.606628
 H   45.178800   24.932211   51.174085
 H   47.395249   23.992120   50.558649
 H   47.543560   21.799122   49.431385
 H   45.433901   21.164404   53.032368
 H   46.689177   20.117011   52.764321
 H   46.157388   21.125741   51.539745
