46 
1utt_ligand_dft.xyz
 C   -2.021882    0.447427   -0.572191
 C   -2.157561   -0.947211   -0.656927
 N   -3.230284    1.114188   -0.325455
 C   -0.778482    1.039914   -0.733377
 C   -1.053890   -1.739720   -0.898253
 C   -3.574072   -1.400404   -0.447966
 S   -4.349189    0.022883    0.358473
 C   -3.259512    2.477638    0.177562
 C    0.324378    0.226573   -0.995912
 C    0.209263   -1.158525   -1.076514
 O   -4.158586   -0.058546    1.798280
 O   -5.668796    0.318413   -0.167738
 C    1.380232   -2.096478   -1.347901
 C    2.769768   -1.485430   -1.221344
 O    1.335403   -3.242746   -0.510087
 N    3.098710   -1.214664    0.169403
 C    1.456799   -2.914352    0.858298
 C    4.092296   -0.182836    0.448251
 C    2.486406   -1.846889    1.206431
 C    3.502645    1.200019    0.287115
 O    2.706103   -1.587609    2.381625
 C    3.787652    1.978500   -0.833809
 C    2.581236    1.670533    1.228075
 C    3.153374    3.205359   -1.025668
 C    1.951645    2.895056    1.040825
 C    2.231994    3.663258   -0.089653
 H   -0.645030    2.112461   -0.645845
 H   -1.152751   -2.821375   -0.935220
 H   -3.682503   -2.261573    0.214466
 H   -4.115551   -1.570553   -1.383049
 H   -4.302113    2.769625    0.320240
 H   -2.715298    2.581435    1.124004
 H   -2.824113    3.139779   -0.574916
 H    1.285683    0.712541   -1.116445
 H    1.282655   -2.498736   -2.361988
 H    2.838674   -0.550410   -1.787603
 H    3.497432   -2.186266   -1.650473
 H    1.740102   -3.830798    1.380120
 H    0.500477   -2.569494    1.275574
 H    4.440359   -0.344374    1.469698
 H    4.937941   -0.325113   -0.234931
 H    4.508499    1.622242   -1.566657
 H    2.351053    1.056055    2.094190
 H    3.380651    3.800462   -1.905226
 H    1.236449    3.250663    1.776740
 H    1.738702    4.619949   -0.234765
