55 
1uu8_ligand_xtb.xyz
 C    4.466551   -0.115253    1.751793
 N    3.954570   -0.660193    0.506444
 C    4.902908   -1.589930   -0.080015
 C    3.579508    0.409854   -0.407587
 C    2.851736   -0.104662   -1.650222
 C    2.014325    1.002829   -2.304064
 N    0.910038    1.388088   -1.469982
 C   -0.214939    0.642489   -1.309852
 C    0.833066    2.475022   -0.634961
 C    1.736029    3.509925   -0.419541
 C    1.394799    4.478714    0.499861
 C    0.184930    4.423788    1.194429
 C   -0.718255    3.405246    0.983686
 C   -0.404312    2.417651    0.052751
 C   -1.064341    1.223837   -0.395747
 C   -2.358276    0.706097   -0.043804
 C   -3.539355    1.561963    0.226797
 O   -3.627588    2.760649    0.321992
 N   -4.611994    0.690143    0.333595
 C   -4.240052   -0.630239    0.156989
 O   -4.990990   -1.571074    0.197884
 C   -2.768497   -0.598207   -0.060191
 C   -2.022630   -1.808620   -0.193752
 C   -0.688685   -2.105192    0.288976
 C    0.209055   -1.471356    1.065485
 C    1.471751   -2.131107    1.447159
 C    1.629773   -3.533980    0.997692
 C    0.714009   -4.177955    0.249809
 C   -0.480239   -3.505267   -0.111469
 N   -1.527293   -3.983758   -0.741172
 C   -2.455154   -2.985401   -0.774337
 H    4.680810   -0.933181    2.437926
 H    5.385436    0.469109    1.606663
 H    3.712922    0.530302    2.200901
 H    2.326280   -1.543601    1.036115
 H    5.826869   -1.092041   -0.405562
 H    5.159774   -2.346609    0.659308
 H    4.448852   -2.086625   -0.934190
 H    2.907898    1.072491    0.144934
 H    4.461341    0.999347   -0.712940
 H    2.187857   -0.922868   -1.364073
 H    3.564389   -0.480224   -2.385189
 H    1.622328    0.640396   -3.259621
 H    2.634600    1.880641   -2.497083
 H   -0.370727   -0.246119   -1.891106
 H    2.676060    3.559515   -0.949671
 H    2.075880    5.295746    0.687222
 H   -0.044398    5.201282    1.907664
 H   -1.658283    3.380723    1.509435
 H   -5.559673    0.989897    0.504680
 H    0.037189   -0.469231    1.434257
 H    1.614557   -2.060874    2.531418
 H    2.540664   -4.030152    1.300317
 H    0.844652   -5.203043   -0.060824
 H   -3.406136   -3.162917   -1.241107
