49 
1uu9_ligand_dft.xyz
 N   23.937541   82.685914   28.318025
 C   24.183179   82.040709   26.998661
 C   22.947234   81.297471   26.505773
 C   23.282878   80.352451   25.336056
 N   24.105492   79.241819   25.754177
 C   25.455824   79.375825   26.038024
 C   23.637453   78.149417   26.470287
 C   22.343384   77.635311   26.580399
 C   22.167696   76.514586   27.377077
 C   23.249200   75.917173   28.048776
 C   24.528405   76.436471   27.944429
 C   24.729091   77.575466   27.156437
 C   25.879218   78.405330   26.893959
 C   27.220135   78.361572   27.471188
 C   28.188128   77.281977   27.167040
 O   28.012880   76.244336   26.566783
 N   29.404659   77.697075   27.717329
 C   29.292005   78.922131   28.352033
 O   30.192685   79.516241   28.896748
 C   27.828840   79.328146   28.216016
 C   27.328619   80.490543   28.890752
 C   26.068380   80.695207   29.547724
 C   24.876559   79.970775   29.710513
 C   23.863230   80.489969   30.518443
 C   24.030167   81.712270   31.209716
 C   25.202787   82.446280   31.067388
 C   26.215278   81.962531   30.221475
 N   27.426964   82.547238   29.962128
 C   28.076280   81.651987   29.216761
 H   24.813068   83.033514   28.738992
 H   23.251463   83.440808   28.286057
 H   23.623282   81.975019   29.016778
 H   24.507327   82.815951   26.299329
 H   25.011994   81.356294   27.185485
 H   22.171679   82.007453   26.192182
 H   22.538980   80.688835   27.322573
 H   23.806172   80.892475   24.539091
 H   22.357260   79.965409   24.902582
 H   26.034832   80.168822   25.582383
 H   21.502405   78.083722   26.058855
 H   21.175044   76.086519   27.479707
 H   23.074492   75.034505   28.656024
 H   25.367068   75.976641   28.457513
 H   30.260970   77.168211   27.661418
 H   24.737987   79.005850   29.234963
 H   22.951604   79.915121   30.659276
 H   23.243262   82.065492   31.870659
 H   25.360300   83.374565   31.610092
 H   29.093621   81.843374   28.894324
