38 
1uvu_ligand_xtb.xyz
 C   -4.833022   -0.357781    0.550102
 N   -5.501691    0.489055    1.390064
 N   -5.412318   -1.424804    0.171857
 C   -3.494804    0.113653    0.107022
 C   -2.465174   -0.779342   -0.060147
 C   -1.194799   -0.354710   -0.495557
 C   -0.120496   -1.252376   -0.653361
 C    1.108019   -0.824823   -1.084867
 C    1.293612    0.538230   -1.382468
 C    0.276039    1.437014   -1.233241
 C   -0.992217    1.020469   -0.782267
 C   -2.066822    1.918168   -0.610656
 C   -3.282752    1.481005   -0.171120
 C    2.264438   -1.779554   -1.191376
 C    2.835501   -2.086446    0.203991
 C    3.244970   -0.807097    0.899314
 O    2.668582   -0.317672    1.834021
 O    4.345737   -0.289674    0.343651
 C    4.849127    0.923859    0.904659
 C    4.142400    2.145939    0.336845
 H   -6.349180    0.111616    1.782473
 H   -4.961464    1.095713    1.983201
 H   -4.892745   -1.959193   -0.516694
 H   -2.617211   -1.827475    0.161240
 H   -0.283095   -2.296807   -0.425231
 H    2.260237    0.866676   -1.736311
 H    0.430188    2.482822   -1.459461
 H   -1.909542    2.964054   -0.834289
 H   -4.105065    2.171443   -0.053082
 H    3.052293   -1.347480   -1.810167
 H    1.939160   -2.717288   -1.646832
 H    3.709030   -2.732275    0.107497
 H    2.080249   -2.575534    0.819330
 H    5.912467    0.931969    0.655480
 H    4.719964    0.887411    1.991368
 H    4.259600    2.183750   -0.743639
 H    3.083092    2.106962    0.579818
 H    4.571411    3.045411    0.769234
