48 
1uwh_ligand_dft.xyz
 C   -4.761615   -0.135103   -0.013286
 C   -4.516272    1.202597    0.304085
 C   -5.592341    2.026143    0.643791
 C   -6.884535    1.526913    0.666519
 C   -2.042415    1.184136   -0.071946
 C    0.387866    1.756212   -0.189222
 C    1.341034    2.644184    0.320814
 C    2.692387    2.459453    0.064416
 C    3.096136    1.378525   -0.707023
 C    2.160882    0.491366   -1.221900
 C    0.806047    0.673307   -0.969827
 O    4.438665    1.220860   -1.004544
 C    4.701974   -0.299212    0.878442
 C    5.593151   -1.107632    1.577817
 C    7.318290   -0.581090    0.190268
 C    6.527035    0.251434   -0.582956
 N    9.460893   -1.578077    0.620400
 C   10.863652   -1.845578    0.403452
 C   -7.126420    0.195784    0.350326
 C   -6.059355   -0.638171    0.008297
 C   -6.269684   -2.095332   -0.344855
 F   -6.822552   -2.773751    0.671249
 F   -7.071160   -2.233983   -1.410624
 F   -5.110785   -2.702792   -0.640534
Cl   -8.774903   -0.370258    0.397823
 N   -3.234419    1.774829    0.317978
 N   -0.964042    2.031876    0.095863
 O   -1.959160    0.053206   -0.512105
 C    5.186512    0.394602   -0.229328
 N    6.875881   -1.259502    1.258567
 C    8.774282   -0.742539   -0.185190
 O    9.263056   -0.155585   -1.141445
 H   -3.938766   -0.779117   -0.283659
 H   -5.425491    3.070864    0.894835
 H   -7.713960    2.172960    0.930933
 H    1.027012    3.490872    0.926931
 H    3.434129    3.147018    0.456422
 H    2.496309   -0.343963   -1.827840
 H    0.077911   -0.019713   -1.365538
 H    3.668063   -0.220846    1.191893
 H    5.245203   -1.662729    2.445932
 H    6.949595    0.770186   -1.434906
 H    8.947706   -2.003175    1.379582
 H   11.028836   -2.267520   -0.593100
 H   11.453235   -0.926206    0.481562
 H   11.209065   -2.557242    1.155460
 H   -3.217069    2.755552    0.553468
 H   -1.116295    2.890473    0.603140
