61 
1uxa_ligand_dft.xyz
 C    0.492353   -2.004426    1.759233
 C    0.231430   -1.515428    0.312505
 C   -0.613975   -2.492118   -0.504164
 C   -2.123011   -2.366079   -0.281378
 C   -2.511139   -0.891166   -0.434545
 C   -1.717782   -0.027259    0.556935
 C   -1.937000    1.508872    0.343864
 C   -2.777552    2.124322    1.477183
 C   -2.990230    3.619813    1.276639
 C   -4.843796   -0.832916   -1.193922
 C   -6.216154   -0.256257   -0.920353
 N   -3.927343   -0.655061   -0.215407
 O   -0.652880   -2.169547    2.443376
 O    1.574522   -2.208289    2.248340
 O   -2.771678   -3.216010   -1.192016
 O   -0.327918   -0.229666    0.392467
 O   -0.735239    2.227945    0.358960
 O   -4.053751    1.510021    1.610829
 O   -3.950732    3.731663    0.230208
 O   -4.583362   -1.399144   -2.254654
 C    3.455411    1.687585   -1.001213
 C    2.386764    0.627002   -1.256240
 C    2.293401   -0.290504   -0.043129
 C    3.682991   -0.854753    0.288754
 C    4.709120    0.270923    0.386128
 C    6.139818   -0.222764    0.540049
 O    3.512325    2.476586   -2.144508
 O    1.143910    1.251221   -1.515958
 O    1.446817   -1.396740   -0.356420
 O    4.088596   -1.762311   -0.711642
 O    4.704179    1.092025   -0.779091
 O    7.033696    0.859304    0.672993
 H   -0.292956   -3.521729   -0.319929
 H   -0.408013   -2.266763   -1.554905
 H   -2.383996   -2.678804    0.738559
 H   -2.256898   -0.574097   -1.456552
 H   -2.006154   -0.309638    1.580059
 H   -2.470664    1.652408   -0.609807
 H   -2.234180    1.962365    2.414291
 H   -2.043028    4.099130    1.013743
 H   -3.381839    4.055682    2.205958
 H   -6.314634    0.689104   -1.464130
 H   -6.395038   -0.071739    0.142650
 H   -6.972644   -0.943384   -1.303309
 H   -4.172844   -0.090289    0.594557
 H   -0.405279   -2.464625    3.335292
 H   -3.342031   -2.679452   -1.774252
 H   -0.093127    1.785111   -0.228703
 H   -4.633544    2.042241    1.038981
 H   -4.232674    4.649474    0.161542
 H    3.171978    2.291405   -0.116754
 H    2.710225    0.032004   -2.119369
 H    1.898749    0.269672    0.810252
 H    3.618245   -1.352664    1.264717
 H    4.454737    0.892489    1.261654
 H    6.221871   -0.822942    1.450479
 H    6.389774   -0.859662   -0.317465
 H    4.104587    3.219371   -1.975617
 H    1.316718    1.912069   -2.201500
 H    3.355348   -2.385058   -0.813703
 H    6.896958    1.408213   -0.110032
