43 
1uy9_ligand_xtb.xyz
 C    0.406587    4.328620   -0.330065
 C    1.622285    3.486011    0.040137
 C    1.408879    2.668697    1.314536
 C    0.505983    1.449177    1.106424
 N    1.132066    0.484222    0.239846
 C    2.238944   -0.241260    0.572043
 N    2.930039   -0.239518    1.713800
 C    3.946105   -1.079303    1.691157
 N    4.333752   -1.880583    0.710577
 C    2.536459   -1.033241   -0.548914
 C    3.648820   -1.882403   -0.435558
 N    4.069546   -2.676542   -1.439633
 N    1.619278   -0.783083   -1.537766
 C    0.813028    0.115703   -1.043573
 C   -0.353370    0.664922   -1.789618
 C   -1.660853    0.344187   -1.109135
 C   -1.864589   -0.949858   -0.617453
 C   -3.062350   -1.213210   -0.003860
 C   -2.648797    1.306963   -0.975954
 O   -3.502719   -2.381498    0.556492
 C   -3.866603    1.035839   -0.354230
 C   -4.050729   -0.235190    0.128795
 O   -5.133436   -0.768316    0.776837
 C   -4.798958   -2.112790    1.045662
 H   -0.478546    3.710944   -0.462923
 H    0.197208    5.053198    0.453901
 H    0.587641    4.870159   -1.255894
 H    2.475742    4.150594    0.188612
 H    1.875049    2.813544   -0.783292
 H    0.965315    3.301198    2.085221
 H    2.369491    2.306653    1.684987
 H   -0.457788    1.730791    0.681030
 H    0.336513    0.965681    2.073444
 H    4.544299   -1.122672    2.591884
 H    4.810830   -3.329090   -1.258963
 H    3.498027   -2.762539   -2.259915
 H   -0.332028    0.207669   -2.781769
 H   -0.248977    1.745219   -1.911477
 H   -1.108021   -1.709584   -0.721681
 H   -2.481238    2.298636   -1.370084
 H   -4.630647    1.788106   -0.255149
 H   -4.826657   -2.289448    2.132880
 H   -5.524755   -2.779197    0.552401
