52 
1uyd_ligand_dft.xyz
 C   -2.589891   -2.863659    1.954960
 O   -2.757010   -2.719984    0.548015
 C   -2.505474   -1.467544    0.084280
 C   -1.287285   -1.173627   -0.545487
 C   -3.486031   -0.484753    0.206022
 O   -4.639327   -0.755029    0.880240
 C   -5.655178   -1.325206    0.064499
 C   -3.271429    0.785563   -0.348530
 O   -4.291072    1.664140   -0.222025
 C   -4.096269    2.973277   -0.711232
 C   -2.058382    1.056147   -0.975084
 C   -1.044584    0.095073   -1.068408
 C    0.256188    0.481393   -1.745777
 C    1.530007    0.196684   -1.002242
 N    2.551168   -0.391548   -1.576035
 C    3.500334   -0.471620   -0.582330
 C    4.797727   -1.010711   -0.539648
 N    5.386570   -1.554738   -1.632645
 C    3.030501    0.078778    0.602274
 N    3.687632    0.151768    1.766600
 C    4.897109   -0.392833    1.672376
 N    5.482973   -0.963837    0.610178
 N    1.758569    0.519326    0.323623
 C    0.933391    1.247897    1.279935
 C    1.509468    2.631474    1.596483
 C    1.583950    3.572931    0.391898
 C    0.219107    4.083009   -0.070406
Cl   -0.109374   -2.451036   -0.671858
 H   -1.557623   -2.635532    2.245919
 H   -3.285313   -2.214223    2.496179
 H   -2.807013   -3.908515    2.180533
 H   -5.938371   -0.636565   -0.740082
 H   -5.321801   -2.278735   -0.359994
 H   -6.513614   -1.493939    0.716706
 H   -3.247685    3.463478   -0.216717
 H   -3.936059    2.978696   -1.797007
 H   -5.012203    3.517535   -0.480116
 H   -1.879991    2.031117   -1.413036
 H    0.212479    1.550498   -1.987419
 H    0.360428   -0.052166   -2.695802
 H    4.808629   -1.774857   -2.428227
 H    6.230190   -2.086747   -1.488210
 H    5.497382   -0.378752    2.579200
 H    0.886842    0.649206    2.194245
 H   -0.077724    1.313147    0.876308
 H    2.506135    2.489528    2.026127
 H    0.885820    3.080408    2.380704
 H    2.094869    3.063651   -0.435817
 H    2.215092    4.429913    0.653297
 H   -0.454899    3.256760   -0.320258
 H   -0.265083    4.670723    0.718308
 H    0.310213    4.719530   -0.956638
