48 
1uyh_ligand_dft.xyz
 C   -3.623842   -2.958966   -0.437014
 C   -3.955333   -0.171861   -0.640960
 O   -2.746861   -2.091839    0.243232
 C   -2.930440   -0.742887    0.102606
 C   -4.067800    1.216404   -0.750849
 C   -3.144319    2.037628   -0.113415
 O   -3.151527    3.396831   -0.152328
 C   -4.162819    4.025066   -0.903831
 C   -2.115442    1.456508    0.632997
 C   -1.996873    0.081521    0.754328
 C   -0.860681   -0.501811    1.577108
 C    0.478832   -0.085424    1.057177
 N    1.220171    0.843112    1.610744
 C    2.310206    0.948905    0.771567
 C    3.460792    1.756655    0.789184
 N    3.705427    2.640624    1.779236
 C    2.204630    0.068776   -0.296786
 N    3.083076   -0.082981   -1.299249
 C    4.098401    0.740141   -1.145956
 N    4.356492    1.635401   -0.201157
 N    1.021895   -0.595792   -0.109652
 C    0.515610   -1.649741   -0.980569
 C    1.343789   -2.933015   -0.871341
 C    1.276008   -3.612032    0.499489
 C   -0.057137   -4.309433    0.775219
 F    5.025860    0.669723   -2.094530
 H   -4.656641   -2.842440   -0.084897
 H   -3.590018   -2.794786   -1.521818
 H   -3.278902   -3.969729   -0.214442
 H   -4.684873   -0.791234   -1.149850
 H   -4.879735    1.627785   -1.339051
 H   -4.112552    3.743042   -1.963996
 H   -5.162142    3.787271   -0.515262
 H   -3.987650    5.097445   -0.809613
 H   -1.390261    2.104369    1.117287
 H   -0.942096   -1.589661    1.619796
 H   -0.920843   -0.127932    2.602760
 H    2.982358    2.838638    2.451490
 H    4.474150    3.282431    1.672248
 H    0.550928   -1.269382   -2.005465
 H   -0.531175   -1.824726   -0.723711
 H    2.380719   -2.686947   -1.123087
 H    0.987852   -3.626506   -1.644543
 H    1.481180   -2.870701    1.283371
 H    2.084579   -4.349170    0.565053
 H   -0.901820   -3.613973    0.728759
 H   -0.238009   -5.100736    0.037577
 H   -0.061598   -4.771658    1.767741
