52 
1uym_ligand_dft.xyz
 C    4.500407    2.149899    0.902484
 O    4.405949    0.913086    0.233359
 C    3.247666    0.218948    0.341897
 C    2.131536    0.645629    1.068857
 C    3.212124   -0.998981   -0.346180
 O    4.273487   -1.381953   -1.112581
 C    5.209336   -2.193548   -0.422858
 C    2.066232   -1.803144   -0.273219
 O    2.136816   -2.972528   -0.950379
 C    0.993164   -3.799187   -0.957547
 C    0.956055   -1.377945    0.458324
 C    0.993108   -0.154166    1.122693
 C   -0.225370    0.309543    1.901245
 C   -1.511592    0.109260    1.162542
 N   -2.464323   -0.706336    1.548418
 C   -3.426807   -0.587730    0.566264
 C   -4.687779   -1.180558    0.383837
 N   -5.182348   -2.102690    1.246241
 C   -3.032045    0.313359   -0.415856
 N   -3.725150    0.668854   -1.503208
 C   -4.896399    0.041105   -1.553380
 N   -5.414585   -0.844445   -0.690033
 N   -1.790743    0.750874   -0.028215
 C   -0.977483    1.718768   -0.746257
 C   -1.159919    3.141738   -0.218519
 C   -0.231218    4.148026   -0.904313
 C    1.246650    3.956861   -0.556168
 H    3.758730    2.868100    0.530482
 H    4.378415    2.033155    1.987285
 H    5.501655    2.527369    0.691747
 H    2.137808    1.598111    1.586988
 H    5.638901   -1.657203    0.432339
 H    4.743587   -3.124723   -0.078099
 H    6.000867   -2.427857   -1.137268
 H    0.733177   -4.137469    0.053527
 H    0.130167   -3.286116   -1.399664
 H    1.253369   -4.662292   -1.571068
 H    0.056875   -1.981251    0.516069
 H   -0.106435    1.365886    2.170438
 H   -0.318621   -0.251902    2.835980
 H   -4.740370   -2.204802    2.145870
 H   -6.156933   -2.343578    1.158117
 H   -5.526655    0.276323   -2.407907
 H   -1.284007    1.666006   -1.794734
 H    0.063792    1.395481   -0.682820
 H   -0.977980    3.156646    0.864635
 H   -2.206397    3.431019   -0.367602
 H   -0.538741    5.159837   -0.616209
 H   -0.365781    4.085004   -1.992031
 H    1.398368    4.021125    0.528809
 H    1.626562    2.984153   -0.886895
 H    1.863694    4.729081   -1.026665
