35 
1uys_ligand_dft.xyz
 O   -6.434887    0.374873    1.726320
 C   -5.925965    0.270037    0.482396
 O   -5.981192    1.148885   -0.335931
 C   -5.328771   -1.118823    0.260201
 C   -6.428094   -2.078666   -0.182282
 O   -4.370251   -1.092016   -0.765972
 C   -3.184001   -0.457984   -0.544931
 C   -2.289732   -0.479382   -1.619670
 C   -1.048386    0.120803   -1.506668
 C   -2.825885    0.172152    0.645463
 C   -1.571430    0.771357    0.757168
 C   -0.696894    0.739344   -0.311638
 O    0.511456    1.423374   -0.200058
 C    1.652764    0.726644   -0.097087
 N    1.628986   -0.591003   -0.044578
 C    2.786316   -1.249013    0.060679
 C    4.014103   -0.612672    0.117202
 C    5.298319   -1.374217    0.260123
 F    5.121720   -2.691963    0.084670
 F    5.842899   -1.199075    1.476933
 F    6.212434   -0.961169   -0.635226
 C    4.042027    0.784727    0.062855
 C    2.851884    1.469093   -0.045262
Cl    2.821013    3.200192   -0.120555
 H   -6.844692    1.253334    1.784275
 H   -4.886436   -1.471428    1.200724
 H   -6.874299   -1.726246   -1.116045
 H   -7.203372   -2.148628    0.585111
 H   -5.998067   -3.069289   -0.347427
 H   -2.593608   -0.969680   -2.537884
 H   -0.349288    0.110911   -2.335790
 H   -3.501497    0.217201    1.492196
 H   -1.278383    1.270613    1.674339
 H    2.716641   -2.331566    0.098477
 H    4.980862    1.327063    0.099948
