48 
1uze_ligand_dft.xyz
 O   -0.673647   -1.747339    1.208815
 O    0.955064    3.482531    0.374991
 O    1.143830    2.143123   -1.425214
 O   -4.232594    1.884760   -0.950716
 O   -2.411822    1.665239    0.342908
 N    0.812778   -0.096960   -0.068137
 N   -2.622557   -1.142722    0.236500
 C   -1.285863   -1.148028    0.327160
 C   -0.458974   -0.449007   -0.763802
 C    0.980241    2.306647   -0.238461
 C    0.781372    1.163356    0.744346
 C   -3.450659   -0.316084   -0.632736
 C   -4.844459   -0.801351   -0.298710
 C   -4.817910   -1.670025    0.704500
 C   -3.422973   -1.930023    1.186527
 C   -3.288527    1.179975   -0.334816
 C   -0.151789   -1.402105   -1.914883
 C    1.799417    1.148204    1.896142
 C    3.283882    1.160408    1.485637
 C    3.638038   -0.001703    0.584930
 C    3.578036   -1.312275    1.071750
 C    3.719341   -2.397941    0.211846
 C    3.929003   -2.188856   -1.150503
 C    4.025657   -0.889096   -1.641419
 C    3.885074    0.197533   -0.777160
 H    1.082233    4.179202   -0.291280
 H   -4.100877    2.824985   -0.741940
 H    0.991720   -0.895991    0.564974
 H    1.587039   -0.038535   -0.742403
 H   -0.903172    0.475699   -1.124094
 H   -0.228548    1.247415    1.157328
 H   -3.215275   -0.465910   -1.696078
 H   -5.712771   -0.429211   -0.825516
 H   -5.680942   -2.151131    1.147356
 H   -3.133878   -2.984725    1.133874
 H   -3.253797   -1.590800    2.215130
 H    0.465368   -0.902225   -2.666972
 H    0.370234   -2.292527   -1.550996
 H   -1.079809   -1.724254   -2.394093
 H    1.579314    0.270301    2.514874
 H    1.582304    2.025258    2.512517
 H    3.881315    1.133826    2.403071
 H    3.519623    2.108191    0.988462
 H    3.408723   -1.485881    2.132059
 H    3.666972   -3.407759    0.606563
 H    4.037581   -3.034395   -1.822174
 H    4.215547   -0.716554   -2.696245
 H    3.949480    1.208506   -1.171310
