38 
1v0m_ligand_dft.xyz
 C   -3.333440    1.351976    0.034894
 C   -3.189201    0.202203    1.033553
 O   -2.250849    0.537207    2.020816
 C   -2.875006   -1.115293    0.285245
 O   -3.927553   -1.438939   -0.593837
 C   -1.631379   -0.960109   -0.602352
 O   -0.567949   -0.668415    0.285531
 C   -1.841941    0.184891   -1.594213
 N   -2.101956    1.441407   -0.819454
 C    0.742444   -0.639234   -0.207310
 C    1.367487    0.678290    0.229666
 C    2.818537    0.718831   -0.207786
 C    3.549114   -0.499274    0.345361
 C    2.788810   -1.766239   -0.074221
 O    0.627407    1.745594   -0.351236
 O    3.337684    1.943481    0.244582
 O    4.845630   -0.458962   -0.206262
 O    1.429036   -1.714211    0.346553
 H   -3.440287    2.299312    0.564562
 H   -4.179307    1.194640   -0.637032
 H   -4.164592    0.087021    1.520540
 H   -1.416567    0.087876    1.821646
 H   -2.679169   -1.905931    1.018919
 H   -4.615396   -1.915918   -0.114566
 H   -1.451570   -1.888779   -1.154334
 H   -2.706573   -0.018286   -2.228439
 H   -0.962115    0.366509   -2.212773
 H   -2.185283    2.227763   -1.466967
 H   -1.245759    1.632561   -0.256937
 H    0.740441   -0.709678   -1.309723
 H    1.313698    0.733882    1.325354
 H    2.860879    0.662219   -1.309257
 H    3.572332   -0.426065    1.441643
 H    2.855427   -1.880138   -1.167058
 H    3.212029   -2.657808    0.390773
 H    1.173068    2.540511   -0.241833
 H    4.271908    1.975039   -0.003607
 H    5.440721   -0.996884    0.329068
