34 
1v0o_ligand_xtb.xyz
 C   -3.868269    0.028922   -0.035282
 C   -3.216364   -1.216474    0.019160
 C   -5.247063    0.114080   -0.067236
 N   -2.926502    1.033511   -0.051370
 C   -3.944634   -2.394940    0.042611
 C   -1.774012   -0.971657    0.043904
 C   -5.327606   -2.309967    0.010878
 C   -5.963179   -1.075309   -0.043242
 O   -0.869069   -1.772607    0.125112
 C   -1.665252    0.533454   -0.018632
 C   -0.561204    1.340564   -0.016762
 C   -0.700834    2.815589    0.014918
 C    0.853752    1.068705   -0.018359
 O   -1.724101    3.477835    0.014449
 N    0.570238    3.324951    0.059425
 C    1.515178    2.320180    0.035508
 C    1.605150   -0.095415   -0.082968
 C    2.980231    0.029976   -0.067800
 C    3.628360    1.247822    0.004977
 S    3.952134   -1.456211   -0.126745
 C    2.892788    2.425219    0.051242
 O    3.611306   -2.095611    1.318508
 O    5.338767   -1.126833   -0.146383
 O    3.430326   -2.355309   -1.110633
 H   -5.747858    1.068555   -0.109720
 H   -3.092501    2.034209   -0.069839
 H   -3.436596   -3.345637    0.083576
 H   -5.920495   -3.211196    0.028399
 H   -7.042026   -1.037935   -0.067409
 H    0.775982    4.310960    0.087437
 H    1.143374   -1.065486   -0.153106
 H    4.705882    1.251951    0.017892
 H    3.380105    3.386440    0.095278
 H    2.953762   -2.786008    1.213082
