17 
1v2m_ligand_xtb.xyz
 C   -0.214510   -0.030958   -0.017975
 C    0.516857   -1.200116    0.171699
 C    1.897861   -1.165139    0.193678
 C    2.565625    0.036539    0.019877
 C    1.845245    1.200656   -0.186913
 C    0.462042    1.170616   -0.204686
 C   -1.690536   -0.106664   -0.031638
 N   -2.359894    1.037635    0.329911
 N   -2.234359   -1.187813   -0.408615
 H   -0.023131   -2.125104    0.295733
 H    2.457592   -2.076347    0.345679
 H    3.645320    0.065475    0.038131
 H    2.362927    2.137072   -0.337627
 H   -0.086888    2.082288   -0.393533
 H   -3.355974    0.974072    0.467588
 H   -1.883908    1.739701    0.869677
 H   -3.251676   -1.175514   -0.398976
