52 
1v2n_ligand_xtb.xyz
 C    2.039925    1.647210   -1.346056
 C    2.858841    0.557644   -0.834272
 C    2.778967    0.110147    0.483324
 C    3.582288   -0.919073    0.931253
 C    3.790444   -0.045720   -1.682968
 C    4.587146   -1.078149   -1.239680
 C    4.497705   -1.527305    0.076282
 C    5.370834   -2.636056    0.510040
 N    5.811419   -3.433188   -0.372974
 N    5.606180   -2.742431    1.858985
 C   -1.986380    1.581103    1.399661
 C   -2.852573    0.527497    0.882959
 C   -3.566455   -0.269450    1.777470
 C   -4.390309   -1.277261    1.320630
 C   -3.024925    0.315122   -0.483793
 C   -3.845597   -0.694204   -0.941251
 C   -4.530721   -1.509842   -0.044126
 C   -5.425427   -2.591978   -0.529950
 N   -4.983148   -3.255143   -1.639283
 N   -6.560666   -2.898524   -0.044391
 C    0.785969    1.954985   -0.993223
 C    0.109930    3.191434   -1.526830
 C    0.402847    4.412666   -0.646013
 C   -0.332534    4.371971    0.689904
 C   -0.034385    3.102638    1.499986
 C   -0.769237    1.909673    0.947089
 C   -0.052377    1.121584   -0.090090
 O   -0.149470   -0.082630   -0.199846
 H    2.526903    2.270682   -2.089377
 H    2.086654    0.577499    1.168098
 H    3.470883   -1.263119    1.949463
 H    3.868719    0.293046   -2.706314
 H    5.293490   -1.561331   -1.895542
 H    6.401394   -4.179053   -0.011579
 H    6.299208   -3.406987    2.163218
 H    5.460149   -1.948342    2.457181
 H   -2.397073    2.146032    2.230757
 H   -3.451185   -0.108474    2.840001
 H   -4.920010   -1.903699    2.025208
 H   -2.514587    0.951372   -1.191917
 H   -3.976660   -0.843048   -2.003054
 H   -5.521125   -4.067982   -1.892614
 H   -3.992010   -3.296159   -1.805255
 H   -6.857567   -2.307955    0.725558
 H   -0.970551    3.041595   -1.583420
 H    0.478949    3.389668   -2.535401
 H    0.104004    5.315836   -1.183105
 H    1.479638    4.469737   -0.469386
 H   -1.409833    4.437136    0.518831
 H   -0.035521    5.243591    1.277741
 H   -0.351606    3.264693    2.532500
 H    1.043136    2.923481    1.498743
