54 
1v2q_ligand_dft.xyz
 N   -1.639912    1.103931   -0.263539
 C   -3.046192    1.165000   -0.590839
 C   -3.850453   -0.075837   -0.126875
 C   -3.714129    2.437593   -0.066956
 O   -4.871688    2.493748    0.270632
 O   -2.891004    3.489366   -0.098538
 C   -3.447759    4.702547    0.404397
 C   -3.095764   -1.342996   -0.429402
 C   -3.109319   -1.923600   -1.698351
 C   -2.277268   -2.999477   -1.996735
 C   -1.403496   -3.497374   -1.036755
 C   -1.397887   -2.944397    0.243739
 C   -2.258631   -1.888578    0.542435
 C   -0.398391   -3.377135    1.266110
 N    0.861110   -3.521573    1.053591
 N   -0.892114   -3.502235    2.544464
 C   -1.212049    1.112388    1.016974
 C    0.288149    0.848391    1.211851
 N    0.761018   -0.340605    0.522381
 O   -1.947211    1.323095    1.972569
 C    7.084087    1.775831    0.579682
 C    5.729681    1.255327    0.172351
 C    5.375431   -0.077839    0.406188
 C    4.119022   -0.556871    0.062690
 C    3.203124    0.311652   -0.526884
 C    3.530037    1.639752   -0.778437
 C    4.793805    2.101248   -0.426844
 S    1.572102   -0.288794   -0.900417
 O    1.685097   -1.665485   -1.352997
 O    0.918815    0.732619   -1.715456
 H   -0.971247    0.898122   -0.997265
 H   -3.095730    1.223678   -1.684592
 H   -4.030665    0.016483    0.946315
 H   -4.824400   -0.053712   -0.623418
 H   -4.337437    4.985082   -0.163934
 H   -2.666205    5.453551    0.292399
 H   -3.716945    4.583911    1.456579
 H   -3.765926   -1.520140   -2.466027
 H   -2.296323   -3.440350   -2.988624
 H   -0.726176   -4.311366   -1.277226
 H   -2.227394   -1.435830    1.530286
 H    1.073797   -3.310197    0.077892
 H   -1.857701   -3.774687    2.647708
 H   -0.249257   -3.916683    3.205073
 H    0.453789    0.733885    2.284136
 H    0.855075    1.725200    0.876891
 H    0.852196   -1.220902    1.024295
 H    7.825079    0.972802    0.625144
 H    7.035879    2.239497    1.571992
 H    7.445513    2.534765   -0.120641
 H    6.096776   -0.752359    0.859229
 H    3.853444   -1.594807    0.239056
 H    2.808561    2.291183   -1.259725
 H    5.056893    3.136455   -0.626857
