54 
1v2t_ligand_xtb.xyz
 N    1.616832   -1.113503   -0.335855
 C    2.999133   -1.125767   -0.765512
 C    3.714505    0.212224   -0.475107
 C    3.743697   -2.265918   -0.061036
 O    4.855166   -2.181746    0.382251
 O    3.016992   -3.383318   -0.074045
 C    3.567125   -4.487398    0.632884
 C    2.777699    1.362030   -0.701408
 C    2.514619    1.840199   -1.978806
 C    1.585739    2.847579   -2.174161
 C    0.894215    3.377204   -1.100931
 C    1.151871    2.914398    0.184097
 C    2.099332    1.914485    0.375067
 C    0.361306    3.414942    1.340584
 N   -0.903279    3.552207    1.362047
 N    1.074524    3.632364    2.486809
 C    1.290235   -1.210794    0.960243
 C   -0.214061   -1.047080    1.230105
 N   -0.767552    0.208353    0.784733
 O    2.089818   -1.425844    1.849334
 C   -6.895837   -1.987476    0.416983
 C   -5.550409   -1.409818    0.106691
 C   -5.168960   -0.183212    0.645565
 C   -3.919740    0.346097    0.380247
 C   -3.050412   -0.355920   -0.432372
 C   -3.403014   -1.572942   -0.978752
 C   -4.655269   -2.097159   -0.706579
 S   -1.440106    0.340173   -0.720939
 O   -1.556928    1.735737   -1.014550
 O   -0.731267   -0.490849   -1.667595
 H    0.889451   -0.905915   -1.015524
 H    2.999709   -1.334853   -1.839717
 H    4.046704    0.195888    0.563627
 H    4.594489    0.283006   -1.114851
 H    4.594385   -4.670118    0.311284
 H    2.932844   -5.340745    0.407233
 H    3.560932   -4.275847    1.703635
 H    3.039132    1.418804   -2.824335
 H    1.389462    3.212757   -3.170923
 H    0.154625    4.148585   -1.251908
 H    2.291684    1.541762    1.372207
 H   -1.355421    3.286866    0.491634
 H    2.052710    3.850536    2.406748
 H    0.567009    4.083348    3.230600
 H   -0.380146   -1.155429    2.306268
 H   -0.756027   -1.836283    0.703217
 H   -0.352562    1.049056    1.151685
 H   -7.631589   -1.200387    0.560873
 H   -6.843684   -2.570049    1.337105
 H   -7.230368   -2.646514   -0.379927
 H   -5.858446    0.358182    1.275952
 H   -3.606473    1.295835    0.783054
 H   -2.699204   -2.085363   -1.615619
 H   -4.942089   -3.047740   -1.131404
