17 
1v2u_ligand_xtb.xyz
 C   -0.214509   -0.031334   -0.016358
 C    0.517429   -1.200320    0.172432
 C    1.898439   -1.164868    0.192566
 C    2.565640    0.037091    0.018301
 C    1.844654    1.201192   -0.186104
 C    0.461545    1.170603   -0.202770
 C   -1.690495   -0.107094   -0.031215
 N   -2.360190    1.037670    0.327842
 N   -2.233970   -1.188693   -0.407388
 H   -0.021831   -2.125754    0.296624
 H    2.458759   -2.075867    0.343470
 H    3.645338    0.066161    0.034233
 H    2.361671    2.137986   -0.336495
 H   -0.087765    2.082183   -0.390454
 H   -3.356837    0.975649    0.461583
 H   -1.885109    1.741255    0.866241
 H   -3.251320   -1.176071   -0.399494
