17 
1v2u_ligand_dft.xyz
 C   -0.213963   -0.035516   -0.022171
 C    0.520556   -1.211253    0.152428
 C    1.908603   -1.174030    0.176704
 C    2.580659    0.036912    0.019679
 C    1.856212    1.209406   -0.168548
 C    0.464739    1.174221   -0.189323
 C   -1.705518   -0.111036   -0.035813
 N   -2.353438    1.078527    0.275689
 N   -2.267024   -1.212693   -0.363991
 H   -0.019230   -2.145383    0.264471
 H    2.469728   -2.092921    0.318526
 H    3.666220    0.064482    0.038246
 H    2.373185    2.154119   -0.308468
 H   -0.091364    2.089279   -0.371626
 H   -3.347866    1.002339    0.440050
 H   -1.890091    1.675433    0.946633
 H   -3.285078   -1.140406   -0.307453
