17 
1v2v_ligand_dft.xyz
 C   -0.213976   -0.035604   -0.022171
 C    0.464786    1.174184   -0.189106
 C    1.856210    1.209438   -0.168358
 C    2.580737    0.036858    0.019397
 C    1.908686   -1.174010    0.176461
 C    0.520586   -1.211154    0.152981
 C   -1.705550   -0.111008   -0.035743
 N   -2.267246   -1.212557   -0.364186
 N   -2.353345    1.078349    0.275738
 H   -0.091170    2.089213   -0.371948
 H    2.373214    2.154078   -0.308629
 H    3.666307    0.064447    0.037653
 H    2.469736   -2.092987    0.318056
 H   -0.019051   -2.145341    0.265181
 H   -3.285283   -1.140122   -0.307760
 H   -3.347990    1.002693    0.438819
 H   -1.890490    1.675254    0.946999
