54 
1v2w_ligand_xtb.xyz
 N    1.616288   -1.115668   -0.337020
 C    2.998990   -1.126012   -0.765811
 C    3.712946    0.212456   -0.473333
 C    3.744666   -2.265605   -0.061460
 O    4.856353   -2.180561    0.381320
 O    3.018735   -3.383498   -0.073193
 C    3.570872   -4.486103    0.634477
 C    2.776439    1.362467   -0.699800
 C    2.515535    1.841715   -1.977253
 C    1.587700    2.849986   -2.173108
 C    0.895135    3.379231   -1.100333
 C    1.150294    2.915185    0.184706
 C    2.096637    1.914266    0.376237
 C    0.358960    3.415918    1.340815
 N   -0.905697    3.552533    1.361915
 N    1.071817    3.634741    2.487006
 C    1.289632   -1.212344    0.959159
 C   -0.214691   -1.048571    1.229102
 N   -0.767293    0.207120    0.783404
 O    2.089317   -1.426543    1.848295
 C   -6.894404   -1.990217    0.417428
 C   -5.549456   -1.411661    0.107143
 C   -5.168934   -0.184635    0.645661
 C   -3.920422    0.345993    0.379385
 C   -3.050556   -0.355629   -0.433278
 C   -3.402199   -1.573237   -0.978865
 C   -4.653920   -2.098335   -0.706386
 S   -1.440128    0.340200   -0.721912
 O   -1.556478    1.736105   -1.014135
 O   -0.731523   -0.490155   -1.669358
 H    0.888809   -0.908179   -1.016627
 H    3.000400   -1.334925   -1.840099
 H    4.043463    0.195426    0.565958
 H    4.593893    0.283966   -1.111720
 H    4.595400   -4.672625    0.306459
 H    2.933362   -5.339080    0.416863
 H    3.572570   -4.269894    1.704272
 H    3.041254    1.420699   -2.822255
 H    1.393092    3.216006   -3.169949
 H    0.156540    4.151600   -1.251451
 H    2.287234    1.541252    1.373590
 H   -1.357626    3.286255    0.491687
 H    2.050213    3.852333    2.407300
 H    0.563987    4.085307    3.230800
 H   -0.381304   -1.156309    2.305324
 H   -0.756877   -1.837635    0.702355
 H   -0.352314    1.047430    1.151019
 H   -7.630508   -1.203795    0.563169
 H   -6.841155   -2.574473    1.336324
 H   -7.229211   -2.647958   -0.380384
 H   -5.859092    0.356419    1.275801
 H   -3.608191    1.296215    0.781781
 H   -2.698027   -2.085196   -1.615864
 H   -4.940261   -3.049096   -1.131240
