54 
1v2w_ligand_dft.xyz
 N    1.640205   -1.103793   -0.263486
 C    3.046472   -1.164564   -0.590891
 C    3.850488    0.076453   -0.126981
 C    3.714765   -2.437011   -0.067059
 O    4.872357   -2.492923    0.270444
 O    2.891857   -3.488970   -0.098542
 C    3.448942   -4.701981    0.404428
 C    3.095532    1.343462   -0.429454
 C    3.108991    1.924146   -1.698372
 C    2.276742    2.999883   -1.996690
 C    1.402862    3.497550   -1.036681
 C    1.397329    2.944484    0.243771
 C    2.258283    1.888816    0.542406
 C    0.397696    3.376922    1.266130
 N   -0.861814    3.521192    1.053514
 N    0.891295    3.502063    2.544504
 C    1.212395   -1.112348    1.017043
 C   -0.287881   -0.848759    1.211883
 N   -0.760947    0.340177    0.522412
 O    1.947640   -1.322798    1.972625
 C   -7.084358   -1.775787    0.579467
 C   -5.729855   -1.255431    0.172283
 C   -5.375577    0.077763    0.405889
 C   -4.119093    0.556669    0.062455
 C   -3.203154   -0.312019   -0.526801
 C   -3.530078   -1.640180   -0.778066
 C   -4.793910   -2.101541   -0.426561
 S   -1.572062    0.288221   -0.900343
 O   -1.684978    1.664839   -1.353179
 O   -0.918816   -0.733415   -1.715154
 H    0.971375   -0.898576   -0.997228
 H    3.095934   -1.223236   -1.684646
 H    4.030783   -0.015822    0.946200
 H    4.824417    0.054553   -0.623574
 H    4.338735   -4.984258   -0.163854
 H    2.667618   -5.453224    0.292418
 H    3.718049   -4.583241    1.456621
 H    3.765686    1.520855   -2.466062
 H    2.295704    3.440823   -2.988550
 H    0.725378    4.311413   -1.277126
 H    2.227101    1.435979    1.530218
 H   -1.074349    3.309884    0.077767
 H    1.856862    3.774500    2.647912
 H    0.248316    3.916236    3.205158
 H   -0.453640   -0.734362    2.284159
 H   -0.854535   -1.725689    0.876792
 H   -0.852252    1.220445    1.024360
 H   -7.825270   -0.972678    0.624841
 H   -7.036332   -2.239465    1.571781
 H   -7.445785   -2.534679   -0.120902
 H   -6.096940    0.752420    0.858698
 H   -3.853492    1.594632    0.238641
 H   -2.808550   -2.291753   -1.259084
 H   -5.057011   -3.136785   -0.626372
