46 
1v7a_ligand_dft.xyz
 C    1.279742    1.032032   -0.584981
 N    2.416572    0.374378   -0.190363
 C    3.197159    1.292661    0.457532
 N    2.640555    2.479009    0.483987
 C    1.437701    2.325536   -0.165927
 C    0.479030    3.437066   -0.368374
 O   -0.573567    3.292985   -0.972319
 N    0.886137    4.610759    0.183246
 C    2.661516   -1.059729   -0.336386
 C    4.045639   -1.325075   -0.940749
 O    5.010357   -1.083049    0.074109
 C    2.417876   -1.789151    0.991247
 C    1.037029   -1.495328    1.553388
 C    4.178180   -2.739523   -1.498579
 O    0.094436   -1.857581    0.558654
 C   -5.919747   -0.011018   -0.462052
 C   -5.157456    0.066281    0.673058
 C   -3.821397   -0.414047    0.684454
 C   -3.277485   -0.982246   -0.501474
 C   -4.093857   -1.048390   -1.663222
 C   -5.378930   -0.575402   -1.643233
 C   -3.003600   -0.348874    1.838235
 C   -1.713588   -0.814491    1.830853
 C   -1.176194   -1.370207    0.643934
 C   -1.944511   -1.452970   -0.493398
 H    0.465861    0.540440   -1.095689
 H    4.159465    1.024212    0.867284
 H    1.789014    4.670874    0.628740
 H    0.318260    5.432032    0.055188
 H    1.918572   -1.407169   -1.058503
 H    4.174169   -0.602903   -1.760936
 H    5.886106   -1.131608   -0.326389
 H    3.175817   -1.493554    1.722579
 H    2.519459   -2.866972    0.828128
 H    0.941618   -0.428651    1.793265
 H    0.868226   -2.072234    2.472438
 H    4.080302   -3.486381   -0.705461
 H    3.420604   -2.935223   -2.264282
 H    5.161691   -2.870499   -1.963326
 H   -6.939049    0.363078   -0.463002
 H   -5.564475    0.501684    1.582240
 H   -3.678244   -1.478578   -2.570673
 H   -5.990268   -0.628853   -2.539333
 H   -3.413649    0.081930    2.747910
 H   -1.116361   -0.757290    2.733739
 H   -1.512431   -1.884925   -1.391517
