52 
1vcj_ligand_xtb.xyz
 C   33.959620   -9.419830   64.723290
 C   32.687883   -9.037142   64.323904
 C   31.583286   -9.891392   64.546130
 C   31.832274  -11.153525   65.084242
 C   33.117823  -11.540687   65.438943
 C   34.186287  -10.664693   65.275887
 C   33.382366  -12.876275   66.011655
 O   32.279800  -13.635647   66.140654
 O   34.470190  -13.280423   66.341083
 N   30.330769   -9.472561   64.160344
 C   29.119434  -10.235531   64.420816
 C   28.948248  -11.291170   63.317201
 C   27.941193   -9.259483   64.531797
 C   27.797248  -12.251544   63.587745
 C   27.613465   -8.511233   63.243475
 N   32.486999   -7.776473   63.694269
 C   32.973361   -7.475075   62.344557
 C   32.221274   -6.177574   61.985098
 C   31.767995   -5.593420   63.318266
 C   31.764616   -6.778583   64.261416
 O   31.213021   -6.845821   65.340577
 C   34.496597   -7.222316   62.349382
 O   34.881639   -6.241824   63.274870
 C   32.664632   -8.647605   61.375158
 N   31.283485   -9.030605   61.225590
 H   32.523442  -14.493814   66.520739
 H   35.173181  -10.970769   65.582479
 H   34.789032   -8.739500   64.609547
 H   32.478487   -4.857478   63.698559
 H   30.784839   -5.126318   63.284637
 H   32.867740   -5.495356   61.437394
 H   31.356961   -6.403455   61.357711
 H   35.027817   -8.167887   62.525121
 H   34.800263   -6.845373   61.370437
 H   34.584011   -6.511534   64.153335
 H   33.052402   -8.374138   60.389779
 H   33.211078   -9.529380   61.722583
 H   30.880469   -9.308201   62.116218
 H   30.725966   -8.278121   60.838346
 H   30.193983   -8.478971   64.278442
 H   29.199981  -10.752238   65.389802
 H   28.802611  -10.792976   62.358580
 H   29.877498  -11.858790   63.242769
 H   27.777671  -13.031987   62.831108
 H   27.912955  -12.722916   64.561601
 H   26.840435  -11.736464   63.566995
 H   27.059800   -9.809864   64.862559
 H   28.183424   -8.535249   65.314519
 H   26.854671   -7.757538   63.440860
 H   28.492467   -8.009933   62.844909
 H   27.228605   -9.185664   62.483520
 H   31.026704  -11.849653   65.241104
