53 
1vcj_ligand_dft.xyz
 C    0.377767   -2.392589   -0.441920
 C   -0.171260   -1.113088   -0.454000
 C    0.669437    0.013652   -0.451296
 C    2.046963   -0.169173   -0.374644
 C    2.581458   -1.454447   -0.307664
 C    1.749788   -2.570266   -0.350511
 C    4.054340   -1.685325   -0.209569
 O    4.759519   -0.541925   -0.200788
 O    4.560594   -2.777960   -0.139215
 N    0.035443    1.291314   -0.482910
 C    0.848987    2.521721   -0.393717
 C   -0.001332    3.688149   -0.918949
 C    1.352246    2.722029    1.043479
 C   -1.341694    3.898895   -0.211489
 C    2.475573    3.751322    1.150189
 N   -1.592293   -0.954258   -0.527957
 C   -2.556066   -1.140838    0.569631
 C   -3.856235   -1.448892   -0.203793
 C   -3.709789   -0.659235   -1.507572
 C   -2.210389   -0.480627   -1.673441
 O   -1.625401    0.019228   -2.611439
 C   -2.198442   -2.263519    1.538079
 O   -1.160487   -1.814872    2.396497
 C   -2.754434    0.186081    1.343200
 N   -1.453810    0.788737    1.745692
 H   -0.278382   -3.252182   -0.528066
 H    2.722355    0.677305   -0.375003
 H    2.191362   -3.560270   -0.330448
 H    5.696553   -0.790764   -0.145861
 H   -0.546577    1.316982   -1.324090
 H    1.719264    2.435577   -1.059515
 H    0.594580    4.603356   -0.850424
 H   -0.181294    3.528533   -1.989261
 H    1.711104    1.764026    1.439201
 H    0.515451    3.027991    1.686063
 H   -1.216560    4.107461    0.856845
 H   -2.003224    3.030424   -0.323089
 H   -1.864762    4.754715   -0.645637
 H    2.151868    4.744176    0.823250
 H    2.821405    3.841434    2.183316
 H    3.333658    3.458056    0.535605
 H   -4.747286   -1.183993    0.371879
 H   -3.899110   -2.523048   -0.409308
 H   -4.114740   -1.172471   -2.381801
 H   -4.186103    0.326316   -1.471035
 H   -3.096056   -2.513502    2.120867
 H   -1.900758   -3.152807    0.973267
 H   -0.752738   -2.564020    2.845493
 H   -3.353307    0.016780    2.241463
 H   -3.264538    0.922600    0.716968
 H   -0.891285    1.097176    0.860200
 H   -0.914248    0.074793    2.255970
 H   -1.587315    1.605948    2.342862
