29 
1vgc_ligand_dft.xyz
 C    0.298286   -1.083424    0.348722
 C    0.974947   -0.444176    1.387110
 C    2.322771   -0.114948    1.278717
 C    3.000022   -0.433700    0.109326
 C    2.352887   -1.071389   -0.943003
 C    1.007178   -1.388822   -0.813826
 C   -1.177461   -1.372501    0.453612
 C   -2.050702   -0.290246   -0.244099
 C   -0.535891    3.180753    0.134929
 C   -0.868207    1.854579   -0.522411
 N   -1.701216    1.046852    0.195236
 O   -0.392706    1.528408   -1.598157
 O   -4.097943   -1.718511   -0.624289
 O   -4.292501    0.221536    0.818015
 B   -3.586435   -0.605986   -0.016668
Cl    4.697544   -0.028550   -0.040342
 H    0.441110   -0.194775    2.300631
 H    2.841674    0.379256    2.093121
 H    2.893567   -1.306807   -1.852986
 H    0.495059   -1.868622   -1.643512
 H   -1.457805   -1.437868    1.513119
 H   -1.412789   -2.342660    0.001481
 H   -1.826742   -0.324400   -1.315763
 H   -1.272288    3.493881    0.881377
 H   -0.450408    3.947211   -0.637245
 H    0.438465    3.085050    0.625287
 H   -2.144066    1.406551    1.026278
 H   -5.023848   -1.904822   -0.436963
 H   -5.217268   -0.012891    0.948666
