29 
1vgc_ligand_xtb.xyz
 C    0.269341   -1.062633    0.481635
 C    0.931932   -0.233606    1.377281
 C    2.266006    0.086215    1.201680
 C    2.945114   -0.431227    0.112774
 C    2.306736   -1.262451   -0.792401
 C    0.973230   -1.569988   -0.603051
 C   -1.197571   -1.330215    0.634892
 C   -2.007051   -0.312475   -0.215542
 C   -0.470095    3.134558    0.032766
 C   -0.743468    1.767084   -0.563381
 N   -1.635445    1.040526    0.144423
 O   -0.215723    1.362630   -1.577546
 O   -4.104884   -1.681257   -0.607733
 O   -4.301148    0.345488    0.644284
 B   -3.586883   -0.563459   -0.060682
Cl    4.613043   -0.036234   -0.116765
 H    0.399038    0.170832    2.226301
 H    2.774365    0.734973    1.898301
 H    2.846953   -1.654237   -1.639811
 H    0.468493   -2.206381   -1.314154
 H   -1.492848   -1.233572    1.681480
 H   -1.450951   -2.331878    0.289128
 H   -1.690341   -0.439312   -1.256135
 H   -1.399284    3.679709    0.179868
 H    0.176996    3.693098   -0.636543
 H    0.028155    3.019488    0.992858
 H   -2.082662    1.435625    0.954713
 H   -5.044722   -1.842761   -0.509712
 H   -5.243408    0.197553    0.739190
