73 
1vj9_ligand_xtb.xyz
 C    3.232156   -3.501751   -1.055724
 O    2.525622   -2.778714   -2.048931
 C    3.037688   -1.516965   -2.373956
 C    3.094017   -0.509756   -1.220036
 N    1.859246   -0.536370   -0.456542
 C    1.783865   -0.090117    0.796713
 C    0.356858   -0.127925    1.350086
 N   -0.483965    0.652151    0.467089
 S   -1.630208   -0.171028   -0.385858
 C   -2.856166   -0.803420    0.807883
 C   -3.887749   -1.488849   -0.012752
 C   -3.664823   -2.781646   -0.472900
 C   -4.591744   -3.400638   -1.291679
 C   -5.747680   -2.733596   -1.661866
 C   -5.971142   -1.442658   -1.214204
 C   -5.043859   -0.821001   -0.397207
 O   -2.273286    0.786354   -1.239093
 O   -0.942769   -1.273624   -0.993186
 C    0.293662    0.378310    2.785812
 O   -1.052384    0.307743    3.207355
 O    2.730360    0.341538    1.438965
 C    3.251883    0.925645   -1.775844
 O    3.072967    1.204294   -2.940932
 N    3.574838    1.813532   -0.816299
 C    3.312853    3.232992   -0.997786
 C    1.890694    3.511442   -0.580387
 C    1.579471    3.738667    0.754117
 C    0.263765    3.893356    1.147749
 C   -0.771964    3.807247    0.218880
 C   -0.456771    3.579205   -1.118625
 C    0.860287    3.432492   -1.509587
 C   -2.185457    3.979005    0.660438
 N   -3.105764    3.266608   -0.034404
 N   -2.580345    4.745339    1.601212
 C    2.598298   -3.374373    0.309202
 C    1.232673   -3.604235    0.435782
 C    0.624126   -3.525606    1.674657
 C    1.372068   -3.209972    2.798702
 C    2.728333   -2.966839    2.675214
 C    3.339853   -3.051253    1.435528
 H    4.286881   -3.201631   -1.028159
 H    3.183958   -4.553288   -1.367217
 H    4.049721   -1.601043   -2.799633
 H    2.369384   -1.126173   -3.145539
 H    3.916608   -0.725643   -0.527629
 H    1.017753   -0.872782   -0.918114
 H    0.011151   -1.166219    1.310954
 H   -0.762068    1.556829    0.815309
 H   -2.323662   -1.467965    1.479595
 H   -3.231542    0.062880    1.342718
 H   -2.756714   -3.295248   -0.196242
 H   -4.410580   -4.404777   -1.644505
 H   -6.470888   -3.217565   -2.300838
 H   -6.868185   -0.916770   -1.504804
 H   -5.215822    0.188080   -0.053553
 H    0.943826   -0.247996    3.407879
 H    0.665672    1.409986    2.816438
 H   -1.115991    0.646803    4.106448
 H    3.580769    1.482299    0.144209
 H    4.025233    3.797898   -0.392839
 H    3.458905    3.461006   -2.055170
 H    2.371030    3.792544    1.487967
 H    0.031983    4.070860    2.190144
 H   -1.244615    3.523827   -1.853036
 H    1.096601    3.245100   -2.545984
 H   -2.843182    2.478190   -0.608580
 H   -4.057469    3.350895    0.277250
 H   -1.844472    5.300616    2.024513
 H    0.656970   -3.828820   -0.448883
 H   -0.434578   -3.724186    1.768806
 H    0.896976   -3.156582    3.767641
 H    3.314949   -2.712901    3.545398
 H    4.401422   -2.867888    1.349121
