73 
1vj9_ligand_dft.xyz
 C    1.414231   -4.407701   -1.103472
 O    1.157560   -3.412966   -2.079473
 C    2.220884   -2.541113   -2.374268
 C    2.670561   -1.677021   -1.194688
 N    1.518012   -1.125133   -0.502349
 C    1.573785   -0.757245    0.792442
 C    0.239018   -0.290801    1.376598
 N   -0.316030    0.825163    0.619538
 S   -1.542631    0.571904   -0.452514
 C   -2.988630    0.576490    0.623180
 C   -4.237789    0.243527   -0.139889
 C   -4.671966   -1.078549   -0.241442
 C   -5.818535   -1.387638   -0.964360
 C   -6.536548   -0.376430   -1.597557
 C   -6.102854    0.943342   -1.508450
 C   -4.956392    1.251550   -0.784225
 O   -1.573287    1.749817   -1.315531
 O   -1.423515   -0.758742   -1.045898
 C    0.345634    0.055114    2.851294
 O   -0.981178    0.157272    3.332193
 O    2.603577   -0.771307    1.467243
 C    3.520823   -0.489575   -1.690294
 O    3.474640   -0.090304   -2.842541
 N    4.243625    0.105612   -0.700847
 C    4.575770    1.520059   -0.819014
 C    3.382038    2.376600   -0.444674
 C    3.119526    2.676466    0.894840
 C    1.992731    3.406155    1.252100
 C    1.093092    3.853426    0.277803
 C    1.341707    3.531097   -1.060382
 C    2.473461    2.801781   -1.415378
 C   -0.107170    4.655628    0.681977
 N   -1.210770    4.488703   -0.115458
 N   -0.147958    5.480872    1.663945
 C    0.756739   -4.090390    0.223172
 C   -0.616527   -3.827466    0.261564
 C   -1.245834   -3.545639    1.468028
 C   -0.509691   -3.509797    2.653388
 C    0.858025   -3.758935    2.619938
 C    1.485080   -4.052270    1.409216
 H    2.494204   -4.562011   -0.969318
 H    0.999065   -5.340678   -1.502455
 H    3.095351   -3.090545   -2.752738
 H    1.865341   -1.890145   -3.175006
 H    3.244434   -2.265367   -0.468429
 H    0.607580   -1.196097   -0.952508
 H   -0.458652   -1.130348    1.292202
 H    0.318031    1.562151    0.321028
 H   -2.766539   -0.136482    1.422475
 H   -3.005640    1.577171    1.062365
 H   -4.103807   -1.867868    0.243038
 H   -6.150368   -2.418880   -1.036431
 H   -7.433147   -0.617381   -2.160661
 H   -6.656125    1.734705   -2.004689
 H   -4.611796    2.280036   -0.720833
 H    0.903060   -0.739989    3.360499
 H    0.900252    0.995846    2.968480
 H   -0.960240    0.581512    4.196246
 H    4.017896   -0.215781    0.238889
 H    5.425530    1.731197   -0.163526
 H    4.882469    1.706106   -1.849538
 H    3.799383    2.326041    1.667379
 H    1.796018    3.618685    2.299515
 H    0.649613    3.862613   -1.827256
 H    2.651356    2.551629   -2.456806
 H   -1.365260    3.602234   -0.582244
 H   -2.033682    4.975340    0.209992
 H    0.777799    5.586231    2.075307
 H   -1.183555   -3.819859   -0.664551
 H   -2.313821   -3.346617    1.487133
 H   -1.000108   -3.271047    3.592051
 H    1.442934   -3.719100    3.533922
 H    2.556964   -4.234435    1.390264
