60 
1vja_ligand_xtb.xyz
 O    1.541332   -3.782824   -1.276629
 C    2.640204   -3.826408   -0.418893
 C    2.997650   -2.440335    0.136550
 N    1.841416   -1.878426    0.815100
 C    1.941478   -0.882637    1.699425
 C    0.590329   -0.351064    2.180525
 N   -0.071296    0.319824    1.087026
 S   -1.233057   -0.487996    0.221134
 C   -2.758850    0.078786    1.020407
 C   -3.887811   -0.503960    0.247637
 C   -4.543916    0.253861   -0.715192
 C   -5.552785   -0.310460   -1.475889
 C   -5.909441   -1.635016   -1.287197
 C   -5.251974   -2.396750   -0.335595
 C   -4.244343   -1.835417    0.428021
 O   -1.048373   -1.895953    0.451720
 O   -1.178689   -0.011716   -1.128626
 C    0.742167    0.582895    3.380965
 O   -0.540859    0.809643    3.916174
 O    3.006087   -0.393400    2.056337
 C    3.384768   -1.471671   -1.000181
 O    3.117765   -1.688478   -2.167141
 N    4.022648   -0.376732   -0.555506
 C    4.150098    0.809864   -1.387435
 C    2.890439    1.626876   -1.252336
 C    1.858218    1.482044   -2.171292
 C    0.649102    2.121647   -1.976446
 C    0.449814    2.921777   -0.854780
 C    1.493316    3.086132    0.056073
 C    2.699459    2.437656   -0.139135
 C   -0.889575    3.505298   -0.583124
 N   -0.890762    4.738849    0.012261
 N   -1.994412    2.905854   -0.773106
 H    1.762251   -3.164182   -1.992503
 H    3.528630   -4.232482   -0.925753
 H    2.367765   -4.493332    0.403512
 H    3.823135   -2.510924    0.854355
 H    0.924512   -2.196534    0.500609
 H   -0.058661   -1.185185    2.459769
 H    0.458684    1.019531    0.593353
 H   -2.694844   -0.270437    2.045951
 H   -2.726275    1.162956    0.969285
 H   -4.259676    1.284682   -0.863730
 H   -6.059585    0.284605   -2.221044
 H   -6.695885   -2.074514   -1.882826
 H   -5.522602   -3.432021   -0.190663
 H   -3.720972   -2.430905    1.160458
 H    1.402034    0.104975    4.116802
 H    1.207061    1.519256    3.049021
 H   -0.471072    1.443817    4.637410
 H    4.049270   -0.231921    0.451112
 H    4.286240    0.477668   -2.418328
 H    5.028141    1.368378   -1.056531
 H    1.997019    0.845822   -3.031478
 H   -0.150965    1.991258   -2.688083
 H    1.344807    3.700392    0.932826
 H    3.494121    2.549768    0.584567
 H   -1.798605    5.170993    0.079170
 H   -0.119901    5.355549   -0.182245
 H   -1.887050    1.968268   -1.150921
