47 
1vjc_ligand_xtb.xyz
 P    3.736738   -0.777185   -0.032741
 O    4.497897   -0.797655   -1.389074
 O    2.710529   -1.779550    0.271739
 O    4.957228   -0.838445    0.963692
 P    1.808818    1.316298    0.411179
 O    1.852352    1.705956    1.920235
 O    1.362697    2.322232   -0.544720
 O    3.261652    0.763457    0.168115
 P    0.770902   -0.609455   -1.122197
 O   -0.412010    0.226453   -1.765024
 O    1.988670   -0.462949   -1.924269
 O    0.868692    0.003763    0.362576
 O    0.074860   -2.001134   -1.011096
 C    0.069879   -2.932198    0.068533
 C   -1.314747   -3.041187    0.723048
 O   -1.556088   -1.965981    1.627164
 C   -2.473411   -3.025084   -0.284812
 O   -3.529860   -3.815663    0.184138
 C   -2.850595   -1.537258   -0.315060
 O   -4.180227   -1.344366   -0.687860
 C   -2.553280   -1.110820    1.141817
 N   -2.087873    0.253425    1.205990
 C   -1.150574    0.740703    2.058766
 N   -0.777212    1.960556    1.792230
 C   -1.506197    2.320744    0.683850
 C   -1.517418    3.443910   -0.164823
 N   -0.714509    4.510339    0.004081
 N   -2.403029    3.460498   -1.166408
 C   -3.200922    2.427041   -1.352226
 N   -3.232248    1.287529   -0.682480
 C   -2.348959    1.259288    0.319304
 H    3.855739   -0.738501   -2.106793
 H    4.720194   -1.277326    1.779615
 H    0.962450    2.041156    2.175544
 H   -0.076837    1.050038   -2.128333
 H    0.343472   -3.897067   -0.364717
 H    0.811069   -2.641075    0.811745
 H   -1.344599   -3.964975    1.311979
 H   -2.142533   -3.369511   -1.272809
 H   -4.348109   -3.413171   -0.141402
 H   -2.164349   -1.012761   -0.985871
 H   -4.273816   -0.389637   -0.868217
 H   -3.464769   -1.212168    1.758308
 H   -0.766546    0.146435    2.863452
 H    0.142037    4.354115    0.509815
 H   -0.684660    5.158741   -0.766860
 H   -3.905295    2.514646   -2.168286
