47 
1vjd_ligand_dft.xyz
 P    4.119611   -1.094465   -0.197156
 O    3.841713   -2.406732   -1.006797
 O    3.831989   -1.073396    1.256691
 O    5.616855   -0.771039   -0.599436
 P    2.134797    1.045048   -0.413686
 O    1.803821    1.836000   -1.729758
 O    2.498754    1.796266    0.792394
 O    3.239714    0.025772   -0.997778
 P    0.685581   -1.318006    0.564744
 O    1.263242   -2.443627   -0.212239
 O    1.254138   -1.112638    2.018113
 O    0.818611    0.093486   -0.218923
 O   -0.882213   -1.342046    0.745311
 C   -1.584656   -2.538407    1.129573
 C   -3.017485   -2.446169    0.623490
 O   -3.666867   -1.290692    1.161525
 C   -3.169636   -2.322973   -0.892286
 O   -4.447841   -2.782923   -1.248457
 C   -3.063251   -0.814438   -1.096354
 O   -3.736438   -0.414450   -2.253653
 C   -3.694434   -0.263699    0.208303
 N   -2.930519    0.878281    0.718660
 C   -2.546800    1.095548    2.024099
 N   -1.666761    2.049518    2.166726
 C   -1.440616    2.477358    0.877496
 C   -0.460003    3.324154    0.333609
 N    0.398005    4.016946    1.106752
 N   -0.362467    3.410473   -1.010418
 C   -1.258914    2.747381   -1.766472
 N   -2.210867    1.919476   -1.371615
 C   -2.219969    1.773647   -0.031296
 H    2.892581   -2.658926   -0.869677
 H    6.065914   -0.276471    0.100259
 H    1.182969    2.595163   -1.561257
 H    2.247042   -1.114367    2.001750
 H   -1.086469   -3.417437    0.708346
 H   -1.576209   -2.595636    2.221019
 H   -3.560126   -3.325241    0.983625
 H   -2.378561   -2.863025   -1.431860
 H   -4.708435   -2.276340   -2.032267
 H   -2.008934   -0.535627   -1.135522
 H   -3.431564    0.495607   -2.419407
 H   -4.730539    0.041268    0.035839
 H   -2.949007    0.489916    2.822430
 H    0.510401    3.683954    2.054533
 H    1.242552    4.350019    0.664350
 H   -1.152423    2.889376   -2.838358
