37 
1vjy_ligand_dft.xyz
 C   10.533752   64.288860    5.293220
 C   11.889735   64.626637    4.733977
 C   12.340245   64.097623    3.523597
 C   13.614699   64.429422    3.079073
 C   14.392544   65.292740    3.835816
 C   13.849709   65.809317    5.016259
 N   12.637392   65.460368    5.465114
 C   14.619917   66.701315    5.904980
 N   14.277662   66.710137    7.258893
 N   15.406827   67.165282    8.014067
 C   16.023044   68.105065    7.064923
 C   15.664516   67.540193    5.695303
 C   16.289320   68.049380    4.477496
 C   15.554042   68.201257    3.258743
 C   16.170946   68.708219    2.153319
 C   17.533468   69.095430    2.236885
 N   18.155247   69.600226    1.138590
 C   19.410931   69.963187    1.273379
 C   20.142933   69.863293    2.481057
 C   19.523162   69.356628    3.592636
 C   18.170792   68.947315    3.494178
 N   17.550378   68.434866    4.589305
 H   10.633993   63.867383    6.298195
 H    9.926228   65.195053    5.381423
 H   10.002456   63.571188    4.662411
 H   11.708080   63.425107    2.952700
 H   14.003089   64.010353    2.155690
 H   15.399876   65.551124    3.531629
 H   13.807901   65.901131    7.640385
 H   16.054284   66.369342    8.063403
 H   17.096398   68.189697    7.240860
 H   15.568759   69.097452    7.194888
 H   14.504085   67.932112    3.234493
 H   15.649640   68.847562    1.211443
 H   19.894329   70.363901    0.384129
 H   21.178179   70.187455    2.510310
 H   20.027443   69.253379    4.548231
