34 
1vrt_ligand_dft.xyz
 N   -1.555286    1.671315   -0.920228
 C   -2.817815    1.456561   -1.287202
 C   -3.506332    0.289198   -0.997312
 C   -2.871257   -0.709361   -0.260705
 C   -1.557960   -0.469284    0.158139
 N   -0.914924   -1.395804    0.999411
 C    0.340652   -1.940951    0.877799
 C    1.343605   -1.260131    0.009356
 C    2.397036   -2.048718   -0.448564
 C    3.455844   -1.467677   -1.128349
 C    3.433390   -0.087054   -1.283617
 N    2.440286    0.690770   -0.859421
 C    1.402336    0.124802   -0.242285
 N    0.390757    1.001883    0.190653
 C   -0.937941    0.732234   -0.213618
 C   -3.579028   -1.986879    0.103581
 O    0.619117   -2.962478    1.484644
 C    0.746790    2.396796    0.285233
 C    0.153325    3.159209    1.430537
 C    1.614706    2.791722    1.440260
 H   -3.294871    2.258422   -1.845504
 H   -4.528702    0.154824   -1.336285
 H   -1.506769   -1.965144    1.590044
 H    2.375196   -3.110729   -0.227695
 H    4.286179   -2.057557   -1.499321
 H    4.254371    0.428108   -1.778159
 H   -3.809769   -2.029215    1.176001
 H   -4.525849   -2.072228   -0.434711
 H   -2.967259   -2.863062   -0.137050
 H    0.885006    2.918010   -0.656330
 H   -0.504186    2.616524    2.102722
 H   -0.129909    4.191094    1.251112
 H    2.354484    3.566293    1.267269
 H    1.929213    2.004522    2.118323
