60 
1vyq_ligand_dft.xyz
 F    1.074493    4.753391    0.360420
 C    0.653373    3.465185    0.051270
 C    1.799633    2.690459   -0.571591
 C    2.508736    2.061995    0.642400
 N    2.828894    0.628407    0.440002
 C    3.743783    0.357622   -0.566487
 N    4.023430   -0.981082   -0.733764
 C    3.545772   -2.070109    0.017939
 C    2.650174   -1.662359    1.085603
 C    2.330989   -0.363926    1.247818
 O    3.896635   -3.201560   -0.252992
 O    4.244183    1.235571   -1.247222
 O    1.653312    2.193773    1.742658
 C    0.384091    2.722080    1.354103
 C   -0.684888    1.646732    1.283242
 O   -0.396753    0.742125    0.239793
 C   -1.391263   -0.259297   -0.032398
 C   -2.636671    0.410373   -0.636254
 C   -3.921593   -0.117953   -0.506272
 C   -5.004438    0.482259   -1.144272
 C   -4.819310    1.618849   -1.922773
 C   -3.537745    2.141949   -2.074846
 C   -2.458382    1.535706   -1.444305
 C   -1.651785   -1.054477    1.257212
 C   -2.583156   -0.625738    2.207750
 C   -2.728396   -1.291841    3.420866
 C   -1.936584   -2.398186    3.709662
 C   -0.998622   -2.829681    2.776296
 C   -0.858378   -2.163505    1.563402
 C   -0.800724   -1.165735   -1.120284
 C   -1.560500   -2.234458   -1.603059
 C   -1.050912   -3.085327   -2.573825
 C    0.228996   -2.879213   -3.085513
 C    0.987127   -1.815357   -2.614964
 C    0.474131   -0.963796   -1.638064
 H   -0.229932    3.547598   -0.587521
 H    1.412770    1.914358   -1.232277
 H    2.462358    3.337177   -1.144814
 H    3.451374    2.565985    0.868527
 H    4.687501   -1.195394   -1.466860
 H    2.244531   -2.423672    1.736642
 H    1.659236   -0.018173    2.020493
 H    0.085491    3.435031    2.128388
 H   -1.659923    2.131284    1.125800
 H   -0.715698    1.130934    2.250477
 H   -4.086263   -1.006315    0.095015
 H   -5.995947    0.054963   -1.027927
 H   -5.665374    2.089131   -2.414558
 H   -3.375967    3.019609   -2.693540
 H   -1.455215    1.924126   -1.587686
 H   -3.205543    0.240093    2.003630
 H   -3.461986   -0.941802    4.140842
 H   -2.050249   -2.920376    4.654843
 H   -0.374897   -3.693258    2.988144
 H   -0.126220   -2.511182    0.843167
 H   -2.557158   -2.409288   -1.209183
 H   -1.654691   -3.913841   -2.931752
 H    0.630371   -3.547548   -3.840972
 H    1.989001   -1.645329   -2.997533
 H    1.075956   -0.148698   -1.262630
