58 
1vzq_ligand_dft.xyz
 N   -3.471207    3.003942   -0.721885
 C   -3.054637    2.426556    0.342189
 N   -3.902665    2.242006    1.411056
 C   -1.653469    1.949808    0.570040
 C   -0.910481    1.460456   -0.504141
 C    0.386463    1.006551   -0.316171
 C    0.970126    1.046407    0.953328
 C    0.228308    1.534979    2.028814
 C   -1.074411    1.976765    1.840160
 C    2.375546    0.556686    1.212799
 N    3.300891    0.995533    0.093819
 C    4.662219    1.462849    0.523842
 C    5.460248    1.286163   -0.754827
 C    5.039555   -0.125430   -1.183907
 C    3.530954   -0.166046   -0.888562
 C    2.992631   -1.391578   -0.155324
 C    1.703805   -1.978193   -0.738292
 N    0.880612   -2.300385    0.321806
 C    1.302785   -1.763122    1.530763
 O    0.746330   -1.885121    2.590088
 C    2.592421   -0.980563    1.262803
 C   -0.366347   -3.061622    0.182027
 C   -1.600150   -2.202497    0.057267
 C   -2.441848   -2.031546    1.150415
 C   -3.632808   -1.293050    1.053210
 C   -3.920264   -0.734253   -0.171315
 O   -4.979669    0.037592   -0.519810
 C   -4.825602    0.328763   -1.911067
 O    4.951638    2.269859   -1.629455
 O   -3.540031   -0.154630   -2.310823
 C   -3.062181   -0.874600   -1.259629
 C   -1.905418   -1.611349   -1.186112
 O    1.469873   -2.144503   -1.910870
 H   -2.702763    3.191357   -1.363299
 H   -4.867406    2.449870    1.184481
 H   -3.792861    1.373269    1.917464
 H   -1.366657    1.392476   -1.486736
 H    0.907689    0.591839   -1.175617
 H    0.667021    1.568534    3.022017
 H   -1.640777    2.367811    2.678857
 H    2.745562    1.019491    2.129226
 H    2.866520    1.772310   -0.413263
 H    4.598723    2.492941    0.874936
 H    5.016321    0.805350    1.321120
 H    6.537285    1.386707   -0.585580
 H    5.243341   -0.322070   -2.238491
 H    5.578510   -0.872927   -0.592236
 H    2.952403    0.044620   -1.789116
 H    3.730206   -2.199764   -0.154992
 H    3.329786   -1.236607    2.025868
 H   -0.431380   -3.706805    1.060761
 H   -0.236322   -3.690405   -0.701853
 H   -2.183241   -2.492245    2.098539
 H   -4.310727   -1.193514    1.894077
 H   -4.864470    1.410197   -2.048336
 H   -5.602056   -0.197617   -2.476266
 H    5.454164    2.271379   -2.453654
 H   -1.252079   -1.732258   -2.044371
