61 
1w10_ligand_xtb.xyz
 N   -2.294364    1.802303    0.871071
 C   -2.352815    2.301397   -0.306415
 N   -1.190990    2.646189   -0.938065
 N   -3.503950    2.509460   -1.028903
 C   -4.693897    1.697536   -0.906620
 C   -4.877871    0.774948   -2.117409
 C   -3.776884   -0.279088   -2.248419
 C   -3.880574   -1.427160   -1.213763
 C   -3.777474   -2.744956   -1.949562
 O   -2.890488   -3.535888   -1.810920
 N   -2.870398   -1.353662   -0.187702
 C   -3.181155   -1.193695    1.118987
 O   -4.309459   -0.953808    1.495785
 C   -1.962023   -1.274436    2.043726
 C   -2.330040   -0.863335    3.465942
 N   -0.943942   -0.404923    1.491357
 C    0.341271   -0.734527    1.391540
 O    0.829590   -1.803321    1.714128
 C    1.196298    0.363849    0.734610
 C    1.162876    1.710981    1.488775
 O    1.294435    2.793546    0.603471
 N    2.534970   -0.165646    0.630053
 C    3.552636    0.455315    0.015303
 O    3.492634    1.568437   -0.474090
 O    4.658621   -0.306307    0.014096
 C    5.808463    0.268350   -0.603858
 C    6.965752   -0.721803   -0.497273
 C    8.255960   -0.065404   -0.979493
 C    6.660124   -1.983011   -1.300480
 H   -3.194182    1.563245    1.269006
 H   -0.377352    2.773109   -0.339200
 H   -1.257294    3.316619   -1.686505
 H   -3.382040    2.921335   -1.943088
 H   -4.632079    1.100127    0.004602
 H   -5.566464    2.355735   -0.822858
 H   -4.885037    1.387478   -3.023396
 H   -5.850475    0.286918   -2.042900
 H   -2.799313    0.193008   -2.131202
 H   -3.818009   -0.702064   -3.255135
 H   -4.850852   -1.384301   -0.702235
 H   -4.599003   -2.907764   -2.673326
 H   -1.947818   -1.679206   -0.436478
 H   -1.573077   -2.300721    2.038377
 H   -2.630293    0.181180    3.479612
 H   -1.475421   -0.998355    4.122624
 H   -3.159247   -1.468118    3.820848
 H   -1.292528    0.549063    1.239590
 H    0.785308    0.546000   -0.270290
 H    0.204441    1.849191    1.993218
 H    1.965625    1.717617    2.237829
 H    2.113886    2.638586    0.088590
 H    2.647572   -1.099792    1.011984
 H    6.049440    1.212115   -0.101024
 H    5.579316    0.492293   -1.652172
 H    7.071650   -0.994274    0.557555
 H    9.083855   -0.765174   -0.899933
 H    8.160926    0.238087   -2.019797
 H    8.490208    0.814300   -0.384864
 H    7.454036   -2.714929   -1.174195
 H    5.725042   -2.422385   -0.964299
 H    6.573331   -1.746010   -2.358922
