76 
1w12_ligand_dft.xyz
 N    1.402303    0.421943   -1.279657
 C    0.256452    1.156056   -0.830574
 C    0.114437    1.207454    0.701428
 O    0.710716    0.448016    1.451954
 N   -0.847833    2.069516    1.160922
 C   -1.327127    1.862671    2.532087
 C   -2.371315    0.735813    2.530591
 O   -3.570066    0.966262    2.563728
 N   -1.834710   -0.509890    2.430915
 C   -2.637730   -1.705319    2.262333
 C   -2.520636   -2.551572    3.527191
 O   -2.461571   -3.756011    3.542271
 C   -1.665976    2.864708    0.305887
 C   -2.326023    2.298138   -0.791771
 C   -2.066092    0.894829   -1.187922
 N   -0.898307    0.373018   -1.237567
 C   -3.213487    0.016708   -1.530712
 C   -4.393912    0.087898   -0.785357
 C   -5.412193   -0.834238   -1.009967
 C   -5.264842   -1.814426   -1.987352
 C   -4.094832   -1.875846   -2.743792
 C   -3.069643   -0.967027   -2.514304
 C   -3.200431    3.090445   -1.543957
 C   -3.398618    4.424452   -1.225103
 C   -2.728918    4.983093   -0.136726
 C   -1.869442    4.207120    0.626373
 C   -2.317382   -2.501421    0.996043
 C   -0.824373   -2.754920    0.772758
 C   -0.596611   -3.854215   -0.270726
 N    0.785868   -3.980170   -0.705174
 C    1.337025   -3.034164   -1.547761
 N    2.727701   -3.070503   -1.592744
 N    0.716267   -2.152299   -2.246163
 S    2.956816    0.889932   -1.092865
 O    2.928960    2.295878   -0.701156
 O    3.686378    0.433917   -2.267857
 C    3.571955   -0.083664    0.302120
 C    5.044426    0.123810    0.509836
 C    5.962585   -0.806692    0.022136
 C    7.327791   -0.614308    0.205152
 C    7.788003    0.518145    0.871301
 C    6.877968    1.456799    1.350899
 C    5.513142    1.261157    1.170518
 H    1.231561   -0.460163   -1.790490
 H    0.249664    2.177853   -1.235607
 H   -1.811372    2.769960    2.888950
 H   -0.469883    1.623947    3.163510
 H   -0.827490   -0.573750    2.323226
 H   -3.679140   -1.356741    2.226344
 H   -2.496067   -1.957795    4.465795
 H   -4.492830    0.827784    0.003959
 H   -6.318613   -0.789401   -0.414145
 H   -6.060791   -2.532350   -2.161179
 H   -3.982626   -2.634148   -3.512767
 H   -2.148588   -1.008801   -3.088089
 H   -3.716050    2.645178   -2.389201
 H   -4.068874    5.031828   -1.824249
 H   -2.874056    6.028938    0.113914
 H   -1.342081    4.636226    1.472518
 H   -2.728643   -1.977841    0.128524
 H   -2.845765   -3.457731    1.081634
 H   -0.332065   -1.834544    0.437208
 H   -0.341694   -3.062190    1.710363
 H   -0.910496   -4.822435    0.132240
 H   -1.218934   -3.677035   -1.155162
 H    1.419245   -4.293140    0.018941
 H    3.089145   -2.456100   -2.314091
 H    3.133378   -3.996880   -1.636449
 H   -0.269034   -2.082644   -2.007696
 H    2.968094    0.217053    1.159473
 H    3.335676   -1.122581    0.051575
 H    5.598418   -1.684614   -0.504728
 H    8.033582   -1.346973   -0.175265
 H    8.853693    0.670601    1.014634
 H    7.232633    2.345637    1.864275
 H    4.801421    1.999241    1.528863
