67 
1w14_ligand_xtb.xyz
 C    0.258721   -1.552488   -2.930527
 C   -1.156578   -1.253777   -3.403663
 C   -2.138224   -1.308245   -2.262598
 C   -2.798846   -0.167189   -1.831257
 C   -2.381403   -2.513214   -1.612759
 C   -3.680074   -0.223303   -0.764362
 C   -3.259788   -2.573084   -0.545302
 C   -3.908252   -1.426265   -0.117204
 S    0.873625   -0.199982   -1.902556
 O   -0.068301    0.169052   -0.878621
 O    1.339692    0.875557   -2.744502
 N    2.216085   -0.927457   -1.237135
 C    3.192824   -0.027538   -0.649591
 C    4.218666   -0.834139    0.164355
 O    3.638310   -1.508500    1.243588
 C    2.497118    1.016170    0.234903
 O    2.301553    0.835694    1.437033
 N    2.160736    2.137132   -0.407150
 C    1.419766    3.223953    0.212469
 C    1.592390    4.480178   -0.626025
 C   -0.075801    2.845661    0.325364
 O   -0.899641    3.265507   -0.465145
 N   -0.332401    2.093330    1.402420
 C   -1.603458    1.441702    1.695709
 C   -1.465747    0.722515    3.040814
 C   -0.510800   -0.471941    3.022812
 C   -1.159679   -1.733476    2.440216
 N   -0.234264   -2.844462    2.401585
 C    0.712052   -2.977199    1.413036
 N    1.774414   -3.786615    1.731860
 N    0.629174   -2.524671    0.221047
 C   -2.748792    2.477996    1.754622
 O   -3.346015    2.721861    0.519112
 H    0.316546   -2.440479   -2.308518
 H    0.967885   -1.611505   -3.750514
 H   -1.169426   -0.260725   -3.857355
 H   -1.438394   -1.986305   -4.166420
 H   -2.610497    0.777356   -2.318043
 H   -1.879318   -3.412307   -1.942161
 H   -4.169994    0.678990   -0.431376
 H   -3.433070   -3.515195   -0.045317
 H   -4.589691   -1.470540    0.719995
 H    1.849014   -1.641856   -0.565885
 H    3.701175    0.487009   -1.473797
 H    4.672735   -1.592487   -0.477657
 H    5.001920   -0.143487    0.512945
 H    3.102997   -0.841008    1.712029
 H    2.102336    2.094477   -1.421036
 H    1.826394    3.361167    1.221772
 H    1.119077    5.323275   -0.130664
 H    1.111481    4.335969   -1.590296
 H    2.647149    4.696943   -0.773621
 H    0.475162    1.691956    1.864198
 H   -1.829726    0.729279    0.891515
 H   -2.451436    0.375334    3.355737
 H   -1.120663    1.452952    3.776874
 H    0.381500   -0.242663    2.437183
 H   -0.188781   -0.685667    4.046309
 H   -2.018567   -2.032643    3.048107
 H   -1.517934   -1.534101    1.428698
 H    0.045361   -3.182765    3.311333
 H    2.544592   -3.695767    1.087061
 H    2.062505   -3.800612    2.697342
 H   -0.205206   -1.982687    0.031556
 H   -2.357596    3.408136    2.196736
 H   -3.545488    2.100716    2.402022
 H   -2.625588    2.976911   -0.094032
