55 
1w1g_ligand_dft.xyz
 O   -6.179208   -0.819768    2.956518
 C   -7.135676   -0.920022    1.925538
 C   -6.579849   -0.346467    0.624452
 O   -6.267130    0.998547    0.923417
 C   -5.360478   -1.143927    0.179391
 O   -4.980959   -0.796053   -1.168531
 P   -3.723765    0.082060   -1.541609
 O   -4.010426    1.458274   -0.762979
 O   -3.415746    0.168789   -2.972294
 O   -2.539088   -0.599905   -0.654168
 C   -1.178217   -0.308586   -0.972432
 C   -0.390350   -1.593179   -0.709819
 O   -0.540041   -2.002801    0.628636
 C    1.102615   -1.385527   -0.964658
 O    1.719309   -2.652139   -0.789868
 P    3.011979   -3.113329    0.043615
 O    2.779616   -2.649545    1.539049
 O    2.780179   -4.683596    0.064366
 O    4.315385   -2.747281   -0.554601
 C    1.654023   -0.243906   -0.105485
 O    2.974599    0.051715   -0.555113
 P    4.249561    0.253913    0.426040
 O    4.602655    1.808687    0.346562
 O    5.417957   -0.348525   -0.423042
 O    3.972967   -0.268271    1.788933
 C    0.817096    1.018149   -0.303398
 O    1.262256    1.971846    0.666519
 P    1.972823    3.361828    0.340788
 O    0.687609    4.295841    0.133941
 O    2.568786    3.252193   -1.134197
 O    2.932579    3.745669    1.392719
 C   -0.674136    0.817443   -0.078994
 O   -1.373722    2.008822   -0.409019
 H   -5.908702    0.109963    2.952657
 H   -7.381591   -1.979909    1.810256
 H   -8.059483   -0.379489    2.177178
 H   -7.342826   -0.412809   -0.166344
 H   -5.669389    1.353045    0.247699
 H   -4.532275   -0.981648    0.873158
 H   -5.593211   -2.210774    0.147378
 H   -3.157086    1.911412   -0.572193
 H   -1.101124   -0.020138   -2.027693
 H   -0.749779   -2.364094   -1.404447
 H   -1.486719   -2.120214    0.786130
 H    1.249439   -1.110344   -2.016094
 H    3.307011   -1.845691    1.796509
 H    1.945663   -4.932003    0.484831
 H    1.651069   -0.512717    0.953182
 H    4.261523    2.344467    1.096695
 H    5.211126   -1.307213   -0.600629
 H    0.985206    1.408615   -1.313065
 H    0.901779    5.238466    0.089351
 H    3.455830    2.845073   -1.100045
 H   -0.848512    0.544763    0.968324
 H   -0.987715    2.750295    0.082312
