41 
1w22_ligand_dft.xyz
 C   -5.057211   -0.687026    0.537944
 C   -6.152918   -1.503271    0.784759
 C   -6.127989   -2.817678    0.334852
 C   -4.995321   -3.253093   -0.348053
 N   -3.936937   -2.484632   -0.590946
 C   -3.964268   -1.217731   -0.154189
 C   -2.759503   -0.424405   -0.458348
 S   -2.559362    1.207980    0.089840
 C   -1.682936   -0.841903   -1.199608
 C   -0.682202    0.151172   -1.332666
 C   -1.022432    1.311263   -0.691773
 S    0.014226    2.722562   -0.511597
 O   -0.814578    3.834801   -0.087010
 O    0.859923    2.786342   -1.685689
 N    1.008568    2.354437    0.803674
 C    0.387339    2.526214    2.119236
 C    1.890894    1.244767    0.626042
 C    2.990870    1.377953   -0.224272
 C    3.851189    0.306318   -0.414904
 C    1.663461    0.031911    1.282651
 C    2.536058   -1.031576    1.101993
 C    3.638825   -0.899793    0.258842
 C    4.542809   -2.072090    0.109238
 O    4.207472   -3.230527    0.333793
 N    5.811463   -1.806757   -0.335781
 O    6.679904   -2.892347   -0.299835
 H   -5.057778    0.345506    0.873963
 H   -7.014158   -1.114604    1.319315
 H   -6.961289   -3.490775    0.504185
 H   -4.934061   -4.273559   -0.719485
 H   -1.635113   -1.833020   -1.631338
 H    0.245947    0.029644   -1.877711
 H   -0.005390    3.539478    2.188888
 H   -0.426517    1.813501    2.311780
 H    1.166868    2.390139    2.871192
 H    3.146773    2.315573   -0.743136
 H    4.680158    0.407264   -1.109102
 H    0.798798   -0.087098    1.926784
 H    2.365403   -1.980409    1.599360
 H    6.282604   -0.976758   -0.000218
 H    6.086505   -3.607239    0.014467
