22 
1w3j_ligand_dft.xyz
 C    1.753321   -0.806405   -0.712075
 C    0.355500   -1.202839   -0.221975
 C   -0.869184   -0.510244   -0.855729
 C   -1.042192    0.941132   -0.367708
 C   -0.932267    0.993003    1.153589
 O    2.153970    0.487249   -0.273932
 O    0.280075   -1.080341    1.222755
 O   -2.057355   -1.143053   -0.457487
 O   -0.073145    1.811140   -0.928136
 N    0.310221    0.284332    1.582849
 H    1.801691   -0.890303   -1.804215
 H    2.477046   -1.504413   -0.287524
 H    0.244528   -2.282269   -0.359246
 H   -0.742135   -0.498240   -1.947625
 H   -2.055683    1.255811   -0.631427
 H   -1.769190    0.472323    1.620348
 H   -0.859716    2.021977    1.512235
 H    1.701850    1.150158   -0.826162
 H   -2.134450   -2.011648   -0.871376
 H   -0.442336    2.263420   -1.696430
 H    0.410403    0.269897    2.600926
 H    1.177021    0.675129    1.128335
