43 
1w3k_ligand_dft.xyz
 C   -2.032982   -1.645293    0.217095
 C   -3.327426   -0.922756   -0.182555
 C   -3.329886    0.559569    0.209142
 C   -2.058683    1.219689   -0.319992
 C   -1.829770    2.639045    0.157412
 C   -0.872393   -0.830893   -0.334415
 O   -2.109159   -2.937700   -0.334261
 O   -4.452552   -1.497772    0.432223
 O   -4.434471    1.229554   -0.333773
 O   -0.959843    0.475458    0.167099
 O   -0.534407    3.048774   -0.294610
 C    3.512801   -0.335077   -1.738176
 C    2.647959   -1.148862   -0.769890
 C    1.394747   -0.409892   -0.290618
 C    1.662036    0.588295    0.871454
 C    2.724629    0.092976    1.845379
 O    4.069746    0.824846   -1.125608
 O    3.455270   -1.610360    0.347892
 O    0.378878   -1.330692    0.065878
 O    2.023207    1.853289    0.355530
 N    3.877287   -0.499882    1.111967
 H   -1.953402   -1.666370    1.313133
 H   -3.414318   -0.979770   -1.280604
 H   -3.322732    0.619269    1.310032
 H   -2.064541    1.205771   -1.420792
 H   -2.612760    3.283051   -0.253285
 H   -1.880085    2.674395    1.253610
 H   -0.920570   -0.809374   -1.439380
 H   -1.439126   -3.493716    0.080540
 H   -4.514176   -2.414788    0.133432
 H   -5.222641    0.724962   -0.088330
 H   -0.511286    4.012729   -0.304713
 H    2.924072   -0.071161   -2.624529
 H    4.360381   -0.943006   -2.060546
 H    2.348950   -2.087097   -1.241758
 H    1.048029    0.203297   -1.131082
 H    0.737935    0.665957    1.441676
 H    3.106033    0.914890    2.455458
 H    2.326481   -0.703418    2.476281
 H    3.355579    1.466536   -0.924501
 H    1.181979    2.306050    0.117269
 H    4.298513    0.188630    0.431168
 H    4.587122   -0.881647    1.741183
