34 
1w4o_ligand_xtb.xyz
 N    1.879771    0.079240   -0.570094
 C    2.595794   -1.093904   -0.702217
 O    2.267544   -1.958502   -1.496809
 N    3.672105   -1.215606    0.117981
 C    4.102307   -0.318373    1.107739
 O    5.088402   -0.565645    1.758294
 C    3.245886    0.843023    1.209706
 C    2.195680    0.999343    0.385568
 O   -0.252230    2.871276    0.944642
 C   -0.995117    3.061525   -0.235747
 C   -0.900442    1.816783   -1.116379
 O    0.423488    1.627276   -1.617960
 C   -1.261813    0.516086   -0.397156
 O   -2.640552    0.283206   -0.425282
 C   -0.465841   -0.515287   -1.203752
 O   -0.267438   -1.690805   -0.477872
 C    0.807941    0.291601   -1.552885
 O   -4.708325   -0.606245    0.576766
 P   -3.147371   -0.793592    0.683341
 O   -2.550537   -0.577861    2.001060
 O   -2.961391   -2.216727    0.023795
 H    4.210839   -2.069856    0.018359
 H    3.479739    1.573970    1.963354
 H    1.541149    1.855886    0.432871
 H   -0.470851    3.563719    1.576312
 H   -2.056955    3.221035   -0.013941
 H   -0.607370    3.918832   -0.802130
 H   -1.581758    1.950127   -1.969089
 H   -0.905815    0.522960    0.640775
 H   -1.013805   -0.723251   -2.137247
 H    0.441528   -2.198875   -0.914475
 H    1.227433   -0.018074   -2.521408
 H   -5.033373   -0.237553    1.397046
 H   -2.021393   -2.433049   -0.018065
