33 
1w4p_ligand_xtb.xyz
 N    2.382608   -0.145087   -0.149442
 C    3.312279   -1.056842   -0.638526
 N    4.605269   -0.786226   -0.284162
 C    5.091573    0.271032    0.489813
 C    4.040309    1.164025    0.938945
 C    2.762080    0.926492    0.605900
 O    2.998024   -2.012733   -1.304625
 O    6.272861    0.366589    0.719139
 C    0.992090   -0.342490   -0.484300
 C    0.136145   -0.829111    0.703295
 C   -1.207022   -0.122928    0.496752
 C   -0.963877    0.797137   -0.725723
 O   -2.218107   -1.071511    0.238442
 O    0.435528    0.890958   -0.879645
 C   -1.534068    2.217028   -0.600373
 O   -2.937471    2.249495   -0.608836
 P   -3.740581   -0.545236    0.330663
 O   -3.890036    0.517700    1.338823
 O   -4.538375   -1.876206    0.571815
 O   -4.189755   -0.192947   -1.137297
 H    5.297519   -1.440928   -0.633666
 H    4.323836    2.014386    1.533446
 H    1.952660    1.578692    0.897890
 H    0.964323   -1.068590   -1.310263
 H    0.597690   -0.534338    1.645010
 H    0.002961   -1.907609    0.687602
 H   -1.500614    0.466928    1.372752
 H   -1.405777    0.300480   -1.604869
 H   -1.201208    2.788807   -1.470682
 H   -1.127296    2.689772    0.300924
 H   -3.277802    1.989505    0.266328
 H   -4.666014   -2.032649    1.506692
 H   -4.005091    0.736451   -1.333095
