88 
1w5v_ligand_dft.xyz
 C   -5.309813   -1.874812   -0.050909
 C   -4.795270   -3.136939    0.259280
 C   -5.629884   -4.248013    0.243105
 C   -6.981171   -4.118965   -0.074484
 C   -7.467960   -2.858036   -0.374291
 C   -6.656171   -1.732348   -0.372982
 C   -1.580065    3.762660   -0.469277
 C   -2.533555    4.002997   -1.458080
 C   -3.825067    4.336291   -1.080349
 C   -4.201869    4.431156    0.250348
 C   -3.242699    4.184216    1.228829
 C   -1.937176    3.852659    0.878202
 C   -0.198221    3.300641   -0.849451
 O   -0.207875    1.882282   -0.714281
 C    0.786341    1.161420   -1.376804
 C    0.348903   -0.312006   -1.460573
 C   -1.148973   -0.551871   -1.695343
 C   -2.101674   -0.255439   -0.513524
 C   -1.542083   -0.771752    0.830224
 O   -1.754362   -1.910568    1.229496
 N   -0.794562    0.139917    1.483444
 O   -3.279784   -0.941281   -0.854468
 C   -4.392146   -0.681462   -0.014139
 O   -1.211766   -1.928429   -2.013039
 O    1.070683   -0.861236   -2.552828
 C    2.134261    1.241495   -0.638673
 O    2.278269    1.869288    0.410130
 N    3.124325    0.537877   -1.207620
 C    4.373918    0.304482   -0.524781
 C    5.057423   -0.974053   -0.942838
 C    6.441623   -0.813677   -0.844634
 C    4.499337   -2.173425   -1.362315
 C    5.351902   -3.231741   -1.676347
 C    6.733881   -3.082727   -1.564367
 C    5.477895    1.368915   -0.767311
 O    5.493894    1.821745   -2.101682
 C    7.288503   -1.871181   -1.149555
 C    6.764712    0.596565   -0.399996
 C   -0.014750   -0.136500    2.668116
 C    1.307979   -0.841992    2.428153
 C    2.328686   -0.232109    3.154036
 C    1.560052   -1.968267    1.650574
 C    2.862730   -2.457257    1.583089
 C    3.892481   -1.834946    2.290574
 C    0.408601    1.210380    3.345614
 O    0.456540    2.278696    2.429265
 C    3.628858   -0.722497    3.087634
 C    1.789296    0.915559    3.971116
 F   -4.739469    4.568446   -2.035512
 F   -8.767635   -2.715749   -0.685237
 H   -3.743387   -3.224666    0.515957
 H   -5.229528   -5.228187    0.483598
 H   -7.651303   -4.971496   -0.091528
 H   -7.082576   -0.766724   -0.626511
 H   -2.289125    3.929401   -2.513335
 H   -5.223908    4.693461    0.500838
 H   -3.518691    4.253335    2.276526
 H   -1.194256    3.635910    1.641041
 H    0.033153    3.565366   -1.890509
 H    0.569725    3.727441   -0.196978
 H    0.909453    1.529189   -2.407303
 H    0.636024   -0.831026   -0.538413
 H   -1.485518    0.051867   -2.551981
 H   -2.277816    0.823582   -0.457628
 H   -0.639633    1.047855    1.054914
 H   -4.904634    0.230063   -0.351937
 H   -4.050142   -0.515528    1.015764
 H   -2.109756   -2.222393   -1.792884
 H    0.673534   -1.731938   -2.711314
 H    2.896862   -0.010868   -2.029251
 H    4.159329    0.269086    0.551282
 H    3.421182   -2.280944   -1.449829
 H    4.936836   -4.176664   -2.014052
 H    7.386055   -3.914260   -1.814711
 H    5.316443    2.257830   -0.156251
 H    5.670546    1.057844   -2.668113
 H    8.366625   -1.755996   -1.077819
 H    6.931934    0.629636    0.684943
 H    7.643052    1.030631   -0.886534
 H   -0.629898   -0.731137    3.353710
 H    0.747993   -2.464739    1.126856
 H    3.082541   -3.332638    0.979862
 H    4.904449   -2.222146    2.213458
 H   -0.326876    1.508990    4.095457
 H    1.161969    2.127009    1.765379
 H    4.429586   -0.243604    3.645489
 H    2.416739    1.811905    3.948002
 H    1.680818    0.617239    5.021820
