88 
1w5y_ligand_dft.xyz
 C   -1.431036    3.656548   -0.800658
 C   -1.791085    4.148732    0.451779
 C   -3.123589    4.434755    0.710018
 C   -4.117715    4.234441   -0.235597
 C   -3.767559    3.727688   -1.484245
 C   -2.436993    3.444928   -1.740934
 C   -5.214642   -1.780382   -0.122827
 C   -6.549600   -1.701732   -0.498924
 C   -7.400404   -2.796638   -0.448649
 C   -6.904075   -4.017969   -0.010341
 C   -5.569901   -4.101464    0.366756
 C   -4.721559   -3.009679    0.319717
 C   -4.294378   -0.592026   -0.178328
 O   -3.157619   -0.948830   -0.947492
 C   -1.981050   -0.254934   -0.615867
 C   -0.989843   -0.646879   -1.737260
 C    0.504937   -0.425521   -1.459156
 C    0.970654    1.040699   -1.473906
 C    2.306056    1.162612   -0.719109
 O    2.441223    1.890672    0.264522
 N    3.292004    0.390128   -1.197615
 O   -0.022529    1.812928   -0.872741
 C   -0.025768    3.215432   -1.098750
 O    1.253109   -1.075425   -2.474751
 O   -1.072031   -2.039334   -1.970480
 C   -1.489163   -0.665613    0.789817
 O   -1.733864   -1.766936    1.269199
 N   -0.770147    0.296172    1.398491
 C   -0.027538    0.135424    2.627247
 C    1.289101   -0.608273    2.494770
 C    2.305713    0.067711    3.165479
 C    1.539329   -1.815336    1.848738
 C    2.837230   -2.321079    1.856208
 C    3.863619   -1.634736    2.507058
 C    0.404051    1.546697    3.156903
 O    0.488656    2.501037    2.123087
 C    3.601120   -0.439327    3.173776
 C    1.767465    1.304976    3.839974
 C    4.535878    0.218285   -0.487629
 C    5.197282   -1.112637   -0.749388
 C    6.584368   -0.965729   -0.673841
 C    4.617070   -2.343361   -1.022125
 C    5.450074   -3.446890   -1.206285
 C    6.834842   -3.309794   -1.114992
 C    5.658619    1.227052   -0.853133
 O    5.678757    1.520651   -2.231473
 C    7.411961   -2.066799   -0.851529
 C    6.933205    0.481270   -0.399672
 F   -5.092745   -5.282552    0.791479
 F   -3.463876    4.907582    1.918290
 F   -2.100549    2.927516   -2.937861
 F   -7.044961   -0.523491   -0.926944
 H   -1.044336    4.260919    1.231064
 H   -5.148459    4.466044    0.007678
 H   -4.513137    3.548053   -2.250528
 H   -8.434563   -2.682814   -0.753591
 H   -7.535291   -4.897910    0.041579
 H   -3.682112   -3.091289    0.625500
 H   -3.988608   -0.325856    0.841582
 H   -4.786905    0.278104   -0.626038
 H   -2.146234    0.826069   -0.650733
 H   -1.279499   -0.089177   -2.640696
 H    0.742602   -0.875368   -0.487375
 H    1.110887    1.335525   -2.525049
 H    3.070491   -0.227422   -1.970769
 H    0.696244    3.707348   -0.441522
 H    0.240092    3.420180   -2.143043
 H    0.831836   -1.942092   -2.588424
 H   -1.983905   -2.302574   -1.772274
 H   -0.584202    1.159740    0.896347
 H   -0.667893   -0.368588    3.360688
 H    0.730062   -2.356710    1.367240
 H    3.054709   -3.260073    1.356726
 H    4.872149   -2.037868    2.488942
 H   -0.341570    1.939095    3.851538
 H    1.227913    2.277307    1.518583
 H    4.399034    0.089764    3.688705
 H    2.409178    2.184838    3.733030
 H    1.633002    1.124757    4.914298
 H    4.317695    0.316024    0.583631
 H    3.537116   -2.440370   -1.097199
 H    5.017187   -4.418612   -1.424174
 H    7.471236   -4.177345   -1.262402
 H    5.514698    2.184234   -0.350241
 H    5.846073    0.693652   -2.704458
 H    8.492211   -1.962699   -0.796248
 H    7.816781    0.839581   -0.935986
 H    7.106020    0.639122    0.673251
