68 
1w7g_ligand_dft.xyz
 C    1.813487   -0.990976   -1.557005
 S    0.076692   -0.952370   -1.228377
 N    0.093231   -1.556900    0.314870
 C   -1.069070   -2.174979    0.945385
 O   -0.675670   -1.888430   -2.051210
 O   -0.344408    0.454459   -1.213258
 C    2.402868   -2.067791   -2.213668
 C    3.791228   -2.112081   -2.291184
 C    4.568383   -1.129303   -1.677307
 C    3.950747   -0.068396   -1.021544
 C    4.724076    0.982628   -0.272885
 F    4.356974    2.220437   -0.630888
 F    4.430464    0.893723    1.070058
 F    6.033219    0.864551   -0.397368
 C    2.565373    0.023584   -0.983902
 C   -2.220875   -1.181944    1.199795
 O   -2.165247   -0.430521    2.174908
 N   -3.318239   -1.135267    0.395261
 C   -4.397316   -0.237632    0.819867
 C   -5.213394    0.230669   -0.379314
 N   -4.311962    0.441188   -1.561334
 C   -3.749790   -0.896457   -2.017934
 C   -3.587905   -1.867689   -0.833410
 C   -3.199492    1.447558   -1.349921
 C   -0.606086   -2.786467    2.297613
 C    0.628537   -2.188256    3.010127
 C    0.621153   -0.711546    3.455428
 N    1.308157    0.189258    2.495027
 C    0.868960    1.393673    2.059012
 N    1.768095    2.238870    1.526355
 N   -0.409992    1.726755    2.072942
 C   -3.617695    2.766929   -0.719210
 C   -2.489833    3.798750   -0.853142
 N   -1.215408    3.343337   -0.263552
 H    0.618602   -0.935015    0.928108
 H   -1.393458   -2.986804    0.293455
 H    1.790237   -2.848464   -2.652323
 H    4.274533   -2.930538   -2.812992
 H    5.650427   -1.193435   -1.711722
 H    2.080769    0.872382   -0.513042
 H   -5.061048   -0.743381    1.529896
 H   -3.948552    0.605192    1.343251
 H   -5.962789   -0.500190   -0.691994
 H   -5.725870    1.167489   -0.156944
 H   -4.896830    0.803427   -2.318439
 H   -2.787944   -0.700520   -2.492632
 H   -4.437282   -1.310836   -2.757995
 H   -4.491601   -2.470438   -0.696056
 H   -2.770364   -2.540071   -1.083962
 H   -2.770768    1.604055   -2.344485
 H   -2.440369    0.947111   -0.752343
 H   -0.361866   -3.835123    2.107406
 H   -1.453960   -2.782962    2.987598
 H    1.530223   -2.384697    2.417697
 H    0.749739   -2.788302    3.917096
 H    1.155365   -0.614891    4.404150
 H   -0.395052   -0.359112    3.616908
 H    2.316947    0.088028    2.494179
 H    2.762888    2.067880    1.603714
 H    1.492105    3.185986    1.315502
 H   -1.098626    1.011256    2.302729
 H   -4.504979    3.182510   -1.212588
 H   -3.855554    2.631164    0.340721
 H   -2.373101    4.062005   -1.913937
 H   -2.797910    4.706036   -0.328709
 H   -0.798411    2.622334   -0.854105
 H   -0.750795    2.468809    1.436964
 H   -0.572384    4.132243   -0.308612
