70 
1w7x_ligand_xtb.xyz
 O   -0.913516   -1.057978    2.336672
 C   -0.923433   -0.583406    1.222772
 N   -1.362884   -1.215204    0.120374
 C   -2.153686   -2.419026    0.167712
 C   -3.625242   -2.106140   -0.057332
 C   -4.015139   -1.394828   -1.185861
 C   -5.346543   -1.080719   -1.386957
 C   -6.301123   -1.483597   -0.468402
 C   -5.916014   -2.191703    0.657275
 C   -4.582571   -2.501494    0.864474
 C   -1.741429   -3.411920   -0.906396
 O   -1.920005   -4.595740   -0.846900
 O   -1.202868   -2.809821   -1.974173
 C   -0.361927    0.820405    0.913560
 N   -1.076336    1.426270   -0.184706
 C   -2.423624    1.720126   -0.128831
 C   -3.000689    2.432225   -1.185568
 C   -4.355336    2.675464   -1.219502
 C   -3.255165    1.271224    0.899122
 C   -4.611628    1.513782    0.854143
 C   -5.188012    2.215830   -0.200178
 C   -6.650718    2.443316   -0.238593
 N   -7.544139    1.672560    0.238873
 N   -7.061351    3.563243   -0.916102
 C    1.094539    0.613885    0.582375
 C    2.018470    0.585108    1.619287
 C    3.367642    0.350972    1.397387
 O    4.285796    0.272254    2.412104
 C    3.828369    0.331492    3.741867
 C    3.816851    0.178510    0.072675
 C    2.875962    0.184083   -0.952289
 C    1.530144    0.379157   -0.711578
 O    5.094766   -0.028625   -0.339874
 C    6.195671    0.227635    0.513776
 C    7.446907    0.290006   -0.322713
 C    8.640864   -0.229473    0.158480
 C    9.796879   -0.143582   -0.597272
 C    9.768512    0.455086   -1.845157
 C    8.579634    0.970909   -2.332297
 C    7.425929    0.893191   -1.573327
 H   -1.361265   -0.701570   -0.748171
 H   -2.012414   -2.876498    1.151981
 H   -3.278665   -1.087663   -1.914583
 H   -5.640914   -0.520747   -2.261631
 H   -7.340880   -1.243885   -0.631975
 H   -6.656224   -2.503742    1.379062
 H   -4.283485   -3.050708    1.744413
 H   -0.979075   -3.468297   -2.651157
 H   -0.447023    1.408671    1.841187
 H   -0.523422    2.047510   -0.757134
 H   -2.367398    2.788208   -1.986932
 H   -4.778838    3.206510   -2.059373
 H   -2.847606    0.732346    1.738886
 H   -5.233701    1.164536    1.665981
 H   -7.178619    0.820360    0.650473
 H   -6.452201    4.364010   -0.910279
 H   -8.045826    3.758628   -0.823253
 H    1.655497    0.728037    2.623843
 H    3.091993   -0.450449    3.949224
 H    4.712078    0.169852    4.357539
 H    3.399905    1.310784    3.978158
 H    3.238059    0.017285   -1.954413
 H    0.835117    0.351378   -1.536169
 H    6.285454   -0.557825    1.272689
 H    6.059486    1.188102    1.029059
 H    8.665451   -0.701686    1.130254
 H   10.721113   -0.549644   -0.212964
 H   10.669993    0.517766   -2.436635
 H    8.551927    1.438490   -3.305755
 H    6.496521    1.292313   -1.949937
