52 
1w83_ligand_dft.xyz
Cl    5.490877   -2.517232   -0.390198
 C    3.763982   -2.264196   -0.289208
 C    2.918894   -3.247930   -0.787314
 C    1.545244   -3.078066   -0.712067
 C    3.244985   -1.102848    0.285724
 C    4.138769   -0.016289    0.817900
 O    4.683877    0.681785   -0.289575
 C    5.608824    1.638225   -0.037312
 C    6.189585    2.240914   -1.162815
 N    7.104557    3.197398   -1.093607
 C    7.491243    3.603525    0.122385
 C    6.977012    3.070452    1.294611
 C    6.012930    2.065766    1.223729
 C    1.862396   -0.940636    0.353481
 C    1.002317   -1.923956   -0.141019
 N   -0.398796   -1.822405   -0.091981
 C   -1.165268   -0.790568    0.392515
 O   -0.706443    0.247277    0.839053
 C   -2.648664   -1.025559    0.306927
 C   -3.212410   -2.304820    0.362752
 C   -4.589451   -2.393011    0.290399
 F   -5.162129   -3.605124    0.345187
 C   -3.450581    0.102155    0.205689
 C   -4.849235   -0.004600    0.118406
 C   -5.414377   -1.287794    0.152887
 N   -5.636102    1.148367    0.039219
 C   -5.233711    2.180492   -0.917279
 C   -5.958599    3.483668   -0.613068
 O   -7.357426    3.304553   -0.621981
 C   -7.732941    2.353664    0.347068
 C   -7.082556    0.998157    0.092446
 H    3.335640   -4.145439   -1.230359
 H    0.891932   -3.855312   -1.100832
 H    4.947610   -0.445790    1.423595
 H    3.558192    0.669352    1.448352
 H    5.877606    1.909679   -2.150789
 H    8.243584    4.387628    0.150363
 H    7.320020    3.432068    2.258671
 H    5.598508    1.642556    2.131969
 H    1.444956   -0.041159    0.785127
 H   -0.899125   -2.569061   -0.550653
 H   -2.629357   -3.206032    0.517222
 H   -2.962488    1.068829    0.234467
 H   -6.479955   -1.456352    0.066049
 H   -5.472753    1.862893   -1.946106
 H   -4.157854    2.350602   -0.859035
 H   -5.730492    4.229390   -1.378510
 H   -5.629791    3.866042    0.366662
 H   -8.820767    2.262557    0.296541
 H   -7.452326    2.705036    1.353097
 H   -7.345525    0.329885    0.917917
 H   -7.481356    0.568812   -0.843495
