31 
1w84_ligand_xtb.xyz
 C   -0.453993    0.684639    0.972783
 C    0.374885    1.923656    0.932577
 C    1.197997    1.985702   -0.372525
 C    2.057315    0.764901   -0.474757
 C    1.596805   -0.384907   -1.107818
 C    2.392072   -1.518374   -1.097114
 N    3.578040   -1.574139   -0.514705
 C    4.022073   -0.479122    0.079076
 C    3.307555    0.706088    0.130716
 C   -0.144795   -0.488560    1.596160
 C   -2.494034    1.255470   -0.533149
 C   -1.682776    0.461581    0.277712
 C   -2.061223   -0.878436    0.537232
 C   -3.221062   -1.426926    0.004936
 C   -4.000289   -0.619391   -0.795090
 N   -1.108294   -1.427482    1.344421
 C   -3.640555    0.705219   -1.059547
 H    1.056421    1.934503    1.785743
 H   -0.265878    2.805964    0.988642
 H    1.814231    2.886879   -0.365569
 H    0.513882    2.030666   -1.221269
 H    0.633240   -0.394064   -1.594781
 H    2.064240   -2.433124   -1.574653
 H    4.998062   -0.562564    0.540120
 H    3.714654    1.569745    0.635538
 H    0.704167   -0.725299    2.209388
 H   -2.227285    2.281471   -0.741099
 H   -3.499524   -2.450021    0.211926
 H   -4.907805   -1.014145   -1.227621
 H   -4.281119    1.303846   -1.690836
 H   -1.105369   -2.371748    1.689303
