81 
1w96_ligand_dft.xyz
 C   -0.374426   -1.972854   -0.619814
 C   -1.855379   -2.238788   -0.406643
 C   -2.458491   -0.999015    0.288290
 C   -3.999802   -1.073091    0.414380
 C   -4.562311    0.309009    0.806506
 C   -4.017136    1.453589   -0.068433
 C   -2.480712    1.365196   -0.094976
 C   -1.764870    2.375236   -1.006782
 C   -0.276352    2.110033   -0.972226
 C    0.664403    2.998625   -0.660613
 C    2.133780    2.691367   -0.653413
 C    2.757287    2.889352    0.750241
 C    2.516065    1.671697    1.640941
 C    3.550727    0.568001    1.407267
 C    3.306264   -0.708018    2.220755
 C    1.944554   -1.368595    1.990200
 C    1.671374   -1.699388    0.525511
 C   -2.132111   -3.528568    0.363949
 C   -5.792360   -2.147314   -0.691028
 C   -4.641280    1.438846   -1.466426
 C   -2.143497    3.812736   -0.652018
 C    3.934302    3.004493   -2.155034
 C    2.674376    5.258768    0.911136
 C    2.648451   -2.683935   -0.075120
 C    3.436347   -2.318705   -1.164712
 C    4.367159   -3.207347   -1.695908
 C    4.508665   -4.477655   -1.146596
 C    3.711390   -4.857215   -0.068569
 C    2.788300   -3.964496    0.463862
 O    0.112498   -1.557373   -1.644959
 O   -1.898390   -0.871461    1.562642
 O   -4.538464   -1.520534   -0.804474
 O   -4.206961    0.476196    2.182240
 O   -2.106942    0.078633   -0.552576
 O    2.752887    3.537102   -1.617972
 O    2.236634    4.020482    1.419717
 O    0.330048   -2.213173    0.496236
 H   -2.301061   -2.281855   -1.400954
 H   -4.243541   -1.778669    1.221944
 H   -5.657954    0.283024    0.720264
 H   -4.304929    2.391770    0.430598
 H   -2.095072    1.512905    0.924690
 H   -2.096500    2.165034   -2.033147
 H    0.006696    1.092271   -1.237430
 H    0.407690    4.019659   -0.392506
 H    2.281766    1.640325   -0.952410
 H    3.845471    3.029028    0.622807
 H    2.563209    2.003442    2.683916
 H    1.496559    1.302953    1.470477
 H    3.599840    0.316430    0.338929
 H    4.544826    0.957951    1.661756
 H    4.098863   -1.429708    1.988239
 H    3.399155   -0.475788    3.289174
 H    1.882441   -2.289850    2.581246
 H    1.128295   -0.724824    2.333975
 H    1.679763   -0.784084   -0.073808
 H   -3.204738   -3.748473    0.360448
 H   -1.789223   -3.441007    1.396792
 H   -1.619717   -4.374303   -0.103926
 H   -6.054172   -2.508929   -1.687096
 H   -5.751007   -3.000294    0.002514
 H   -6.576358   -1.456749   -0.349498
 H   -4.240535    0.614202   -2.058336
 H   -5.728177    1.314228   -1.405181
 H   -4.445860    2.377954   -1.992469
 H   -1.610581    4.520242   -1.293541
 H   -1.888697    4.044057    0.389126
 H   -3.214558    3.990975   -0.788435
 H    3.746542    2.047346   -2.666777
 H    4.310744    3.727492   -2.882398
 H    4.710401    2.838499   -1.391880
 H    2.261783    5.475741   -0.081321
 H    2.342846    6.022383    1.619391
 H    3.772366    5.292217    0.835312
 H    3.303590   -1.336708   -1.611569
 H    4.974974   -2.909620   -2.545384
 H    5.232601   -5.173935   -1.559884
 H    3.811565   -5.850579    0.359280
 H    2.161801   -4.266372    1.299089
 H   -2.512465   -0.353413    2.110305
 H   -4.367430    1.394270    2.432470
