34 
1way_ligand_xtb.xyz
 N    1.498188    1.029748   -0.030755
 N    0.202669    1.259763   -0.048062
 C   -0.454269    0.083807    0.016760
 C    0.483204   -0.968045    0.080124
 C    1.695407   -0.307377    0.047900
 C    3.123651   -0.773769    0.071351
 C    3.780855   -0.076204    1.271547
 C    5.298409   -0.049907    1.205117
 N    5.673512    0.589293   -0.083784
 C    5.269169   -0.272891   -1.225478
 C    3.750233   -0.304590   -1.250769
 C   -2.591337   -1.184765    0.061045
 C   -1.895020    0.026153    0.012023
 C   -2.637359    1.211097   -0.045417
 C   -4.015461    1.192697   -0.054999
 C   -4.675908   -0.024829   -0.006387
 C   -3.971936   -1.214778    0.052116
Cl   -6.415463   -0.059559   -0.019470
 H    0.312960   -2.027258    0.140595
 H    3.196278   -1.861013    0.167442
 H    3.459708   -0.565768    2.189792
 H    3.387986    0.944500    1.291125
 H    5.721490   -1.056190    1.227233
 H    5.718219    0.529848    2.029795
 H    6.670567    0.817893   -0.116592
 H    5.113622    1.451600   -0.155661
 H    5.691073   -1.268138   -1.072412
 H    5.670251    0.144412   -2.151518
 H    3.359583    0.698048   -1.445893
 H    3.407380   -0.950339   -2.058014
 H   -2.046372   -2.116062    0.106212
 H   -2.094772    2.142675   -0.082538
 H   -4.580795    2.112009   -0.099638
 H   -4.502703   -2.154932    0.089662
