34 
1way_ligand_dft.xyz
 N    1.475649    1.140604   -0.000051
 N    0.153134    1.345094   -0.000120
 C   -0.462602    0.143148    0.000030
 C    0.489769   -0.892301    0.000219
 C    1.690372   -0.193771    0.000150
 C    3.117954   -0.654302    0.000172
 C    3.809718   -0.107803    1.264297
 C    5.320342   -0.263553    1.253505
 N    5.860320    0.384443   -0.000209
 C    5.320182   -0.264123   -1.253572
 C    3.809557   -0.108355   -1.264263
 C   -2.598686   -1.171998    0.000158
 C   -1.925956    0.056505    0.000014
 C   -2.702453    1.225122   -0.000145
 C   -4.089156    1.172601   -0.000167
 C   -4.724340   -0.064867   -0.000017
 C   -3.987645   -1.241664    0.000147
Cl   -6.481895   -0.140888   -0.000030
 H    0.336289   -1.964095    0.000357
 H    3.175993   -1.751647    0.000411
 H    3.413019   -0.610486    2.150937
 H    3.535293    0.950832    1.356315
 H    5.638300   -1.309588    1.208617
 H    5.809179    0.223078    2.101504
 H    6.882160    0.374226   -0.000269
 H    5.566245    1.367117   -0.000414
 H    5.638122   -1.310144   -1.208229
 H    5.808937    0.222098   -2.101852
 H    3.535140    0.950246   -1.356712
 H    3.412736   -0.611399   -2.150646
 H   -2.028338   -2.096556    0.000280
 H   -2.186228    2.179240   -0.000260
 H   -4.676871    2.084977   -0.000296
 H   -4.493806   -2.201620    0.000263
