22 
1wbg_ligand_xtb.xyz
 C    4.198988   -1.946625    0.117808
 S    4.483649   -0.149180   -0.030067
 C    2.855710    0.450339   -0.018928
 N    2.542836    1.719738   -0.011397
 N    1.212912    1.814125   -0.011538
 C    0.698216    0.610725   -0.019834
 N    1.721619   -0.312414   -0.026428
 C   -0.713181    0.301003   -0.016852
 C   -1.625761    1.356887    0.048049
 C   -2.982659    1.112532    0.057959
 C   -3.441388   -0.196689    0.001840
Cl   -5.138977   -0.510928    0.017898
 C   -2.551405   -1.257181   -0.067143
 C   -1.192633   -1.007319   -0.076237
 H    3.657739   -2.166392    1.033920
 H    3.676651   -2.320928   -0.758510
 H    5.186645   -2.393172    0.165608
 H   -1.239995    2.362613    0.090727
 H   -3.686398    1.928135    0.110034
 H   -2.921430   -2.269432   -0.112929
 H   -0.513581   -1.845712   -0.133373
 H    1.647702   -1.314647   -0.033094
