22 
1wbg_ligand_dft.xyz
 C    7.799459   18.679286   53.074849
 S    7.930831   20.489089   53.023709
 C    8.659450   20.648925   51.438306
 N    9.006477   19.682416   50.626610
 N    9.533559   20.267758   49.501351
 C    9.493388   21.566530   49.657841
 N    8.946772   21.861009   50.882044
 C    9.955889   22.555144   48.680936
 C   10.253965   22.127888   47.382597
 C   10.696316   23.029817   46.426559
 C   10.839229   24.371620   46.768601
Cl   11.390486   25.512360   45.566982
 C   10.552533   24.817507   48.052908
 C   10.114403   23.904351   49.004753
 H    7.348379   18.436461   54.038830
 H    8.788087   18.226387   52.995132
 H    7.167349   18.322416   52.261131
 H    8.733675   22.767999   51.265912
 H   10.134101   21.078454   47.136174
 H   10.926351   22.697817   45.420286
 H   10.676564   25.864071   48.307521
 H    9.916736   24.263695   50.010969
