13 
1wbo_ligand_xtb.xyz
 C    0.122718    0.945279    0.000473
 C    1.504216    1.115306    0.001113
 C    2.344401    0.018654   -0.000558
 C    1.825190   -1.265243   -0.000771
 C    0.453978   -1.454362    0.000684
 C   -0.383640   -0.355659    0.000502
 O   -0.679652    2.028606   -0.000521
Cl   -2.116538   -0.570897   -0.000084
 H    1.891848    2.121284    0.002682
 H    3.413036    0.168214   -0.001961
 H    2.481910   -2.120873   -0.001991
 H    0.034019   -2.448036    0.001845
 H   -1.603629    1.731961   -0.003635
