21 
1wdn_ligand_dft.xyz
 N    0.761992    1.657761    0.505286
 C    1.134958    0.253871    0.874404
 C    1.833216   -0.435738   -0.297952
 O    1.882853   -1.626794   -0.423498
 C   -0.070387   -0.538175    1.400892
 C   -1.116412   -1.026404    0.385928
 C   -1.986193    0.045303   -0.245420
 O   -1.598339    1.212756   -0.422073
 N   -3.202027   -0.330751   -0.647809
 O    2.409123    0.455351   -1.116449
 H    1.454698    2.072544   -0.124713
 H    0.674845    2.250840    1.332970
 H   -0.212216    1.606806    0.026083
 H    1.883830    0.319239    1.671186
 H    0.346965   -1.427401    1.879721
 H   -0.550264    0.043845    2.196049
 H   -0.622489   -1.575854   -0.424394
 H   -1.753287   -1.756201    0.895192
 H   -3.788925    0.342216   -1.122538
 H   -3.554486   -1.267217   -0.521636
 H    2.881386   -0.021528   -1.821213
