43 
1wdq_ligand_dft.xyz
 C    0.912008   -0.596250   -0.899813
 C    1.809714   -1.801865   -0.618040
 C    2.758217   -1.474943    0.530337
 C    3.534210   -0.202206    0.219218
 C    2.526694    0.916413   -0.039606
 C    3.158373    2.235345   -0.417787
 O    0.039669   -0.445055    0.196850
 O    1.086916   -2.978066   -0.346983
 O    3.698424   -2.508195    0.736791
 O    4.359324    0.174678    1.296955
 O    1.668466    0.557636   -1.119510
 O    2.111049    3.193475   -0.472094
 C   -4.005544    0.559964    0.386261
 C   -3.603267   -0.724603   -0.337803
 C   -2.226847   -1.190344    0.089515
 C   -1.271185   -0.029832   -0.113735
 C   -1.667295    1.130079    0.795538
 C   -0.853458    2.395460    0.538714
 O   -5.166383    0.765589    0.643890
 O   -4.546187   -1.731884   -0.107386
 O   -1.773014   -2.279872   -0.687345
 O   -3.066263    1.474618    0.638110
 O   -0.673575    2.643456   -0.829969
 H    0.339014   -0.754741   -1.817787
 H    2.415251   -1.972928   -1.518119
 H    2.166891   -1.307696    1.443862
 H    4.129504   -0.369344   -0.693855
 H    1.937193    1.064516    0.874617
 H    3.905154    2.502181    0.338740
 H    3.653319    2.131281   -1.393100
 H    0.152233   -2.745856   -0.209638
 H    3.188466   -3.324752    0.829781
 H    4.808415   -0.632300    1.584631
 H    2.461416    4.028588   -0.799675
 H   -3.555228   -0.470909   -1.411365
 H   -2.251441   -1.468423    1.154713
 H   -1.321453    0.326573   -1.148933
 H   -1.536748    0.833011    1.843833
 H   -1.390432    3.228645    1.010983
 H    0.106823    2.287652    1.053885
 H   -5.377610   -1.276248    0.104848
 H   -2.453082   -2.966477   -0.649672
 H    0.285201    2.652899   -0.989021
