104 
1wdy_ligand_dft.xyz
 O    2.423505   -0.038954    2.494419
 P    1.564429   -1.239784    2.594187
 O    0.111026   -1.068891    3.207062
 O    2.132488   -2.414175    3.515182
 O    1.365332   -1.883515    1.128996
 C    0.245340   -2.660387    0.726906
 C   -0.664808   -1.797838   -0.137240
 O   -1.553711   -2.661161   -0.849646
 C   -2.750208   -1.987770   -1.150108
 C   -2.682618   -0.598101   -0.474091
 O   -2.222714    0.401311   -1.371715
 C   -1.623930   -0.857494    0.600227
 O   -1.069041    0.278446    1.197549
 N   -3.863944   -2.770669   -0.613961
 C   -3.806210   -3.993142    0.020298
 N   -4.978029   -4.496784    0.301764
 C   -5.864034   -3.558595   -0.182884
 C   -7.271305   -3.504551   -0.203214
 N   -8.030920   -4.477994    0.324963
 C   -5.197304   -2.483835   -0.757206
 N   -5.779546   -1.404962   -1.312783
 C   -7.112101   -1.476603   -1.272463
 N   -7.874200   -2.443210   -0.765101
 P   -3.197321    0.793095   -2.627603
 O   -3.093110   -0.129172   -3.767065
 O   -4.624510    0.985506   -1.965266
 O   -2.711207    2.271677   -2.949345
 C   -2.662619    3.294777   -1.955315
 C   -1.468956    4.195828   -2.279543
 O   -1.330778    5.178912   -1.245415
 C   -0.453818    4.707521   -0.257524
 N   -1.209238    4.477492    0.973604
 C   -2.403738    5.071362    1.327259
 N   -2.837320    4.722235    2.507771
 C   -1.868107    3.855581    2.970733
 C   -0.847058    3.692048    2.043270
 N    0.240713    2.921667    2.185221
 C    0.253403    2.299870    3.365441
 N   -0.653521    2.359110    4.346410
 C   -1.736538    3.128826    4.168802
 N   -2.670884    3.173742    5.138692
 C    0.149311    3.395816   -0.789974
 O    1.546033    3.297695   -0.527780
 C   -0.139277    3.458759   -2.288977
 O    0.804320    4.259866   -2.953862
 P    2.096238    1.868966    0.010222
 O    1.125756    0.777991   -0.245891
 O    3.426226    1.660988   -0.855223
 C    4.645702    2.353655   -0.585451
 C    5.810696    1.487275   -1.027758
 O    5.972736    0.399875   -0.107339
 C    5.856824   -0.824594   -0.776728
 N    5.146179   -1.746356    0.103407
 C    5.006584   -1.646429    1.459647
 N    4.340197   -2.643601    1.986639
 C    4.004374   -3.441535    0.911182
 C    4.508109   -2.906787   -0.265364
 N    4.358238   -3.420799   -1.495520
 C    3.609684   -4.522396   -1.484148
 N    3.004528   -5.100721   -0.443858
 C    3.167177   -4.563997    0.775738
 N    2.513152   -5.120428    1.819644
 C    5.106233   -0.537434   -2.091611
 O    5.426295   -1.407887   -3.134237
 C    5.645535    0.858866   -2.414223
 O    6.916210    0.750303   -3.006921
 H   -0.387543   -0.390577    2.685382
 H    3.093526   -2.508347    3.267501
 H    0.628523   -3.487449    0.122603
 H   -0.294207   -3.070566    1.588306
 H   -0.041755   -1.230847   -0.837599
 H   -2.874102   -1.906900   -2.234075
 H   -3.641047   -0.296008   -0.044126
 H   -2.118685   -1.431169    1.395229
 H   -0.296853    0.575162    0.659123
 H   -2.853555   -4.453943    0.232642
 H   -7.601438   -5.303780    0.709489
 H   -9.033181   -4.416022    0.247332
 H   -7.641866   -0.634793   -1.709927
 H   -5.090871    0.107338   -1.814527
 H   -2.559767    2.855830   -0.957697
 H   -3.591089    3.870808   -1.985336
 H   -1.628694    4.726449   -3.219681
 H    0.319030    5.459390   -0.074745
 H   -2.902650    5.746695    0.647658
 H    1.106686    1.651064    3.546825
 H   -2.486677    2.705252    6.010952
 H   -3.443130    3.815337    5.063553
 H   -0.374923    2.544368   -0.357662
 H   -0.214929    2.457246   -2.726923
 H    1.676651    3.948595   -2.677332
 H    4.741654    2.566591    0.485900
 H    4.648105    3.298878   -1.139128
 H    6.721964    2.094425   -1.009584
 H    6.845179   -1.245262   -0.999732
 H    5.390010   -0.796536    2.001789
 H    3.453668   -5.002379   -2.446243
 H    2.349385   -4.564239    2.648115
 H    1.835124   -5.833112    1.595144
 H    4.029537   -0.492114   -1.888925
 H    5.077336   -2.285920   -2.872359
 H    4.952611    1.428317   -3.047490
 H    6.871138   -0.033894   -3.576993
 H    2.551927    2.094236    1.300072
