104 
1wdy_ligand_xtb.xyz
 O    3.520106    0.333846    0.620827
 P    2.731691   -0.414818    1.620694
 O    1.864212    0.288014    2.718165
 O    3.662869   -1.239349    2.587868
 O    1.796106   -1.487815    0.867478
 C    0.547331   -1.917096    1.367917
 C   -0.586389   -1.160613    0.672755
 O   -1.558913   -2.068659    0.181777
 C   -2.740014   -1.351244   -0.097370
 C   -2.618872    0.028667    0.592774
 O   -2.306331    1.052878   -0.322782
 C   -1.414934   -0.194141    1.537619
 O   -0.771651    0.955961    1.968653
 N   -3.866940   -2.108316    0.392433
 C   -3.855110   -3.433511    0.745753
 N   -5.019468   -3.905331    1.059175
 C   -5.882155   -2.853107    0.899782
 C   -7.273240   -2.718786    1.062137
 N   -8.059060   -3.724914    1.463965
 C   -5.172722   -1.714743    0.475615
 N   -5.742718   -0.523728    0.243107
 C   -7.055924   -0.528223    0.432127
 N   -7.825250   -1.524979    0.813895
 P   -3.466763    1.388638   -1.438848
 O   -3.663429    0.333336   -2.424276
 O   -4.717249    1.790076   -0.565165
 O   -2.936965    2.730038   -2.071759
 C   -2.674408    3.887327   -1.294783
 C   -1.496634    4.692757   -1.890982
 O   -0.797254    5.351404   -0.838509
 C    0.351479    4.625227   -0.493619
 N    0.397320    4.330695    0.913761
 C   -0.560571    4.453502    1.885217
 N   -0.162616    4.085304    3.062823
 C    1.139634    3.684141    2.891549
 C    1.500776    3.835205    1.544023
 N    2.687028    3.527085    1.020360
 C    3.541357    3.087033    1.931661
 N    3.340455    2.914261    3.222556
 C    2.136384    3.173938    3.742631
 N    1.949471    2.977333    5.058469
 C    0.337894    3.338367   -1.349434
 O    1.620904    2.876513   -1.642635
 C   -0.448277    3.805397   -2.576457
 O    0.343387    4.581670   -3.433987
 P    2.229442    1.649989   -0.698979
 O    1.200043    1.332961    0.304970
 O    2.255541    0.451953   -1.762964
 C    3.031636    0.614647   -2.936487
 C    3.005157   -0.671935   -3.767141
 O    3.881386   -1.652027   -3.217676
 C    3.165305   -2.705579   -2.654034
 N    3.584222   -2.951499   -1.294607
 C    4.553786   -2.348689   -0.560464
 N    4.636402   -2.792437    0.661559
 C    3.647983   -3.742513    0.764548
 C    2.975468   -3.842302   -0.462028
 N    1.933545   -4.643673   -0.704843
 C    1.580952   -5.352871    0.354029
 N    2.108873   -5.332592    1.564026
 C    3.147634   -4.528152    1.817561
 N    3.669019   -4.527080    3.056530
 C    1.660431   -2.341936   -2.696733
 O    0.839393   -3.433285   -2.974099
 C    1.613384   -1.316835   -3.841658
 O    1.447609   -1.942134   -5.081408
 H    1.031975    0.692863    2.418931
 H    4.343731   -1.690275    2.047138
 H    0.450876   -2.979287    1.122986
 H    0.503210   -1.789853    2.453076
 H   -0.145813   -0.594934   -0.161665
 H   -2.850106   -1.205646   -1.181828
 H   -3.533587    0.285209    1.135908
 H   -1.765565   -0.715410    2.437139
 H   -0.358139    1.379308    1.194429
 H   -2.943253   -3.994240    0.751647
 H   -7.656390   -4.634155    1.603253
 H   -9.051519   -3.579622    1.515895
 H   -7.558636    0.412180    0.251816
 H   -5.222345    0.965597   -0.312249
 H   -2.419301    3.598834   -0.272488
 H   -3.575711    4.505369   -1.266519
 H   -1.849160    5.465465   -2.577511
 H    1.257272    5.206209   -0.733791
 H   -1.531607    4.850839    1.667729
 H    4.533610    2.847046    1.576325
 H    2.660377    2.475564    5.561175
 H    1.014122    3.034955    5.420253
 H   -0.238988    2.564992   -0.830943
 H   -0.908628    2.974980   -3.123344
 H    1.239509    4.221081   -3.409218
 H    4.068554    0.840415   -2.668169
 H    2.628210    1.441763   -3.530202
 H    3.368433   -0.450767   -4.776901
 H    3.339181   -3.630303   -3.233967
 H    5.185385   -1.589823   -0.974209
 H    0.742327   -6.022275    0.216904
 H    4.313793   -3.799930    3.311409
 H    3.173246   -5.029233    3.772660
 H    1.394962   -1.853008   -1.750290
 H    0.955131   -4.077408   -2.246590
 H    0.822620   -0.573503   -3.677155
 H    0.878002   -2.711836   -4.932438
 H    3.494544    2.134165   -0.669518
