22 
1we2_ligand_dft.xyz
 C    0.549518   -1.202248   -0.194679
 C   -0.937574   -1.415185   -0.297073
 O   -1.386461   -1.970022    0.923152
 C   -1.671516   -0.102662   -0.585458
 O   -3.044631   -0.331785   -0.351164
 C   -1.137572    0.997634    0.317456
 C    1.113973    0.006194   -0.090562
 C    0.317097    1.286313   -0.033131
 C    2.589799    0.166451   -0.005350
 O    3.274474   -0.988406   -0.114735
 O    3.144977    1.232563    0.143444
 O   -1.989086    2.117040    0.117389
 H    1.169326   -2.093196   -0.189772
 H   -1.138287   -2.114583   -1.124608
 H   -2.347888   -1.839416    0.910415
 H   -1.501257    0.189096   -1.633934
 H   -3.432095    0.542736   -0.199001
 H   -1.209898    0.639846    1.354650
 H    0.772560    1.964976    0.695588
 H    0.355772    1.803981   -1.000430
 H    4.211272   -0.749664   -0.037076
 H   -1.816042    2.762128    0.812267
