34 
1wm1_ligand_xtb.xyz
 N    3.678127    0.699778   -0.662731
 C    2.477166   -0.180951   -0.707706
 C    1.325347    0.709987   -0.205435
 O    1.591888    1.833300    0.173031
 C    2.791045   -1.338070    0.252774
 C    3.835167   -0.741020    1.193514
 C    4.686219    0.087928    0.242823
 C    0.024789    0.102693   -0.248867
 N   -0.221732   -1.112828   -0.681900
 N   -1.517465   -1.306834   -0.596970
 C   -2.054746   -0.206915   -0.115187
 O   -1.119786    0.716360    0.123978
 C   -3.492921    0.044245    0.151071
 C   -3.912818    1.296996   -0.631919
 C   -3.657156    0.292352    1.658827
 C   -4.308852   -1.170053   -0.288556
 H    4.061738    0.929613   -1.580249
 H    3.271001    1.582923   -0.233411
 H    2.249226   -0.537344   -1.712147
 H    3.211007   -2.175541   -0.302658
 H    1.901322   -1.691021    0.765808
 H    4.415365   -1.504560    1.703522
 H    3.366138   -0.104607    1.944053
 H    5.276301    0.856691    0.738910
 H    5.347683   -0.555360   -0.339567
 H   -3.784778    1.141776   -1.700882
 H   -3.327027    2.161157   -0.327152
 H   -4.961399    1.504063   -0.439360
 H   -4.702248    0.494440    1.874460
 H   -3.065564    1.146941    1.979222
 H   -3.352443   -0.583541    2.227148
 H   -5.362142   -0.990803   -0.094476
 H   -4.175195   -1.358056   -1.349865
 H   -3.997747   -2.058009    0.253743
