61 
1wn6_ligand_dft.xyz
 O   -3.381670    1.759786    0.214474
 N   -4.323590   -1.073183   -0.090591
 C   -4.945835   -1.226467    1.155697
 O   -4.504415   -1.924064    2.034433
 N   -6.129298   -0.518614    1.292299
 C   -6.635922    0.462591    0.406007
 C   -6.096550    0.273082   -0.963340
 C   -4.958926   -0.416127   -1.122520
 C   -2.932276   -1.536214   -0.140894
 C   -2.461145   -1.714461   -1.554006
 C   -1.381668   -1.099055   -2.028730
 C   -0.572023   -0.161080   -1.174518
 C   -1.409305    0.336836    0.018664
 O   -2.101147   -0.708568    0.645755
 O   -1.697526    2.400677   -1.108703
 C   -2.298357    1.547781   -0.288763
 N    0.625216   -0.864419   -0.721020
 C    1.750412   -0.200401   -0.379255
 O    1.818948    1.027177   -0.445659
 C    2.921474   -1.054081    0.101391
 C    4.292156   -0.448557   -0.246447
 N    4.401007    0.920163    0.346279
 C    5.439013   -1.383575    0.181874
 C    6.821579   -1.225047   -0.501819
 N    7.762990   -0.333457    0.168717
 C    8.766744   -0.929889    1.044459
 C    7.488458    1.002554    0.201395
 N    7.937911    1.722702    1.254174
 N    6.707643    1.620957   -0.663564
 N   -6.150258    1.869401    0.910653
 O   -7.999992    0.629188    0.529791
 H   -6.615628   -0.671766    2.168327
 H   -6.601984    0.749439   -1.793792
 H   -4.486181   -0.502317   -2.094013
 H   -2.920315   -2.493796    0.383104
 H   -3.022242   -2.415862   -2.165750
 H   -1.025991   -1.295310   -3.035832
 H   -0.232185    0.699610   -1.753912
 H   -0.713853    0.714325    0.777737
 H   -2.245804    3.198421   -1.199215
 H    0.565593   -1.863726   -0.585295
 H    2.832081   -1.180430    1.189270
 H    2.860738   -2.055391   -0.335368
 H    4.339181   -0.288919   -1.329326
 H    3.536586    1.432224    0.099023
 H    4.475337    0.885169    1.364924
 H    5.320967    1.421167   -0.062278
 H    5.097539   -2.399888   -0.042089
 H    5.562895   -1.347260    1.272665
 H    6.696124   -0.942901   -1.552460
 H    7.294234   -2.208242   -0.521994
 H    9.637578   -0.273916    1.112879
 H    8.381562   -1.134226    2.052525
 H    9.110863   -1.869664    0.609816
 H    8.474266    1.325203    2.007500
 H    7.968155    2.724261    1.134727
 H    6.671564    1.112362   -1.543800
 H   -6.584865    2.605692    0.346768
 H   -6.424215    2.016967    1.887207
 H   -5.120951    1.924869    0.813477
 H   -8.452962   -0.111847    0.100650
