65 
1wqv_ligand_dft.xyz
 C   -0.441016   -0.138194    1.758833
 O   -0.620673   -1.128119    2.466450
 N   -1.394535    0.391233    0.962889
 C   -2.686239   -0.254000    0.743561
 C   -3.685718    0.762499    0.204038
 C   -5.079528    0.160927    0.045531
 C   -2.447754   -1.420460   -0.239597
 O   -2.624510   -1.311189   -1.442405
 N   -1.965844   -2.545921    0.359898
 C   -1.260759   -3.543834   -0.433002
 C    1.150100   -3.266767    0.273877
 C    2.430225   -2.759504    0.083565
 C    2.751566   -2.069745   -1.090822
 C    1.776115   -1.935311   -2.082389
 C    0.495841   -2.443752   -1.888139
 C    0.164985   -3.106780   -0.703838
 C    4.065085   -1.365310   -1.219033
 N    4.245172   -0.231500   -1.787602
 S   -6.262894    1.458534   -0.434394
 C    1.980103   -0.032449    2.621225
 O    3.242729    0.517578    2.308118
 N    1.427235    0.484329    0.291176
 C    0.925391    0.559072    1.666473
 C    1.683769    0.295727    4.073152
 S    1.339718    1.815381   -0.706132
 O    1.420180    1.299864   -2.067582
 O    0.187856    2.630153   -0.309701
 C    2.860594    2.678153   -0.309765
 C    3.020798    3.998546   -1.065614
 N    5.120127   -1.974651   -0.565141
 C   -7.743265    0.430876   -0.623198
 C    2.150526    5.143308   -0.549200
 H   -1.153206    1.192390    0.383547
 H   -3.024902   -0.648699    1.707794
 H   -3.335238    1.127805   -0.767270
 H   -3.717094    1.610877    0.897117
 H   -5.410772   -0.293087    0.987551
 H   -5.061171   -0.612111   -0.728054
 H   -1.644031   -2.421381    1.316563
 H   -1.279998   -4.490387    0.114789
 H   -1.809437   -3.676763   -1.366960
 H    0.905923   -3.763325    1.209575
 H    3.172077   -2.848752    0.871688
 H    2.006911   -1.402454   -2.999200
 H   -0.266300   -2.296149   -2.646894
 H    3.363375    0.140128   -2.141169
 H    1.985494   -1.123165    2.484957
 H    3.431122    0.274457    1.390108
 H    1.199685   -0.357941   -0.231251
 H    0.795133    1.619322    1.911316
 H    1.646449    1.381440    4.216649
 H    0.732434   -0.144332    4.379129
 H    2.479968   -0.102245    4.707459
 H    3.643613    1.962891   -0.583660
 H    2.873377    2.806533    0.777668
 H    2.838237    3.822517   -2.131764
 H    4.078585    4.270083   -0.977556
 H    6.012086   -1.539304   -0.761236
 H    5.142456   -2.984332   -0.584266
 H   -8.008481   -0.058287    0.318728
 H   -8.562575    1.090162   -0.918892
 H   -7.601564   -0.324714   -1.401384
 H    1.087031    4.929100   -0.676160
 H    2.382511    6.066728   -1.088365
 H    2.334459    5.321610    0.516331
