65 
1wqv_ligand_xtb.xyz
 C   -0.353426   -0.297019    1.730040
 O   -0.472175   -1.376831    2.292684
 N   -1.315827    0.268761    0.994857
 C   -2.598082   -0.370265    0.734468
 C   -3.617100    0.681501    0.310876
 C   -4.997430    0.069971    0.132643
 C   -2.373370   -1.432800   -0.364690
 O   -2.680898   -1.265026   -1.524309
 N   -1.795761   -2.552824    0.116631
 C   -1.148776   -3.506047   -0.772117
 C    1.217527   -3.288084    0.032454
 C    2.476676   -2.724206   -0.047199
 C    2.814942   -1.908061   -1.127303
 C    1.887237   -1.719177   -2.150445
 C    0.631032   -2.290006   -2.067963
 C    0.277453   -3.060869   -0.967092
 C    4.084185   -1.135569   -1.113456
 N    4.200032    0.073506   -1.496044
 S   -6.231314    1.383577   -0.169721
 C    1.969742   -0.055783    2.761611
 O    3.229514    0.540082    2.563019
 N    1.542699    0.506262    0.423997
 C    0.949516    0.508790    1.749620
 C    1.529463    0.213738    4.193400
 S    1.266059    1.800205   -0.592745
 O    1.357991    1.301387   -1.931273
 O    0.031505    2.435981   -0.198012
 C    2.685221    2.858577   -0.238316
 C    2.733265    3.992674   -1.246625
 N    5.150793   -1.746010   -0.515352
 C   -7.624036    0.325007   -0.652059
 C    1.649973    5.033157   -0.990029
 H   -1.109080    1.131308    0.493951
 H   -2.913247   -0.875307    1.656349
 H   -3.296701    1.123405   -0.634304
 H   -3.657305    1.468842    1.066264
 H   -5.305493   -0.473376    1.028973
 H   -5.009079   -0.599846   -0.726590
 H   -1.431675   -2.514527    1.065450
 H   -1.203133   -4.497347   -0.316434
 H   -1.694176   -3.498451   -1.717423
 H    0.952103   -3.888134    0.890523
 H    3.186904   -2.876835    0.752297
 H    2.142719   -1.101515   -2.997694
 H   -0.092514   -2.110031   -2.847832
 H    3.346204    0.469650   -1.877261
 H    2.035027   -1.142735    2.598060
 H    3.470538    0.432224    1.634520
 H    1.518543   -0.383573   -0.051982
 H    0.730695    1.554270    1.986394
 H    1.429921    1.283330    4.357115
 H    0.581034   -0.277618    4.384142
 H    2.279704   -0.173101    4.876519
 H    3.544298    2.199132   -0.330630
 H    2.572983    3.206244    0.783844
 H    2.604405    3.560319   -2.240715
 H    3.717827    4.464951   -1.208247
 H    6.024094   -1.250865   -0.598889
 H    5.201491   -2.750031   -0.543435
 H   -7.865458   -0.352635    0.162388
 H   -8.464972    0.980008   -0.852327
 H   -7.361651   -0.230432   -1.548256
 H    0.670401    4.564159   -0.988149
 H    1.669797    5.797254   -1.762750
 H    1.804768    5.514936   -0.026779
