78 
1wss_ligand_xtb.xyz
 C   -2.460636   -1.124421   -1.170425
 O   -2.401523   -1.465926   -2.338365
 N   -2.774747    0.097708   -0.731643
 C   -3.107449    1.210239   -1.587480
 C   -4.394217    1.909016   -1.120196
 C   -4.440620    2.121966    0.402416
 C   -1.990889    2.270573   -1.698910
 O   -2.242608    3.410421   -2.056197
 N   -0.763674    1.843894   -1.406531
 C    0.411447    2.678909   -1.562977
 C    1.610095    0.702627   -2.521643
 C    2.632791   -0.222273   -2.495492
 C    3.703404   -0.060100   -1.620910
 C    3.765379    1.088652   -0.841340
 C    2.728273    2.001288   -0.853643
 C    1.621548    1.797349   -1.663514
 C    4.745813   -1.111147   -1.479762
 N    4.292774   -2.380886   -1.650990
 C   -3.096972    2.482094    0.987348
 N   -2.428602    1.551780    1.547534
 N   -2.727135    3.785738    0.924345
 C   -3.435113   -3.044237    0.146118
 C   -3.181561   -4.108706    1.223271
 N   -1.040812   -2.948833   -0.402099
 C   -2.203064   -2.143248   -0.048907
 C   -4.670528   -2.198096    0.445542
 S    0.375102   -2.081669   -0.266543
 O    0.136944   -0.684511   -0.500603
 O    1.388129   -2.730276   -1.046501
 C    0.786373   -2.301724    1.498300
 C   -3.141142   -3.575329    2.651702
 C    1.734460   -1.208902    1.840317
 C    1.255477    0.081518    2.018005
 C    2.134986    1.128921    2.272560
 C    3.503457    0.881593    2.368451
 C    3.981210   -0.400356    2.174413
 C    3.105128   -1.436761    1.897862
 N    5.982619   -0.920545   -1.232423
 C    1.595314    2.498531    2.403770
 O    2.506987    3.395456    2.799629
 O    0.452198    2.819841    2.174385
 H   -2.652316    0.350300    0.258525
 H   -3.248278    0.812216   -2.600999
 H   -5.267822    1.328708   -1.419242
 H   -4.427812    2.869763   -1.637430
 H   -5.158132    2.911147    0.631670
 H   -4.772207    1.203918    0.888186
 H   -0.594098    0.895049   -1.095891
 H    0.505233    3.354764   -0.703623
 H    0.272529    3.295383   -2.459630
 H    0.771431    0.556672   -3.185802
 H    2.598523   -1.081757   -3.146438
 H    4.611168    1.245349   -0.186737
 H    2.771211    2.869641   -0.210991
 H    4.950941   -3.112416   -1.442222
 H    3.309542   -2.574549   -1.533353
 H   -1.528338    1.859476    1.908628
 H   -1.767092    3.987498    1.163847
 H   -3.126228    4.365104    0.203380
 H   -3.593939   -3.567337   -0.803378
 H   -3.973052   -4.858085    1.155416
 H   -2.235082   -4.601085    0.993050
 H   -1.141801   -3.302991   -1.347691
 H   -1.967535   -1.613572    0.875718
 H   -5.510779   -2.843810    0.689947
 H   -4.939603   -1.601526   -0.421857
 H   -4.488379   -1.526585    1.280496
 H    1.216936   -3.293519    1.584570
 H   -0.148320   -2.234391    2.044601
 H   -4.111602   -3.190784    2.952543
 H   -2.409257   -2.778942    2.759834
 H   -2.870475   -4.376980    3.335140
 H    0.198803    0.288907    1.951022
 H    4.178562    1.695967    2.578495
 H    5.041396   -0.595961    2.221301
 H    3.487508   -2.432464    1.730216
 H    6.250113    0.058098   -1.201626
 H    2.104860    4.275607    2.869625
