78 
1wtg_ligand_xtb.xyz
 C   -1.705577    0.052755   -2.062231
 O   -2.044725    0.943278   -2.829457
 N   -2.552171   -0.784294   -1.455876
 C   -3.999765   -0.740310   -1.601128
 C   -4.615107   -2.082682   -1.207860
 C   -4.164131   -2.579727    0.177179
 C   -4.550245    0.426983   -0.750695
 O   -5.216215    0.275915    0.257091
 N   -4.225399    1.625896   -1.259144
 C   -4.281792    2.836538   -0.455465
 C   -2.771238    2.438930    1.512886
 C   -1.514141    2.398914    2.084454
 C   -0.411191    2.896342    1.393657
 C   -0.600962    3.469206    0.135622
 C   -1.859495    3.497963   -0.435808
 C   -2.953538    2.973870    0.243241
 C    0.956991    2.715831    1.945427
 N    1.857659    3.702462    1.639580
 C   -5.339481   -3.186501    0.936523
 O   -5.463197   -4.370212    1.162369
 N   -6.237100   -2.256344    1.314373
 C    0.732854    0.680567   -2.462376
 N   -0.107711    0.121387   -0.233882
 C   -0.246425   -0.171357   -1.643057
 S   -0.166280   -1.083180    0.894582
 O   -0.806147   -2.225439    0.288516
 O   -0.765558   -0.535070    2.075789
 C    1.571190   -1.462739    1.198139
 C    1.629672   -2.581567    2.213453
 N    1.360857    1.682569    2.566794
 C    2.838181   -0.681739   -2.492524
 C    2.125129    0.397063   -1.983331
 C    2.689630    1.141858   -0.955990
 C    3.931037    0.814247   -0.445701
 C    4.643163   -0.272189   -0.947266
 C    4.079665   -1.012181   -1.984651
 C    7.531195   -2.303512    0.339935
 C    6.293608   -1.965268   -0.174852
 C    5.958375   -0.631782   -0.397699
 C    6.894186    0.353361   -0.091874
 C    8.133223    0.012977    0.417941
 C    8.455706   -1.315986    0.636195
 H   -2.173440   -1.467914   -0.803900
 H   -4.224484   -0.515050   -2.652534
 H   -4.359972   -2.825698   -1.964169
 H   -5.699588   -1.956837   -1.220728
 H   -3.782406   -1.751701    0.775826
 H   -3.378596   -3.329313    0.089829
 H   -3.580702    1.641848   -2.048105
 H   -5.095068    2.723716    0.263663
 H   -4.480851    3.683499   -1.115210
 H   -3.616177    2.029315    2.044653
 H   -1.380285    1.964367    3.062871
 H    0.246235    3.860331   -0.409677
 H   -1.991452    3.912995   -1.424466
 H    2.741211    3.619415    2.117572
 H    1.506206    4.638868    1.526802
 H   -7.052922   -2.533124    1.833042
 H   -6.068094   -1.278945    1.118782
 H    0.613547    0.427776   -3.516228
 H    0.474741    1.731184   -2.327495
 H   -0.425824    1.026804    0.071422
 H   -0.005373   -1.233336   -1.752712
 H    2.023573   -0.542566    1.556591
 H    1.991206   -1.741158    0.236730
 H    1.097050   -3.450744    1.834312
 H    1.151399   -2.261028    3.135659
 H    2.659659   -2.858281    2.426934
 H    0.647621    0.969998    2.689888
 H    2.416360   -1.266563   -3.297906
 H    2.151436    1.980369   -0.542317
 H    4.340582    1.390780    0.369950
 H    4.627889   -1.842107   -2.406111
 H    7.775949   -3.341637    0.511683
 H    5.571032   -2.739231   -0.390243
 H    6.653908    1.390145   -0.277148
 H    8.852119    0.787095    0.643939
 H    9.423502   -1.581102    1.035229
