31 
1wug_ligand_dft.xyz
 N   -3.322216    9.574693  -11.360490
 C   -4.014793   10.133741  -10.127075
 C   -5.284568   10.874802  -10.507411
 C   -6.328468    9.994677  -11.199732
 N   -7.568799   10.726968  -11.422470
 C   -8.371455   10.889234  -10.251679
 C   -8.317234   12.109214   -9.578654
 C   -9.211911    9.903446   -9.703678
 N   -9.335786    8.569263  -10.305885
 O   -9.002977    8.422198  -11.480122
 O   -9.759811    7.669498   -9.605521
 C   -9.060044   12.342121   -8.427789
 C   -9.962813   10.135107   -8.556029
 C   -9.903749   11.361692   -7.899820
 C  -10.748613   11.630035   -6.682306
 H   -2.434468    9.118611  -11.127322
 H   -3.911488    8.881709  -11.833337
 H   -3.123382   10.318585  -12.038005
 H   -3.284954   10.783018   -9.640605
 H   -4.213827    9.273864   -9.483176
 H   -5.058611   11.749521  -11.129139
 H   -5.703311   11.261555   -9.571808
 H   -6.472099    9.068155  -10.614669
 H   -5.976826    9.692798  -12.195891
 H   -8.109733   10.207745  -12.105996
 H   -7.695265   12.890872  -10.003461
 H   -8.996456   13.311403   -7.940956
 H  -10.595568    9.337993   -8.182315
 H  -10.231709   12.287167   -5.977272
 H  -11.685263   12.122500   -6.966725
 H  -11.006105   10.703915   -6.161965
