28 
1wum_ligand_dft.xyz
 N  -14.151425   -2.854524    7.176978
 C  -14.495931   -4.150881    6.479407
 C  -13.839614   -4.263455    5.104646
 C  -14.103316   -3.110821    4.136917
 N  -15.525466   -2.982998    3.819396
 C  -15.828946   -1.798479    3.094603
 C  -15.902817   -1.869623    1.705692
 C  -16.014973   -0.527027    3.682329
 N  -15.833750   -0.319925    5.104875
 O  -15.967857   -1.301240    5.871895
 O  -15.542705    0.779878    5.514140
 C  -16.185499   -0.745224    0.938412
 C  -16.301986    0.607254    2.920361
 C  -16.398331    0.492923    1.544308
 H  -14.401957   -2.890750    8.168920
 H  -13.150546   -2.647322    7.118620
 H  -14.689860   -2.060956    6.757455
 H  -15.586427   -4.180802    6.433627
 H  -14.161739   -4.961513    7.129314
 H  -14.205671   -5.196333    4.663936
 H  -12.756192   -4.377572    5.229796
 H  -13.553609   -3.304448    3.211508
 H  -13.679249   -2.173602    4.547158
 H  -16.061761   -2.957777    4.677449
 H  -15.758617   -2.840462    1.243947
 H  -16.254790   -0.838297   -0.140415
 H  -16.445215    1.559571    3.417156
 H  -16.636149    1.365305    0.946370
