45 
1wvc_ligand_xtb.xyz
 N   -2.370102    1.324613   -0.149692
 C   -1.386243    1.708440   -1.063996
 N   -0.415380    2.516248   -0.658010
 C   -0.397342    3.025995    0.562724
 C   -1.511571    2.847984    1.433396
 C   -2.443574    1.945301    1.048572
 O   -1.408381    1.253055   -2.216755
 N    0.682741    3.729333    0.912477
 C   -3.215397    0.155406   -0.421657
 C   -2.414349   -0.981889   -1.117348
 O   -2.756032   -1.145691   -2.458896
 C   -2.784533   -2.227472   -0.297512
 C   -3.131209   -1.619227    1.067243
 O   -3.733974   -0.367546    0.764841
 O   -3.898698   -2.890065   -0.819749
 C   -1.923842   -1.463639    2.010579
 O   -1.067079   -0.417105    1.578279
 P    0.458984   -0.642992    1.219902
 O    0.860655   -2.055351    1.185943
 O    1.167707    0.328425    2.208064
 O    0.497317    0.042282   -0.219993
 P    1.693105    0.783985   -1.014638
 O    2.359368    1.854766   -0.287904
 O    1.161482    0.984901   -2.444576
 O    2.673492   -0.468785   -1.257017
 P    3.514253   -1.139805   -0.061978
 O    4.972709   -1.206889   -0.639109
 O    3.100373   -2.635956   -0.056583
 O    3.397663   -0.397667    1.203489
 H   -1.566022    3.344934    2.385765
 H   -3.271857    1.646457    1.673173
 H    0.813965    3.957750    1.883887
 H    1.505585    3.520101    0.356357
 H   -4.053507    0.474979   -1.060296
 H   -1.344539   -0.801875   -0.998823
 H   -2.374580   -0.386399   -2.929656
 H   -1.931155   -2.915679   -0.224780
 H   -3.895522   -2.222512    1.565813
 H   -3.911920   -2.714865   -1.772572
 H   -1.367279   -2.401884    2.066452
 H   -2.280226   -1.184117    3.005822
 H    2.138638    0.251100    2.053392
 H    0.182606    1.181519   -2.517999
 H    5.465488   -0.410402   -0.442508
 H    2.249917   -2.720658    0.420968
