48 
1wzy_ligand_xtb.xyz
 C   -3.806267   -4.107360    0.281846
 C   -4.344648   -2.838467    0.286691
 C   -3.465456   -1.771065    0.160319
 C   -2.071606   -1.965300    0.026729
 C   -1.552318   -3.258711    0.030820
 C   -2.428876   -4.312731    0.156716
 N   -3.699985   -0.426406    0.143412
 C   -2.514873    0.249799   -0.019510
 C   -1.480078   -0.665926   -0.076710
 C   -0.053304   -0.396631   -0.143528
 C   -2.510435    1.699854   -0.152290
 C   -3.376080    2.483753    0.611051
 C   -3.383105    3.859448    0.474086
 C   -2.530860    4.474230   -0.427505
 C   -1.672103    3.704110   -1.196463
 C   -1.663261    2.329584   -1.065597
 C    0.503996    0.732144    0.474680
 C    1.868313    0.878888    0.329868
 C    2.556106   -0.143667   -0.396721
 N    1.965017   -1.213998   -0.916664
 N    0.685743   -1.312672   -0.787337
 C    2.913909    1.779201    0.708827
 N    4.072204    1.344871    0.263666
 N    3.861863    0.187257   -0.410729
 N    2.764458    2.981861    1.350030
 C    4.952117   -0.531517   -1.008602
 C    5.117359   -1.920978   -0.389628
 C    5.476555   -1.843298    1.088639
 H   -4.460127   -4.961986    0.375867
 H   -5.408556   -2.677257    0.383735
 H   -0.490578   -3.409894   -0.079721
 H   -2.051924   -5.324943    0.157027
 H   -4.028906    2.013130    1.333272
 H   -4.054921    4.454320    1.075825
 H   -2.537103    5.548817   -0.532947
 H   -1.010254    4.178504   -1.905850
 H   -1.006961    1.728703   -1.677059
 H   -0.105578    1.426072    1.034339
 H    1.989651    3.038863    1.991735
 H    3.626713    3.376099    1.692277
 H    5.844822    0.076526   -0.848189
 H    4.765982   -0.628869   -2.083520
 H    5.901448   -2.448723   -0.934652
 H    4.182057   -2.467681   -0.518950
 H    6.409201   -1.300506    1.228591
 H    4.695956   -1.328505    1.644216
 H    5.590280   -2.840751    1.505732
 H   -4.606798    0.009546    0.139305
