35 
1x6u_ligand_dft.xyz
 C   -1.234851    2.316233   -0.085668
 O   -0.394395    2.526034   -0.935151
 O   -1.896152    3.297695    0.516414
 C   -1.690143    0.917030    0.369300
 C   -2.521766    0.257899   -0.733630
 C   -2.753565   -1.230148   -0.427222
 O   -3.372854   -1.869604   -1.512629
 C   -1.415599   -1.919146   -0.104964
 O   -0.688382   -2.061803   -1.313760
 C   -0.690557   -1.139258    0.989765
 O   -0.486414    0.217472    0.573428
 C    0.657937   -1.683075    1.493476
 O    1.140087   -0.873462    2.529528
 C    1.703459   -1.977767    0.410720
 P    2.524156    0.408793   -0.430776
 O    4.001745    0.070587   -0.949657
 O    2.489752    0.964399    0.942197
 O    1.765851   -0.988697   -0.631751
 O    1.919355    1.277957   -1.598478
 O   -2.472227    0.968347    1.517654
 H   -1.556960    4.132839    0.152007
 H   -1.971802    0.345823   -1.676320
 H   -3.479509    0.772434   -0.844522
 H   -3.426841   -1.323607    0.430147
 H   -2.653205   -2.055820   -2.136707
 H   -1.625199   -2.932668    0.257896
 H   -0.019486   -1.360541   -1.368625
 H   -1.345636   -1.129552    1.868987
 H    0.437099   -2.656765    1.950748
 H    1.522774   -0.070480    2.124354
 H    2.682433   -2.088953    0.886496
 H    1.451940   -2.900058   -0.113898
 H    4.649145    0.632732   -0.503480
 H    1.039688    1.659010   -1.367660
 H   -1.947205    1.361693    2.229184
