44 
1x70_ligand_dft.xyz
 C    1.241358    2.685633    0.698246
 C    2.289484    1.965410    0.156106
 C    2.152664    1.082085   -0.907785
 C    0.871325    0.932409   -1.448487
 C   -0.194934    1.657573   -0.944081
 C   -0.012702    2.529496    0.128899
 F   -1.399220    1.548730   -1.493492
 F    3.526230    2.142977    0.685842
 C    3.354962    0.403528   -1.520496
 C    3.956895   -0.799336   -0.776302
 C    2.952762   -1.924960   -0.478837
 C    1.997371   -1.636091    0.678108
 N    0.761185   -2.157389    0.676221
 N    4.621915   -0.369702    0.512215
 O    2.419951   -1.001463    1.661613
 C   -0.107282   -1.958103    1.842458
 C   -1.157019   -0.894680    1.537924
 N   -1.748386   -1.195819    0.238326
 C   -1.183119   -1.980213   -0.719994
 C    0.058999   -2.770671   -0.450268
 C   -2.857127   -0.693269   -0.380403
 N   -2.960110   -1.144180   -1.599227
 N   -1.885119   -1.964207   -1.820629
 C   -3.797935    0.249917    0.305633
 F   -4.703177    0.728433   -0.524404
 F   -4.415972   -0.368297    1.326562
 F   -3.102592    1.275367    0.840252
 F   -1.043518    3.217558    0.592167
 H    1.394064    3.373792    1.520869
 H    0.688663    0.284122   -2.300561
 H    3.081934    0.034811   -2.514159
 H    4.150905    1.139254   -1.689273
 H    4.747844   -1.205150   -1.411607
 H    2.442475   -2.139044   -1.417569
 H    3.491132   -2.842358   -0.208135
 H    4.941244    0.600662    0.475860
 H    3.864103   -0.456761    1.257488
 H    5.406456   -0.974577    0.762045
 H   -0.584412   -2.917693    2.066166
 H    0.502375   -1.656802    2.691882
 H   -1.937627   -0.892962    2.300719
 H   -0.696031    0.096355    1.502664
 H   -0.192206   -3.805844   -0.190278
 H    0.663109   -2.802310   -1.354003
