31 
1x7e_ligand_xtb.xyz
 C    3.821674    0.124118   -0.304737
 C    2.616355    0.782767   -0.439457
 C    1.464373    0.033475   -0.228553
 C    1.506807   -1.334683    0.100086
 C    2.735913   -1.981212    0.226110
 C    3.883357   -1.239813    0.020265
 O    0.184356    0.461725   -0.302577
 C   -0.608269   -0.611384   -0.020396
 C    0.145922   -1.726154    0.228348
 O    5.126673   -1.787498    0.119160
 C    2.524624    2.250014   -0.771637
 C    2.059201    2.975610    0.386209
 N    1.690051    3.533559    1.312450
 C   -2.043207   -0.414160   -0.022610
 C   -2.575877    0.867117   -0.192640
 C   -3.937158    1.072246   -0.194646
 C   -4.805630   -0.003798   -0.025236
 C   -4.284912   -1.283120    0.144835
 C   -2.920439   -1.485752    0.146004
 O   -6.141170    0.238101   -0.032778
 H    4.754806    0.645485   -0.448273
 H    2.785526   -3.030502    0.479869
 H   -0.211396   -2.703108    0.480020
 H    5.054562   -2.719742    0.355794
 H    1.806463    2.409212   -1.582101
 H    3.499873    2.642348   -1.068712
 H   -1.904923    1.702861   -0.315877
 H   -4.353792    2.058363   -0.323044
 H   -4.956636   -2.121658    0.276114
 H   -2.532937   -2.483784    0.275173
 H   -6.627185   -0.584645    0.101772
