154 
1x7q_ligand_xtb.xyz
 N   10.417493    1.812111    2.461622
 C    9.523471    0.633912    2.337933
 C    9.474200    0.429549    0.798416
 O    9.844845    1.391988    0.130356
 C    8.122151    0.991833    2.858862
 C    7.167497   -0.203330    2.938677
 C    5.787479    0.196491    3.474278
 C    4.901282    0.922714    2.466133
 N    4.445096    0.027276    1.387598
 N    9.059754   -0.726114    0.328186
 C    8.714027   -0.959923   -1.058864
 C    7.169554   -0.976611   -1.128824
 O    6.533873   -0.935964   -0.089569
 C    9.274845   -2.336131   -1.480018
 O    8.685642   -3.263748   -0.590909
 C   10.798861   -2.363578   -1.424929
 N    6.670381   -1.085565   -2.358375
 C    5.258462   -1.216703   -2.713547
 C    4.520749    0.071976   -2.286998
 O    5.038713    0.861182   -1.511536
 C    4.702182   -2.572468   -2.206098
 C    4.190584   -2.628407   -0.791216
 C    4.958461   -3.208448    0.212818
 C    2.908076   -2.188832   -0.485646
 C    4.468758   -3.312927    1.503294
 C    2.410236   -2.301591    0.801275
 C    3.194435   -2.851846    1.805260
 N    3.349333    0.330783   -2.879640
 C    2.672148    1.594110   -2.598130
 C    2.524812    1.769750   -1.093005
 O    2.570016    0.804128   -0.329291
 C    1.311929    1.493263   -3.313396
 C    1.165751    0.003039   -3.616903
 C    2.604237   -0.444444   -3.852563
 N    2.338355    3.005258   -0.637796
 C    2.258981    3.245088    0.801471
 C    1.422830    2.142939    1.474595
 O    1.854804    1.485107    2.401236
 C    1.668037    4.657965    0.938372
 C    1.175988    5.016300   -0.466794
 C    2.112546    4.229750   -1.381821
 N    0.194202    2.035859    0.958323
 C   -0.705649    0.935830    1.189847
 C   -1.627948    0.881322   -0.036328
 O   -1.395713    1.577716   -1.015020
 C   -1.466211    1.070704    2.527923
 O   -2.101217   -0.175389    2.749599
 C   -2.462304    2.225540    2.519019
 N   -2.624397    0.002886    0.062031
 C   -3.695578   -0.098032   -0.905968
 C   -4.985538    0.343229   -0.191339
 O   -5.006220    0.446195    1.025146
 C   -3.724609   -1.512399   -1.508554
 C   -3.862112   -2.600929   -0.443840
 C   -5.183294   -2.475483    0.272134
 O   -5.110617   -2.735133    1.550296
 O   -6.207240   -2.156024   -0.301291
 N   -6.053130    0.688578   -0.936578
 C   -7.100378    1.513518   -0.355353
 C   -8.361787    0.788234    0.109995
 O   -9.406929    1.448478    0.229884
 C   -7.434862    2.485816   -1.489591
 C   -7.341752    1.577102   -2.712758
 C   -6.151269    0.668638   -2.388189
 N   -8.274346   -0.497558    0.397668
 C   -9.369749   -1.276190    0.930166
 C   -8.881695   -2.183957    2.052789
 O   -9.900979   -2.710877    2.707749
 C  -10.032836   -2.122869   -0.173948
 C  -10.920993   -1.265944   -1.077177
 C  -12.270945   -0.928978   -0.421401
 C  -12.713666    0.509967   -0.658525
 N  -12.005356    1.432823    0.267910
 O   -7.728329   -2.399387    2.316244
 H   10.400801    2.133093    1.403196
 H   10.054223    2.544532    3.075576
 H   11.377165    1.586404    2.733418
 H    9.926230   -0.235929    2.858728
 H    7.697470    1.759460    2.208933
 H    8.225197    1.410497    3.863247
 H    7.594766   -0.947914    3.611627
 H    7.042429   -0.656313    1.957717
 H    5.905719    0.833444    4.351391
 H    5.266903   -0.704183    3.801095
 H    5.428254    1.761696    2.010832
 H    4.008528    1.297693    2.973884
 H    5.203899   -0.241403    0.726266
 H    3.681792    0.463165    0.805178
 H    4.041806   -0.839929    1.771092
 H    8.771818   -1.482354    0.937003
 H    9.130161   -0.155626   -1.668906
 H    8.948745   -2.546621   -2.510713
 H    9.092805   -4.128663   -0.718649
 H   11.149774   -2.202496   -0.408498
 H   11.166230   -3.328021   -1.767432
 H   11.214717   -1.594622   -2.069045
 H    7.316411   -1.033268   -3.130141
 H    5.233250   -1.245351   -3.807578
 H    3.900024   -2.890827   -2.873385
 H    5.513501   -3.295960   -2.315938
 H    5.941066   -3.592315   -0.016374
 H    2.281786   -1.774829   -1.258314
 H    5.069853   -3.778832    2.269107
 H    1.407206   -1.971876    1.021033
 H    2.798822   -2.959373    2.803985
 H    3.284473    2.419127   -2.979445
 H    1.331971    2.068981   -4.238222
 H    0.489168    1.846859   -2.693345
 H    0.751193   -0.511158   -2.749153
 H    0.526391   -0.185488   -4.475259
 H    2.731269   -1.514063   -3.709028
 H    2.929201   -0.178369   -4.865959
 H    3.264875    3.190775    1.234723
 H    0.868030    4.688568    1.674986
 H    2.444030    5.353791    1.254413
 H    1.220675    6.085351   -0.657159
 H    0.147389    4.686085   -0.615757
 H    3.061581    4.760446   -1.516085
 H    1.670069    4.032319   -2.355769
 H   -0.039493    2.536925    0.103993
 H   -0.134966   -0.001571    1.243079
 H   -0.706789    1.240391    3.306609
 H   -2.746143   -0.076410    3.459365
 H   -3.314687    1.984123    1.887275
 H   -2.826061    2.413566    3.526774
 H   -1.987302    3.131062    2.152081
 H   -2.805497   -0.383809    0.988606
 H   -3.472848    0.624941   -1.700449
 H   -2.794405   -1.664249   -2.057446
 H   -4.554347   -1.595182   -2.208897
 H   -3.056067   -2.568190    0.287481
 H   -3.842986   -3.579808   -0.928916
 H   -5.981269   -2.638712    1.996522
 H   -6.704369    2.013113    0.537875
 H   -6.686043    3.275240   -1.538553
 H   -8.415455    2.936283   -1.360515
 H   -8.252381    0.985420   -2.811535
 H   -7.190503    2.130809   -3.635556
 H   -5.233180    1.055990   -2.838122
 H   -6.314046   -0.351322   -2.742864
 H   -7.414352   -1.026465    0.209839
 H  -10.102863   -0.593854    1.374209
 H   -9.614552   -3.312741    3.416056
 H  -10.628814   -2.914450    0.279511
 H   -9.238566   -2.587056   -0.759868
 H  -11.097174   -1.806848   -2.005910
 H  -10.382955   -0.353907   -1.338133
 H  -13.037584   -1.592842   -0.817914
 H  -12.227475   -1.113383    0.653750
 H  -13.788363    0.607768   -0.495783
 H  -12.492244    0.810372   -1.683105
 H  -12.300180    1.259142    1.232746
 H  -12.210267    2.409802    0.043455
 H  -10.920707    1.317464    0.228085
