30 
1x7r_ligand_dft.xyz
 C   -3.440224   -1.397598    0.159752
 C   -4.405155   -0.402525    0.007964
 O   -5.695871   -0.801372    0.029963
 C   -4.055258    0.940126   -0.157528
 C   -2.715194    1.308335   -0.173800
 O   -2.401255    2.592361   -0.332315
 C   -1.703551    0.321291   -0.023579
 C   -0.294826    0.676435   -0.043638
 O    0.085312    1.851166   -0.173036
 C    0.639061   -0.447943    0.098217
 C    0.122117   -1.682582    0.274080
 O   -1.184652   -1.996206    0.294461
 C   -2.111567   -1.010968    0.139521
 C    2.105138   -0.253760    0.040825
 C    2.728053    0.803536    0.718795
 C    4.104487    0.955078    0.694348
 C    4.894896    0.049577   -0.015966
 O    6.238935    0.248365   -0.003873
 C    4.292629   -1.000826   -0.705901
 C    2.909364   -1.140303   -0.678377
 H   -3.721988   -2.434408    0.289919
 H   -6.270526   -0.034164   -0.082468
 H   -4.809156    1.712777   -0.274111
 H   -1.411911    2.649777   -0.314449
 H    0.730663   -2.566426    0.426907
 H    2.122897    1.517633    1.264721
 H    4.587205    1.771920    1.220126
 H    6.666189   -0.433606   -0.535675
 H    4.897656   -1.701047   -1.277823
 H    2.449388   -1.944213   -1.247031
