37 
1x8b_ligand_dft.xyz
 O    8.179046   55.592821   21.933869
 C    6.958868   55.195519   22.393896
 C    6.017544   54.814986   21.420941
 C    4.747780   54.394213   21.778974
 C    4.430228   54.359339   23.135293
 C    5.365403   54.738747   24.116569
 C    6.645012   55.162062   23.744402
 C    4.700353   54.580030   25.390874
 C    3.387840   54.106245   25.117971
 N    3.246731   53.982219   23.759698
 C    5.019891   54.766474   26.727139
 C    6.305037   55.205952   27.346864
 O    7.345240   55.531962   26.817100
 C    4.094725   54.507634   27.739767
 C    4.776273   54.752511   29.048355
 O    4.375869   54.640899   30.182013
 N    6.073518   55.165554   28.712345
 C    2.797676   54.041251   27.464056
 C    2.458857   53.841623   26.122720
 C    1.779189   53.749874   28.507084
 C    1.455179   54.686712   29.492010
 C    0.459968   54.413813   30.422237
 C   -0.223115   53.200740   30.385228
 C    0.094259   52.260092   29.410450
 C    1.086793   52.535403   28.475634
 H    8.734737   55.825416   22.687447
 H    6.311965   54.859056   20.377823
 H    4.028162   54.102172   21.020469
 H    7.359451   55.451525   24.509665
 H    2.414148   53.671513   23.288247
 H    6.767652   55.405899   29.404023
 H    1.459018   53.500071   25.871388
 H    1.985193   55.632079   29.528281
 H    0.218105   55.152130   31.180659
 H   -0.997538   52.988774   31.116387
 H   -0.427083   51.307978   29.379053
 H    1.344027   51.793710   27.724066
