21 
1x8d_ligand_xtb.xyz
 C   -0.942834   -1.176500   -0.043219
 C   -1.210675    0.122110    0.706790
 C   -0.316840    1.258652    0.146934
 C    1.091854    0.741428   -0.215919
 C    1.332428   -0.672106    0.338856
 C    2.671336   -1.231996   -0.114358
 O   -1.852708   -1.810669   -0.512419
 O   -2.560086    0.463913    0.570380
 O   -0.900219    1.808371   -1.000309
 O    2.100788    1.568889    0.300945
 O    0.320148   -1.556178   -0.139461
 H   -0.967910   -0.038910    1.769199
 H   -0.219530    2.031955    0.928082
 H    1.145637    0.694575   -1.314853
 H    1.299083   -0.626533    1.435749
 H    2.830679   -2.211294    0.326339
 H    3.460002   -0.555495    0.198626
 H    2.682190   -1.327312   -1.196463
 H   -2.991258   -0.285775    0.118432
 H   -1.858434    1.828289   -0.846287
 H    2.004547    2.446374   -0.086429
