41 
1x8t_ligand_dft.xyz
 C    2.360934    2.020799   -0.035449
 C    2.970124    0.895986   -0.423292
 C    2.195587   -0.302823   -0.899145
 C    0.814370    0.117769   -1.405098
 C    0.122711    0.895973   -0.285230
 C    0.865070    2.209933   -0.055152
 C    3.138807    3.191846    0.456214
 O    2.067131   -1.166150    0.247670
 O    0.108692   -1.028269   -1.823250
 O   -1.216329    1.154409   -0.692155
 O    4.471573    3.013331    0.421220
 O    2.629376    4.216159    0.850681
 P    1.929204   -2.765635    0.083783
 O    2.816049   -3.351615   -0.932537
 O    0.347911   -3.005905   -0.063571
 O    2.127780   -3.254513    1.589748
 C   -2.264282    0.903404    0.217937
 C   -2.087961    1.581484    1.585124
 C   -3.526050    1.493960   -0.417305
 O   -3.286531    2.512000   -1.230180
 O   -4.651990    1.110363   -0.159076
 P   -2.531452   -0.943286    0.363938
 O   -3.881443   -1.101089    1.194364
 O   -2.442634   -1.558177   -0.986758
 O   -1.449721   -1.446137    1.420100
 H    4.048764    0.801696   -0.360662
 H    2.735891   -0.837765   -1.686946
 H    0.958620    0.788489   -2.265319
 H    0.140268    0.277906    0.617111
 H    0.545485    2.680782    0.879058
 H    0.588354    2.908482   -0.854910
 H   -0.856077   -0.859673   -1.815286
 H    4.862686    3.831320    0.766200
 H    0.062786   -2.498674   -0.866492
 H    2.977185   -3.705351    1.684667
 H   -1.944917    2.657036    1.445012
 H   -2.972336    1.411864    2.204456
 H   -1.226766    1.166801    2.113286
 H   -4.150764    2.822693   -1.548834
 H   -4.557484   -0.504331    0.809785
 H   -0.832759   -2.112680    1.041399
