54 
1xap_ligand_dft.xyz
 C   -1.064370    1.587658   -1.162881
 C   -0.734511    0.300057   -0.451137
 C   -1.650650   -0.511401    0.108797
 C   -3.117312   -0.370020    0.095292
 C   -3.845640   -0.688176    1.251653
 C   -5.226541   -0.584047    1.281746
 C   -5.925402   -0.152134    0.151982
 C   -7.417397   -0.062188    0.243471
 O   -8.069692   -0.676405    1.047201
 O   -8.028251    0.764428   -0.635712
 C   -5.215390    0.131172   -1.016861
 C   -3.831252    0.016455   -1.046118
 C    0.702892   -0.079613   -0.371321
 C    1.106403   -1.395449   -0.618307
 C    2.440992   -1.746184   -0.512003
 C    3.433657   -0.821618   -0.164010
 C    3.048237    0.513632    0.049151
 C    1.693083    0.846574   -0.050908
 C    4.041273    1.620188    0.424697
 C    3.796029    2.893892   -0.404172
 C    3.868467    1.960623    1.917807
 C    5.483787    1.162600    0.148607
 C    5.754049   -0.250074    0.640254
 C    4.886012   -1.300638   -0.072941
 C    4.990005   -2.608999    0.731051
 C    5.418749   -1.551881   -1.497301
 H   -0.970531    1.464990   -2.249058
 H   -2.075227    1.935380   -0.939946
 H   -0.365368    2.380389   -0.879797
 H   -1.282436   -1.361503    0.681237
 H   -3.311521   -1.015677    2.139429
 H   -5.786939   -0.833982    2.176468
 H   -7.371528    1.303987   -1.094710
 H   -5.734454    0.392209   -1.936681
 H   -3.300600    0.195354   -1.975460
 H    0.370402   -2.138710   -0.911101
 H    2.720370   -2.775491   -0.716699
 H    1.399106    1.870669    0.157421
 H    3.792701    2.669582   -1.476215
 H    2.848547    3.382530   -0.156153
 H    4.594762    3.619156   -0.209216
 H    2.847745    2.300215    2.123824
 H    4.058881    1.092454    2.556525
 H    4.558294    2.761431    2.210321
 H    6.176473    1.869512    0.621950
 H    5.677138    1.219806   -0.930491
 H    5.568217   -0.305652    1.720700
 H    6.810995   -0.507091    0.497468
 H    4.516294   -2.504621    1.713010
 H    4.524912   -3.456270    0.217826
 H    6.045331   -2.862699    0.885983
 H    4.814644   -2.307660   -2.010538
 H    5.392369   -0.642970   -2.106626
 H    6.453941   -1.912101   -1.460665
