62 
1xbc_ligand_xtb.xyz
 C   -2.504335    3.441956   -0.080007
 C   -3.881366    3.441580   -0.133198
 C   -4.576426    2.253274   -0.334354
 C   -3.922977    1.048359   -0.511422
 C   -2.535426    1.038389   -0.496428
 N   -1.621600   -0.010258   -0.623844
 C   -0.350030    0.519886   -0.448807
 C    0.897751   -0.100657   -0.417166
 N    1.235478   -1.432287   -0.610134
 C    2.614915   -1.546636   -0.522326
 C    3.413174   -2.671097   -0.656152
 C    4.776679   -2.506877   -0.490645
 C    5.329956   -1.263596   -0.189423
 C    4.539149   -0.141797   -0.048494
 C    3.164894   -0.282706   -0.215160
 C    2.072584    0.644893   -0.155136
 C    1.964629    2.018675    0.074582
 C    3.002678    3.035128    0.373566
 N    2.323973    4.207008    0.484727
 C    0.902041    4.108030    0.283624
 C    0.724834    2.642941    0.033625
 C   -0.434805    1.910529   -0.209274
 C   -1.829080    2.238736   -0.252091
 C   -1.889607   -1.379714   -1.040482
 C   -2.303271   -2.244805    0.201912
 C   -1.088402   -2.716824    1.033896
 C   -0.054235   -3.377306    0.138994
 C    0.327526   -2.462496   -1.042608
 O   -0.782620   -1.942732   -1.715064
 O    4.195314    2.893317    0.516754
 N   -0.583428   -1.519933    1.768584
 C    0.238928   -1.798218    2.954594
 O   -3.129060   -1.468250    1.043176
 C   -4.267558   -2.127317    1.572057
 C   -3.002042   -1.439701   -2.099214
 H   -1.955899    4.353591    0.092580
 H   -4.427205    4.363246   -0.008239
 H   -5.655142    2.268902   -0.352400
 H   -4.504906    0.153894   -0.638742
 H    2.997704   -3.638334   -0.897193
 H    5.424858   -3.362770   -0.598791
 H    6.398478   -1.180646   -0.069202
 H    4.953708    0.826907    0.180563
 H    2.790340    5.081559    0.657512
 H    0.573000    4.705352   -0.575353
 H    0.349748    4.446432    1.169119
 H   -2.828978   -3.130067   -0.173887
 H   -1.437392   -3.425789    1.794432
 H   -0.485922   -4.298497   -0.253975
 H    0.848729   -3.637591    0.691692
 H    0.839826   -3.064494   -1.807203
 H   -1.449868   -1.003871    2.019313
 H   -0.045669   -0.903267    1.115453
 H    0.516129   -0.863252    3.436899
 H    1.149897   -2.318279    2.664215
 H   -0.311749   -2.412688    3.664690
 H   -4.919892   -2.492144    0.775957
 H   -3.984906   -2.964537    2.216976
 H   -4.796713   -1.378363    2.156460
 H   -2.837820   -2.327723   -2.703799
 H   -3.987038   -1.493692   -1.651920
 H   -2.944427   -0.570048   -2.746195
