111 
1xd0_ligand_dft.xyz
 C    4.387244    2.282872   -0.785925
 C    3.908519    3.541835   -0.058116
 C    2.481230    3.331881    0.445306
 C    1.582991    2.994520   -0.731027
 C    2.139451    1.743079   -1.414919
 C    1.346361    1.397512   -2.658693
 O    4.514876    1.305370    0.193363
 O    4.751217    3.874090    1.019428
 O    2.021605    4.499932    1.107531
 O    0.270898    2.671123   -0.317569
 O    3.486519    1.930247   -1.820743
 O    1.666879    0.111646   -3.160421
 C   -0.599581    3.745358   -0.073357
 C   -1.236488    3.525864    1.305669
 C   -2.081107    2.268277    1.214188
 C   -3.080598    2.344943    0.048198
 C   -2.383352    2.689751   -1.274720
 C   -3.318377    3.059982   -2.414266
 O   -0.277803    3.316829    2.305001
 O   -2.836186    1.997641    2.373600
 N   -3.699253    0.984475    0.067606
 O   -1.577708    3.840429   -1.075158
 C   -2.241775   -1.826535    1.052225
 C   -1.638229   -1.724299    2.459750
 C   -0.127771   -1.440917    2.355239
 C    0.405227   -1.973016    1.023076
 C   -0.257055   -1.198596   -0.129147
 C   -0.234253   -1.937932   -1.459396
 O   -2.222686   -0.662423    3.189064
 O    0.603378   -2.060135    3.388333
 O    1.798937   -1.817739    0.974562
 O   -1.605083   -0.855401    0.233914
 O   -0.746532   -1.122583   -2.491547
 C    2.571119   -2.956894    0.631732
 C    3.763098   -3.000715    1.588553
 C    4.717528   -1.858407    1.264444
 C    5.106134   -1.939487   -0.201192
 C    3.854434   -1.882500   -1.076002
 C    4.161398   -2.048149   -2.550598
 O    3.367307   -2.982144    2.935150
 O    5.905356   -1.936126    2.019002
 O    5.960497   -0.853099   -0.557545
 O    2.961033   -2.933093   -0.705521
 O    4.912226   -3.222586   -2.733349
 C   -4.945780    0.636628   -0.699852
 C   -5.969160    0.009078    0.271424
 O   -5.806119    0.682506    1.499259
 C   -5.839356   -1.528035    0.410391
 O   -6.785781   -2.079893   -0.481777
 C   -4.438011   -2.048686    0.074733
 O   -3.593282   -1.524066    1.118783
 C   -3.998893   -1.642963   -1.349685
 C   -4.656284   -0.337660   -1.840202
 C   -4.207281   -2.780769   -2.342273
 O   -3.434332   -3.872296   -1.874307
 H    5.335557    2.464977   -1.300854
 H    3.923914    4.390706   -0.749011
 H    2.461672    2.481887    1.142188
 H    1.562883    3.833083   -1.442676
 H    2.078423    0.908199   -0.701767
 H    1.507386    2.170057   -3.422089
 H    0.285253    1.367635   -2.409639
 H    5.103492    0.583747   -0.124952
 H    4.971249    3.030757    1.446719
 H    2.776570    4.819307    1.628009
 H    2.583092    0.126237   -3.464316
 H   -0.062208    4.695605   -0.108499
 H   -1.881446    4.388655    1.530875
 H   -1.388472    1.440210    1.016652
 H   -3.868059    3.069268    0.280295
 H   -1.754312    1.832670   -1.563039
 H   -2.722053    3.400272   -3.263972
 H   -3.924031    2.214550   -2.746898
 H   -3.981254    3.877217   -2.114139
 H    0.493689    3.882089    2.115416
 H   -2.330231    1.373969    2.917081
 H   -3.907484    0.854394    1.074743
 H   -2.944176    0.311375   -0.132919
 H   -2.099101   -2.827997    0.620429
 H   -1.779594   -2.679837    2.983130
 H    0.013910   -0.350235    2.375112
 H    0.162095   -3.044207    0.954095
 H    0.254895   -0.237627   -0.232745
 H    0.795675   -2.258729   -1.657657
 H   -0.861456   -2.837622   -1.394158
 H   -3.181445   -0.796204    3.176997
 H    0.386777   -1.626194    4.223283
 H    0.017108   -0.808546   -3.003513
 H    1.965366   -3.861401    0.745514
 H    4.290273   -3.946804    1.422247
 H    4.202691   -0.902289    1.449308
 H    5.625326   -2.884916   -0.393177
 H    3.358616   -0.911904   -0.939098
 H    4.712499   -1.151547   -2.873081
 H    3.203729   -2.091302   -3.091636
 H    2.576241   -2.420221    3.016043
 H    5.643676   -2.071939    2.940455
 H    6.727125   -0.915043    0.032150
 H    5.211239   -3.259658   -3.648109
 H   -5.353415    1.578098   -1.071739
 H   -6.963967    0.187681   -0.154956
 H   -6.558961    0.507215    2.075746
 H   -6.072362   -1.785835    1.453796
 H   -6.849137   -3.030781   -0.327683
 H   -4.418995   -3.142351    0.152195
 H   -2.921154   -1.487510   -1.342490
 H   -4.011665    0.121695   -2.595298
 H   -5.617786   -0.551809   -2.320658
 H   -3.866353   -2.446273   -3.331529
 H   -5.272580   -3.042647   -2.413727
 H   -3.453967   -4.573423   -2.535463
