17 
1xge_ligand_xtb.xyz
 O    2.303000   -1.657859   -0.206966
 C    1.439459   -0.865165    0.069568
 N    0.411726   -1.127861    0.920409
 N    1.451300    0.432373   -0.444946
 C    0.657563    1.489684   -0.085956
 O    0.748156    2.564032   -0.620966
 C   -0.291669    1.183201    1.057305
 C   -0.747474   -0.277591    1.007778
 C   -1.713990   -0.440926   -0.175753
 O   -2.817928    0.024193   -0.196735
 O   -1.180597   -1.139907   -1.174233
 H    0.313016   -2.100378    1.170518
 H    2.166223    0.609870   -1.141563
 H    0.245670    1.369769    1.990533
 H   -1.146337    1.858030    1.008119
 H   -1.306611   -0.518558    1.918363
 H   -1.797527   -1.209205   -1.920654
