29 
1xgi_ligand_xtb.xyz
 N   -0.809174    1.920999   -0.539204
 C    0.400394    1.658060    0.084836
 C    0.691773    2.174643    1.348560
 C    1.326561    0.837484   -0.548793
 C    1.889367    1.871612    1.971570
 C    2.504630    0.518433    0.109437
 C    2.804967    1.029870    1.364795
 N    3.418571   -0.403114   -0.521713
 S   -1.532209    0.757353   -1.518147
 C   -1.144689   -0.769254   -0.696962
 O   -2.945646    1.008249   -1.381820
 O   -0.952819    0.766798   -2.815018
 C   -1.450507   -1.022861    0.618403
 C   -0.417719   -1.804292   -1.313208
 S   -0.812315   -2.549141    1.109398
 C   -2.102190   -0.185319    1.654539
 C   -0.176587   -2.834038   -0.455426
 O   -2.953650    0.751308    1.248770
 O   -1.843431   -0.345336    2.818414
 O    2.986906   -1.073229   -1.435767
 O    4.545158   -0.467659   -0.085437
 H   -1.461713    2.488755   -0.019575
 H   -0.029408    2.809508    1.840275
 H    1.143415    0.464440   -1.543377
 H    2.098881    2.279275    2.947593
 H    3.732119    0.757298    1.843155
 H   -0.093327   -1.762020   -2.335924
 H    0.350196   -3.743984   -0.662540
 H   -3.141710    0.783080    0.277139
