31 
1xgj_ligand_xtb.xyz
 N   -0.892359    1.617931    1.150329
 S   -1.926509    1.644079   -0.169014
 O   -1.609053    2.747956   -1.008520
 O   -3.259893    1.536183    0.367531
 C   -1.514641    0.131804   -1.010701
 C   -0.854572    0.129366   -2.252756
 C   -0.517581   -1.129653   -2.648987
 S   -0.976817   -2.320280   -1.508281
 C   -1.664887   -1.122422   -0.471963
 C   -2.211506   -1.616573    0.819207
 O   -1.876659   -2.699866    1.226437
 O   -3.056225   -0.844457    1.482786
 C    0.409714    1.184151    0.871108
 C    0.889834    0.014490    1.486802
 C    2.157418   -0.442148    1.181840
 C    2.960432    0.251211    0.277491
 C    2.472031    1.398373   -0.341043
 C    1.198829    1.855657   -0.048563
 O    0.046774   -0.615966    2.343073
 C    4.309064   -0.321689   -0.009661
 O    5.238979    0.534688   -0.463064
 O    4.568411   -1.481371    0.156058
 H   -1.295462    1.135192    1.944122
 H   -0.660672    1.031524   -2.801535
 H   -0.019961   -1.420200   -3.552643
 H   -3.289518    0.021555    1.060673
 H    2.542133   -1.349474    1.624956
 H    3.053492    1.927322   -1.082796
 H    0.792921    2.729723   -0.530892
 H    0.430890   -1.441950    2.663494
 H    4.922421    1.447270   -0.491981
