83 
1xh5_ligand_dft.xyz
 O    7.455278    0.578810   -0.782523
 C    6.579099    1.059445   -0.041458
 C    6.384617    2.535285    0.029335
 C    6.891011    3.319066   -1.005612
 C    6.694244    4.695437   -0.948765
 N    6.058402    5.309200    0.050353
 C    5.596327    4.552021    1.045367
 C    5.727073    3.167292    1.085661
 N    5.771894    0.297769    0.731072
 C    5.583392   -1.145212    0.578653
 C    6.842935   -1.962055    0.889469
 N    7.946302   -1.879204   -0.118412
 C    7.847342   -2.816544   -1.279057
 C    6.665287   -2.496144   -2.180890
 C    5.280921   -2.678884   -1.548045
 C    4.780055   -1.484456   -0.725465
 N    3.379006   -1.745529   -0.394168
 C    2.576456   -0.830112    0.221692
 O    3.016942    0.219492    0.682233
 C    1.119294   -1.167077    0.322152
 C    0.631335   -2.477257    0.282918
 C   -0.730681   -2.715523    0.391289
 C    0.231649   -0.102269    0.488949
 C   -1.129928   -0.342393    0.603123
 C   -1.618523   -1.649359    0.553999
 C   -3.075556   -1.963669    0.645029
 O   -3.513786   -3.045935    0.318847
 C   -4.040069   -0.908177    1.141066
 C   -3.934635   -0.329745    2.415807
 O   -2.861647   -0.669964    3.149878
 C   -4.929066    0.535948    2.881692
 C   -6.032182    0.811406    2.092396
 C   -6.179835    0.258530    0.816091
 C   -5.163647   -0.592662    0.391239
 F   -5.278829   -1.157581   -0.835094
 C   -7.390145    0.601805   -0.021175
 C   -7.230090    1.717202   -1.091245
 C   -6.111115    1.423572   -2.101328
 C   -6.898252    3.021416   -0.352643
 C   -8.588479    1.885275   -1.809316
 C   -9.123571    0.588851   -2.419215
 C   -9.254672   -0.493088   -1.360638
 N   -7.937705   -0.669452   -0.655349
 H    7.420633    2.863709   -1.834261
 H    7.067206    5.336073   -1.743341
 H    5.098913    5.076951    1.856744
 H    5.347489    2.621728    1.943574
 H    4.901251    0.734398    1.024163
 H    4.929123   -1.415902    1.411569
 H    6.584151   -3.016036    1.015007
 H    7.248711   -1.594670    1.834473
 H    7.924340   -0.871438   -0.474713
 H    8.839543   -2.030455    0.354399
 H    7.784281   -3.832090   -0.876184
 H    8.784955   -2.721120   -1.831217
 H    6.748966   -3.173319   -3.036276
 H    6.770567   -1.480648   -2.580127
 H    4.565557   -2.821843   -2.365828
 H    5.247787   -3.598090   -0.947716
 H    4.830903   -0.593062   -1.363826
 H    2.923800   -2.479799   -0.916921
 H    1.306968   -3.324783    0.208515
 H   -1.123314   -3.726275    0.364143
 H    0.625334    0.907140    0.533260
 H   -1.813281    0.492142    0.726686
 H   -2.902724   -0.264045    4.025823
 H   -4.846820    0.977593    3.870330
 H   -6.799499    1.478755    2.474212
 H   -8.188432    0.918350    0.659399
 H   -6.065717    2.238255   -2.829832
 H   -5.136038    1.366391   -1.610018
 H   -6.254807    0.498143   -2.668388
 H   -6.867736    3.848270   -1.068291
 H   -5.923015    2.969384    0.140290
 H   -7.655621    3.265168    0.401198
 H   -8.483613    2.644427   -2.590393
 H   -9.325906    2.275259   -1.094491
 H   -8.478775    0.237185   -3.232835
 H  -10.111571    0.752206   -2.858496
 H   -9.980823   -0.218261   -0.590749
 H   -9.530428   -1.464692   -1.775788
 H   -8.025293   -1.380846    0.076459
 H   -7.230738   -1.032198   -1.303094
