76 
1xh6_ligand_xtb.xyz
 O   -4.099003   -3.725460   -1.095926
 C   -3.960453   -2.558517   -0.735157
 C   -5.079358   -1.638423   -0.585724
 C   -6.337560   -2.002282   -1.120177
 C   -7.388048   -1.083335   -1.029303
 C   -7.229123    0.120523   -0.391756
 C   -5.999336    0.486360    0.192908
 N   -5.826753    1.694318    0.832117
 C   -6.719967    2.810387    0.624832
 C   -5.908673    4.108679    0.573964
 C   -5.081599    4.281493    1.843013
 C   -4.196836    3.054713    2.039353
 C   -5.072371    1.803095    2.060066
 C   -4.940631   -0.408340    0.068774
 O   -6.567185   -3.170821   -1.718459
 C   -2.573840   -2.065558   -0.478173
 C   -2.087621   -0.898354   -1.060749
 C   -0.762768   -0.545998   -0.895504
 C   -1.716239   -2.866770    0.271248
 C   -0.392690   -2.514518    0.439425
 C    0.100833   -1.355672   -0.158833
 C    1.516373   -0.936171   -0.048846
 O    1.853702    0.242903   -0.104384
 N    2.410946   -1.940249    0.109211
 C    3.856009   -1.774331    0.134418
 C    4.508779   -3.152821    0.218599
 C    6.007683   -3.131587   -0.086898
 C    6.884836   -2.762825    1.103365
 N    6.668066   -1.389031    1.559675
 C    5.384672   -1.154731    2.215610
 C    4.231692   -0.776206    1.275039
 N    4.351961    0.554693    0.684286
 C    5.346599    1.075709   -0.008812
 O    6.531750    0.580219   -0.051064
 C    5.117102    2.323778   -0.741490
 C    6.217597    3.118017   -1.084074
 C    5.991247    4.296139   -1.777341
 N    4.787819    4.701904   -2.139361
 C    3.747989    3.948245   -1.831319
 C    3.843805    2.752828   -1.134919
 H   -8.340132   -1.365348   -1.449632
 H   -8.082108    0.774348   -0.308222
 H   -7.462167    2.874094    1.434906
 H   -7.243089    2.688212   -0.323107
 H   -5.242879    4.073284   -0.290602
 H   -6.589713    4.950497    0.445371
 H   -5.747210    4.390123    2.702101
 H   -4.471923    5.183374    1.774247
 H   -3.641338    3.127771    2.975264
 H   -3.481138    2.981404    1.218101
 H   -4.467730    0.909159    2.208155
 H   -5.773178    1.877763    2.906963
 H   -3.980657   -0.161328    0.494454
 H   -5.755169   -3.724706   -1.656242
 H   -2.741055   -0.283310   -1.660574
 H   -0.372102    0.352519   -1.348606
 H   -2.101392   -3.771804    0.715825
 H    0.240402   -3.135947    1.056995
 H    2.063390   -2.885590    0.077409
 H    4.163597   -1.313094   -0.817382
 H    4.325077   -3.604002    1.194980
 H    4.023667   -3.780762   -0.531781
 H    6.308922   -4.128842   -0.408152
 H    6.205668   -2.447887   -0.914280
 H    6.705861   -3.474243    1.920931
 H    7.931881   -2.844569    0.806225
 H    7.420170   -1.143487    2.196899
 H    6.659550   -0.303968    0.532868
 H    5.499752   -0.320912    2.913625
 H    5.072250   -2.030272    2.797284
 H    3.354827   -0.705035    1.929090
 H    3.406031    0.899243    0.459303
 H    7.213514    2.817845   -0.801736
 H    6.810090    4.944140   -2.056887
 H    2.787578    4.319999   -2.160604
 H    2.953757    2.173993   -0.945261
