82 
1xh8_ligand_dft.xyz
 O   -6.700796    0.833691    0.393357
 C   -5.826559    0.883331   -0.493308
 C   -5.586938    2.161243   -1.224557
 C   -4.871124    2.240489   -2.419859
 C   -4.709854    3.490761   -3.009443
 N   -5.197011    4.620018   -2.494513
 C   -5.883813    4.531289   -1.354562
 C   -6.112626    3.333649   -0.685292
 N   -5.072460   -0.177630   -0.846582
 C   -4.903983   -1.405837   -0.068565
 C   -6.193451   -2.209201    0.124525
 N   -7.214538   -1.609986    1.039031
 C   -7.026594   -1.863262    2.499287
 C   -5.766359   -1.209872    3.044621
 C   -4.447283   -1.773210    2.504736
 C   -3.980640   -1.162328    1.178680
 N   -2.644369   -1.675863    0.902105
 C   -1.882952   -1.204173   -0.131742
 O   -2.342968   -0.413079   -0.953921
 C   -0.483764   -1.709352   -0.225667
 C   -0.068341   -2.912753    0.355015
 C    1.239917   -3.344122    0.199294
 C    0.423576   -0.953203   -0.969130
 C    1.740279   -1.373695   -1.100860
 C    2.159039   -2.568949   -0.511524
 C    3.536986   -3.137579   -0.726598
 O    3.600310   -4.344982   -0.977289
 C    4.726925   -2.289194   -0.665743
 C    5.949403   -2.796116   -1.159251
 O    6.094565   -4.028373   -1.652186
 C    7.084334   -1.969215   -1.139034
 C    7.019689   -0.707428   -0.596954
 C    5.819648   -0.183255   -0.064936
 C    4.692403   -0.983881   -0.118118
 N    5.843503    1.098382    0.527586
 C    6.190817    2.194824   -0.379069
 C    6.570141    3.446085    0.406355
 C    5.474029    3.897858    1.389532
 C    6.033195    4.985312    2.313136
 C    4.263474    4.469326    0.635466
 C    5.067556    2.674044    2.231505
 C    4.728351    1.441847    1.394278
 H   -4.461275    1.365725   -2.914113
 H   -4.165453    3.586329   -3.945111
 H   -6.273874    5.464072   -0.955954
 H   -6.682996    3.307337    0.235730
 H   -4.197822    0.033922   -1.324596
 H   -4.332115   -2.058905   -0.732725
 H   -6.669089   -2.315322   -0.852911
 H   -5.952759   -3.207640    0.497831
 H   -8.140566   -1.940562    0.762004
 H   -7.164660   -0.553771    0.851001
 H   -7.012972   -2.947602    2.647584
 H   -7.911208   -1.457383    2.995409
 H   -5.814251   -0.126773    2.881502
 H   -5.795521   -1.360220    4.128033
 H   -4.499206   -2.867437    2.423781
 H   -3.668288   -1.557925    3.244523
 H   -3.923168   -0.074107    1.312354
 H   -2.163402   -2.137057    1.660484
 H   -0.769326   -3.551208    0.886132
 H    1.559578   -4.296206    0.608899
 H    0.083131   -0.039686   -1.444120
 H    2.437846   -0.783579   -1.686094
 H    5.246882   -4.503997   -1.513477
 H    8.015700   -2.370570   -1.523123
 H    7.923722   -0.108418   -0.539475
 H    3.759424   -0.621385    0.295730
 H    5.351417    2.405550   -1.067115
 H    7.033953    1.888786   -1.003071
 H    6.803832    4.256506   -0.295443
 H    7.486388    3.228676    0.969733
 H    5.278314    5.310225    3.038840
 H    6.902964    4.620510    2.871246
 H    6.346691    5.864728    1.738460
 H    3.488302    4.789193    1.341729
 H    4.557703    5.343235    0.042849
 H    3.810006    3.745196   -0.049164
 H    5.898053    2.408494    2.897300
 H    4.209362    2.926304    2.867891
 H    4.538552    0.595961    2.063235
 H    3.798505    1.615909    0.817820
