33 
1xhy_ligand_dft.xyz
 N   -1.056149    0.795356    1.270186
 C   -0.241884   -0.451809    1.539952
 C    1.671710   -2.365647   -1.297076
 C    1.634161   -2.750354    1.182862
 C   -1.378172    0.824933   -0.195365
 C   -0.183935    0.121379   -0.849243
 C    0.989647    1.047971   -1.210214
 C    0.090494   -1.034628    0.151370
 C    1.656338    1.845350   -0.112673
 C    1.469504   -1.707084    0.071272
 C   -2.693086    0.099320   -0.479752
 O   -2.974741   -0.355038   -1.551453
 O    2.910293    2.134932   -0.413143
 O    1.129458    2.240033    0.917603
 O   -3.479569    0.071893    0.607292
 H   -0.424717    1.602574    1.434349
 H   -1.900949    0.858576    1.842969
 H   -0.830702   -1.127037    2.160014
 H    0.645083   -0.137712    2.092463
 H    2.663431   -2.821948   -1.358684
 H    1.582784   -1.659787   -2.129274
 H    0.930716   -3.157844   -1.454551
 H    0.864471   -3.527216    1.104954
 H    1.576118   -2.311627    2.184953
 H    2.608040   -3.240512    1.100503
 H   -1.501102    1.869044   -0.499769
 H   -0.534345   -0.296871   -1.795996
 H    0.638663    1.789190   -1.941263
 H    1.764126    0.477180   -1.726532
 H   -0.656650   -1.809687   -0.066846
 H    2.240973   -0.935379    0.214183
 H    3.277227    2.705144    0.285050
 H   -4.322303   -0.354734    0.372996
