53 
1xka_ligand_xtb.xyz
 C   -4.559582   -1.597436    0.156753
 O   -5.383888   -1.085180    0.865392
 O   -4.512875   -2.916085   -0.060530
 N    2.195744    2.161261    0.299705
 C    1.380324    2.379879    1.325119
 C    0.029197    2.599858    1.194131
 C   -0.545639    2.611860   -0.086303
 C    0.318873    2.371784   -1.163338
 C    1.656512    2.153914   -0.910551
 N   -1.866120    2.907518   -0.229472
 C   -3.446647   -0.876344   -0.570995
 C   -3.834152    0.581188   -0.858247
 C   -2.829590    1.252259   -1.798955
 C   -2.606613    2.730698   -1.455269
 N    4.791168    0.937557    0.778301
 N    6.244267   -0.733422    0.274485
 C    5.047693   -0.289950    0.264465
 C    0.069171   -0.941345    1.890577
 C   -1.156309   -0.611667    2.437025
 C   -2.292392   -0.589500    1.648372
 C   -2.209174   -0.925060    0.302216
 C   -0.976959   -1.251851   -0.240275
 C    0.179656   -1.253534    0.537491
 C    2.849818   -2.603315   -1.748013
 C    1.619381   -2.412814   -1.146457
 C    1.487116   -1.531505   -0.074473
 C    2.620540   -0.869182    0.386920
 C    3.854351   -1.036147   -0.226800
 C    3.962041   -1.912367   -1.302262
 H   -5.205127   -3.371091    0.445151
 H    1.848113    2.373624    2.301374
 H   -0.587592    2.766266    2.064588
 H   -0.038914    2.357176   -2.179371
 H    2.343406    1.958165   -1.724007
 H   -2.404183    2.887499    0.622882
 H   -3.254091   -1.410907   -1.505162
 H   -3.876466    1.109696    0.095078
 H   -4.836500    0.612052   -1.288562
 H   -1.865143    0.747315   -1.720551
 H   -3.169618    1.169005   -2.831912
 H   -2.059025    3.220836   -2.264828
 H   -3.566238    3.240400   -1.343850
 H    3.925714    1.424467    0.557343
 H    5.601111    1.484462    1.015804
 H    6.337458   -1.686462   -0.061753
 H    0.943581   -0.972530    2.522055
 H   -1.228287   -0.370056    3.487381
 H   -3.246903   -0.324921    2.079412
 H   -0.908337   -1.493284   -1.291444
 H    2.940584   -3.290731   -2.576878
 H    0.762474   -2.968112   -1.498772
 H    2.542112   -0.197076    1.225359
 H    4.914865   -2.042600   -1.796174
