22 
1xnz_ligand_xtb.xyz
 O   -1.254727    0.498595   -0.070893
 C   -2.373092   -0.253968    0.095289
 C   -3.691031    0.342246   -0.161936
 O   -3.658343    1.620683   -0.581364
 C   -2.027097   -1.519888    0.498998
 C   -0.624443   -1.540934    0.574581
 C   -0.190399   -0.284932    0.214577
 O   -4.723680   -0.251630   -0.012570
 C    1.125897    0.328406    0.141654
 C    1.229186    1.713249    0.309575
 C    2.448638    2.356038    0.257245
 C    3.604647    1.626024    0.032272
 C    3.529451    0.256735   -0.146794
 C    2.303637   -0.387436   -0.095431
Cl    2.279208   -2.089013   -0.381031
 H   -2.749414    1.944562   -0.659714
 H   -2.707307   -2.318503    0.709698
 H   -0.019003   -2.368523    0.877999
 H    0.328621    2.278514    0.495638
 H    2.498657    3.425029    0.394773
 H    4.562955    2.119677   -0.008738
 H    4.420596   -0.321943   -0.333687
