22 
1xnz_ligand_dft.xyz
 O   -1.257064    0.453012   -0.076034
 C   -2.388803   -0.281628    0.109811
 C   -3.684434    0.354061   -0.186048
 O   -3.615327    1.614831   -0.654201
 C   -2.069925   -1.530474    0.541694
 C   -0.651326   -1.571251    0.625501
 C   -0.195652   -0.340283    0.239238
 O   -4.734976   -0.209501   -0.021509
 C    1.115993    0.308093    0.158868
 C    1.188274    1.695778    0.357543
 C    2.392991    2.378576    0.296056
 C    3.569979    1.683301    0.035974
 C    3.529156    0.310101   -0.165992
 C    2.315533   -0.367860   -0.107558
Cl    2.352621   -2.088618   -0.413973
 H   -2.688234    1.883136   -0.738727
 H   -2.774563   -2.316509    0.767942
 H   -0.045103   -2.402233    0.948753
 H    0.273029    2.235344    0.574613
 H    2.413002    3.451242    0.458227
 H    4.520379    2.204853   -0.011759
 H    4.435160   -0.246547   -0.378084
