46 
1xoe_ligand_dft.xyz
 C   -0.868294    0.213097   -0.881260
 C   -0.161466   -0.000078    0.478330
 N   -0.799458   -1.254272    1.053194
 C   -2.010305   -1.588539    0.249826
 C   -1.659036   -1.072484   -1.146784
 C   -3.183542   -0.865349    0.903427
 O   -4.319383   -1.127498    0.285716
 O   -3.041379   -0.165118    1.879286
 N    1.814571   -1.051149   -0.645648
 C    1.767953   -2.403954   -0.542089
 C    2.603844   -3.193780   -1.511500
 O    1.079894   -2.962716    0.320168
 C    1.369586   -0.148967    0.415986
 C    2.016941    1.229794    0.239733
 C    3.554967    1.245772    0.206233
 C    4.171683    0.535287    1.413207
 C    4.036764    2.696636    0.115777
 C   -1.772722    1.441618   -0.842478
 O   -2.967608    1.416014   -1.007674
 O   -1.058870    2.536339   -0.592644
 C   -1.799320    3.768737   -0.519867
 H   -0.119588    0.379231   -1.660890
 H   -0.395132    0.806701    1.174717
 H   -0.090508   -2.036469    0.972865
 H   -1.072544   -1.095031    2.028121
 H   -2.179677   -2.667499    0.277369
 H   -2.553319   -0.893604   -1.744444
 H   -1.031498   -1.809647   -1.653898
 H   -5.030032   -0.605820    0.696244
 H    2.446622   -0.662387   -1.331290
 H    3.576320   -3.395742   -1.049721
 H    2.119013   -4.150870   -1.705913
 H    2.772470   -2.665862   -2.453561
 H    1.697419   -0.572371    1.374791
 H    1.683149    1.855841    1.076444
 H    1.621497    1.705445   -0.667430
 H    3.902801    0.733961   -0.703768
 H    5.260093    0.643453    1.405618
 H    3.952503   -0.538610    1.423870
 H    3.802903    0.968730    2.350884
 H    5.124877    2.739039    0.012873
 H    3.597131    3.212927   -0.744279
 H    3.764594    3.252565    1.020656
 H   -2.296504    3.960920   -1.471987
 H   -2.542499    3.712359    0.277383
 H   -1.059429    4.537795   -0.307537
