29 
1xor_ligand_xtb.xyz
 O    6.092120   -0.624593   -0.057972
 C    4.902611   -0.393871    0.011264
 N    3.975733   -1.339314   -0.404488
 N    2.661351   -1.234549   -0.404482
 C    2.111531   -0.134641    0.026755
 C    2.925902    0.938297    0.515397
 C    4.270756    0.814435    0.511484
 C    0.647154   -0.068743    0.008981
 C   -0.016897    1.156533   -0.075609
 C   -1.401131    1.215056   -0.088904
 C   -2.131441    0.013525   -0.011555
 C   -1.478355   -1.200185    0.060775
 C   -0.094278   -1.241264    0.068798
 C   -4.331669   -0.872173    0.068179
 O   -3.519274    0.179479   -0.021591
 F   -4.152086   -1.598880    1.202700
 F   -4.175944   -1.766215   -0.943570
 O   -2.135952    2.350804   -0.172280
 C   -1.463723    3.584705   -0.257687
 H    4.335955   -2.219677   -0.762238
 H    2.456733    1.826107    0.911363
 H    4.924986    1.589405    0.880035
 H    0.555702    2.065458   -0.159958
 H   -2.029255   -2.124972    0.113524
 H    0.419133   -2.186274    0.125919
 H   -5.373442   -0.515394    0.051297
 H   -0.845325    3.768799    0.626762
 H   -0.843390    3.644422   -1.157685
 H   -2.246328    4.339451   -0.310913
