67 
1xp0_ligand_dft.xyz
 C  -17.795084   29.127475   58.169740
 C  -18.713522   27.990553   58.560706
 O  -19.678433   28.523849   59.479869
 C  -20.645785   27.742832   59.986942
 C  -20.766525   26.380610   59.683122
 C  -21.775365   25.615486   60.248988
 C  -22.692673   26.225760   61.097514
 C  -22.596669   27.578223   61.389065
 C  -21.561339   28.351128   60.878062
 S  -23.993778   25.279030   61.839115
 O  -25.290674   25.773741   61.422676
 O  -23.620562   23.881766   61.742494
 C  -25.054448   24.621178   68.007342
 N  -23.905166   25.669629   63.480681
 C  -22.687398   25.383121   64.208168
 C  -23.053609   24.986811   65.633278
 N  -23.891033   26.066773   66.264629
 C  -25.119195   26.350692   65.439872
 C  -24.693467   26.750936   64.035241
 C  -24.184870   25.833715   67.728207
 C  -21.467806   29.753859   61.362242
 N  -20.778467   30.687162   60.636852
 C  -20.609187   32.036943   61.005772
 C  -21.293692   32.341193   62.239196
 N  -21.980611   31.314327   62.883223
 N  -22.076684   30.013943   62.477100
 O  -19.948242   32.784886   60.318188
 C  -21.463465   33.451775   63.037538
 N  -22.221828   33.116720   64.124407
 C  -22.520429   31.834522   64.011822
 C  -20.942406   34.831661   62.819961
 C  -23.316210   31.035192   64.987710
 C  -22.470107   30.023558   65.774356
 C  -23.278144   29.357982   66.887026
 H  -18.352836   29.927217   57.674481
 H  -17.292724   29.540254   59.048490
 H  -17.033675   28.760880   57.475898
 H  -18.161425   27.183246   59.055633
 H  -19.238086   27.582219   57.689157
 H  -20.062780   25.906931   59.010770
 H  -21.852792   24.555804   60.031237
 H  -23.318882   28.068969   62.029981
 H  -26.049123   24.707452   67.563523
 H  -24.592868   23.687266   67.677368
 H  -25.188543   24.550680   69.089837
 H  -22.003843   26.249619   64.210155
 H  -22.170619   24.541952   63.740705
 H  -22.167728   24.851522   66.258166
 H  -23.648878   24.072925   65.629143
 H  -23.333089   26.929071   66.236766
 H  -25.674340   27.146169   65.942422
 H  -25.717019   25.438930   65.413063
 H  -25.580743   26.903270   63.418528
 H  -24.127035   27.698936   64.072884
 H  -23.210919   25.744161   68.216813
 H  -24.658633   26.753076   68.082836
 H  -20.271408   30.384520   59.814645
 H  -20.345722   34.876512   61.907044
 H  -21.771467   35.541689   62.739846
 H  -20.324981   35.142230   63.668485
 H  -24.126571   30.509283   64.464881
 H  -23.776962   31.752430   65.673155
 H  -21.607760   30.536979   66.212255
 H  -22.070445   29.274536   65.078281
 H  -23.602376   30.088862   67.634308
 H  -24.195809   28.899485   66.488100
 H  -22.685349   28.602888   67.423336
