66 
1xp1_ligand_dft.xyz
 C    2.212416   -0.860355   -1.384418
 C    2.137103   -1.558127   -0.001636
 O    2.496314   -0.683186    1.040165
 C    3.784935   -0.200082    1.044037
 C    4.322660    0.130833    2.286756
 C    5.592057    0.668855    2.390408
 C    6.347815    0.877077    1.232360
 O    7.588127    1.401573    1.388528
 C    5.815039    0.553186   -0.010079
 C    4.527392    0.014927   -0.115173
 S    3.938082   -0.375405   -1.740240
 C    1.194897    0.246424   -1.545696
 C    0.086987    0.044895   -2.372119
 C   -0.886581    1.023595   -2.532820
 C   -0.762390    2.232739   -1.850987
 O   -1.759521    3.152474   -2.016200
 C    0.330289    2.448327   -1.012070
 C    1.303156    1.464377   -0.872310
 C    0.720084   -2.018422    0.264878
 C    0.135621   -2.984686   -0.556207
 C   -1.209180   -3.313377   -0.437435
 C   -1.977423   -2.675328    0.532029
 C   -1.388640   -1.773484    1.414867
 C   -0.045792   -1.437855    1.271526
 O   -3.341322   -2.877004    0.651142
 C   -4.094058   -2.648803   -0.526568
 C   -3.887870   -1.227656   -1.057108
 N   -3.907067   -0.245802    0.064997
 C   -3.556328    1.176273   -0.331156
 C   -4.461737    2.083296    0.518273
 C   -3.726247    3.310491    1.044176
 C   -5.029729    1.152841    1.608796
 C   -6.330717    1.633257    2.239807
 C   -5.169826   -0.174446    0.872214
 H    2.007731   -1.627782   -2.137438
 H    2.821356   -2.418085   -0.017209
 H    3.721692   -0.049995    3.172017
 H    6.019527    0.923362    3.353415
 H    8.021407    1.483943    0.530484
 H    6.395516    0.721847   -0.914517
 H   -0.010417   -0.889625   -2.919146
 H   -1.717380    0.884526   -3.218398
 H   -1.455089    4.014747   -1.706221
 H    0.435726    3.392302   -0.482367
 H    2.162187    1.658935   -0.238188
 H    0.732081   -3.483828   -1.315661
 H   -1.649695   -4.060571   -1.089762
 H   -1.977915   -1.363434    2.233978
 H    0.412133   -0.716158    1.936339
 H   -5.134294   -2.820080   -0.241753
 H   -3.845923   -3.358233   -1.323851
 H   -4.667261   -0.949538   -1.770947
 H   -2.909929   -1.117540   -1.534280
 H   -3.167806   -0.561826    0.702607
 H   -2.492357    1.310699   -0.129474
 H   -3.712893    1.291102   -1.403744
 H   -5.301742    2.413179   -0.106086
 H   -3.324996    3.899045    0.214807
 H   -4.396851    3.953625    1.620502
 H   -2.891384    3.018164    1.691635
 H   -4.272050    1.029836    2.397444
 H   -6.694068    0.925167    2.990275
 H   -6.183549    2.595558    2.737279
 H   -7.110715    1.760590    1.480830
 H   -5.234531   -1.057231    1.510145
 H   -6.010737   -0.159085    0.170990
