66 
1xp6_ligand_dft.xyz
 C    2.285808   -0.839473   -1.358267
 C    2.276491   -1.535170    0.030191
 O    2.664634   -0.653657    1.055915
 C    3.940336   -0.141552    1.004175
 C    4.519655    0.206764    2.223408
 C    5.780038    0.772500    2.274482
 C    6.484636    0.991535    1.086590
 O    7.718846    1.543199    1.191856
 C    5.910283    0.651029   -0.132501
 C    4.631284    0.084607   -0.184373
 S    3.985477   -0.323184   -1.783809
 C    1.237902    0.244589   -1.471025
 C    0.078326    0.003031   -2.211163
 C   -0.941487    0.943803   -2.289483
 C   -0.813897    2.153047   -1.608649
 O   -1.860278    3.028317   -1.683868
 C    0.336727    2.413592   -0.866267
 C    1.355059    1.468151   -0.809713
 C    0.872570   -2.000651    0.342705
 C    0.322116   -3.076375   -0.353632
 C   -1.022998   -3.403467   -0.220302
 C   -1.822120   -2.644396    0.627948
 C   -1.269128   -1.618787    1.386939
 C    0.073686   -1.294896    1.239139
 O   -3.190539   -2.864528    0.736111
 C   -3.907493   -2.731101   -0.481132
 C   -3.804193   -1.292182   -0.982887
 N   -4.143362   -0.370879    0.141398
 C   -3.542785    1.002668    0.030735
 C   -4.380173    1.829539    0.993453
 C   -4.191563    3.330065    0.811651
 C   -5.806841    1.318506    0.708239
 C   -6.820566    1.596627    1.812548
 C   -5.620837   -0.186011    0.436291
 H    2.061563   -1.614777   -2.097816
 H    2.967632   -2.388241   -0.011177
 H    3.957953    0.016961    3.132219
 H    6.239364    1.040728    3.218947
 H    8.116623    1.629369    0.317194
 H    6.450520    0.828282   -1.059939
 H   -0.028664   -0.936637   -2.747454
 H   -1.818529    0.773708   -2.907353
 H   -1.585223    3.890420   -1.347369
 H    0.449542    3.360984   -0.344142
 H    2.253992    1.696931   -0.246283
 H    0.944745   -3.664272   -1.023401
 H   -1.440181   -4.244204   -0.765438
 H   -1.884495   -1.083170    2.107251
 H    0.506145   -0.478614    1.804467
 H   -3.540234   -3.410605   -1.256746
 H   -4.939264   -3.005963   -0.247716
 H   -2.775696   -1.062659   -1.275484
 H   -4.472406   -1.087533   -1.821951
 H   -3.727497   -0.824525    0.962929
 H   -2.475865    0.933611    0.251437
 H   -3.665782    1.343469   -1.000720
 H   -4.109208    1.555210    2.024409
 H   -3.157680    3.618352    1.022242
 H   -4.839046    3.888116    1.493160
 H   -4.426391    3.630442   -0.214830
 H   -6.148388    1.794694   -0.219754
 H   -7.803388    1.185253    1.563668
 H   -6.943982    2.672568    1.962148
 H   -6.496862    1.155555    2.762154
 H   -5.866994   -0.804231    1.302777
 H   -6.192737   -0.544718   -0.420980
