63 
1xpc_ligand_xtb.xyz
 C   -1.964973   -0.800613    1.375135
 C   -1.973270   -1.558714    0.023312
 O   -2.516278   -0.801988   -1.025126
 C   -3.817407   -0.369688   -0.889424
 C   -4.501932   -0.091388   -2.069533
 C   -5.796613    0.375157   -2.050233
 C   -6.447561    0.568413   -0.831078
 O   -7.723985    1.017220   -0.849326
 C   -5.769074    0.306845    0.348265
 C   -4.456044   -0.153319    0.326256
 S   -3.678431   -0.424451    1.889940
 C   -1.066588    0.397468    1.308384
 C   -1.424236    1.552605    0.626282
 C   -0.530814    2.599839    0.495104
 C    0.737838    2.509896    1.051481
 O    1.676764    3.489913    0.903640
 C    1.090385    1.370309    1.768246
 C    0.194801    0.328355    1.891254
 C   -0.531591   -1.852746   -0.308552
 C    0.166698   -2.834541    0.382077
 C    1.531325   -2.979662    0.213854
 C    2.207402   -2.140356   -0.659104
 C    1.504700   -1.205261   -1.407389
 C    0.143077   -1.062672   -1.229114
 O    3.594478   -2.198038   -0.831867
 C    4.363009   -2.059108    0.342518
 C    4.327104   -0.580942    0.790787
 C    5.322280   -0.270349    1.891972
 N    4.518598    0.224994   -0.450890
 C    3.815133    1.526837   -0.492908
 C    4.394512    2.248302   -1.716246
 C    5.658002    1.450422   -2.089741
 C    5.895363    0.548074   -0.883837
 H   -1.601773   -1.484407    2.146658
 H   -2.545853   -2.490300    0.157070
 H   -3.985419   -0.254031   -3.001825
 H   -6.326582    0.587980   -2.963280
 H   -8.067316    1.099355    0.048850
 H   -6.246755    0.459244    1.305938
 H   -2.408302    1.646459    0.194340
 H   -0.822999    3.493340   -0.038690
 H    1.266251    4.279951    0.531096
 H    2.055921    1.335913    2.249908
 H    0.476127   -0.551376    2.451829
 H   -0.354208   -3.487572    1.065650
 H    2.062232   -3.746283    0.757095
 H    2.021165   -0.600835   -2.139758
 H   -0.406133   -0.327183   -1.792949
 H    5.377851   -2.364784    0.075709
 H    4.007132   -2.699438    1.152657
 H    3.309143   -0.359194    1.134147
 H    6.329480   -0.578235    1.624771
 H    5.035670   -0.814676    2.787725
 H    5.322491    0.788537    2.138001
 H    4.106635   -0.392602   -1.181605
 H    4.032332    2.074541    0.424835
 H    2.738058    1.373435   -0.550795
 H    3.686773    2.263562   -2.542313
 H    4.632943    3.280007   -1.469767
 H    6.511334    2.095243   -2.281061
 H    5.486964    0.851209   -2.983943
 H    6.397675    1.096088   -0.086500
 H    6.456880   -0.353519   -1.121771
