40 
1xpz_ligand_xtb.xyz
 S    5.290606    0.296131   -0.231116
 O    6.403020    1.124025   -0.532392
 O    5.243172   -0.439789    0.985781
 O    3.998285    1.211228   -0.373662
 N    5.029862   -0.785210   -1.473290
 N   -1.933515   -1.025979    0.380052
 N   -2.595878   -2.179534    0.028518
 N   -3.171897   -3.986375   -1.047362
 N   -3.958848   -3.881883    0.037638
 N   -5.042688    4.877227   -0.553025
 C   -2.362223   -2.976918   -1.057568
 C   -3.620429   -2.811745    0.681156
 C   -2.581472    0.187298    0.207284
 C   -2.047817    1.363298    0.743078
 C   -2.680907    2.569986    0.541886
 C   -3.861777    2.635945   -0.198763
 C   -4.391937    1.465959   -0.744307
 C   -3.759362    0.259633   -0.545035
 C   -4.512423    3.872593   -0.395615
 C   -0.846413   -1.190936    1.327449
 C    0.436775   -0.541912    0.863538
 C    0.732480   -0.423001   -0.487845
 C    1.921255    0.150339   -0.901482
 C    2.821744    0.619898    0.043288
 C    2.543035    0.501749    1.396818
 C    1.352833   -0.076162    1.798865
 H    5.533045   -0.503222   -2.298494
 H    5.289170   -1.714230   -1.187212
 H   -1.612955   -2.777110   -1.794179
 H   -4.064121   -2.449465    1.584899
 H   -1.129881    1.341640    1.305995
 H   -2.262727    3.473024    0.960768
 H   -5.302285    1.509050   -1.322977
 H   -4.187264   -0.631737   -0.978820
 H   -0.674678   -2.267858    1.435061
 H   -1.126983   -0.800727    2.315084
 H    0.028348   -0.776376   -1.225539
 H    2.157925    0.243330   -1.948970
 H    3.261738    0.855314    2.117238
 H    1.135745   -0.167306    2.852995
