40 
1xq0_ligand_dft.xyz
 S    5.036497    0.074113   -0.275011
 O    6.028442    0.985430    0.229046
 O    4.635337   -1.135138    0.399359
 O    3.729516    1.028617   -0.494626
 N    5.386623   -0.354396   -1.844972
 C    2.510199    0.413024   -0.724770
 C    2.123775    0.127294   -2.027527
 C    0.871618   -0.422212   -2.269191
 C    0.003334   -0.693481   -1.211985
 C    0.395459   -0.394646    0.089389
 C    1.644970    0.159315    0.337632
 C   -1.339762   -1.339023   -1.494946
 C   -5.058135    3.817726   -0.040644
 N   -5.616250    4.830533    0.042082
 C   -4.367975    2.564659   -0.146482
 C   -3.231561    2.450679   -0.950756
 C   -2.564245    1.240818   -1.061219
 C   -3.025814    0.116482   -0.363372
 C   -4.161328    0.232194    0.451250
 C   -4.823623    1.443118    0.554554
 N   -2.333325   -1.103418   -0.454245
 N   -4.397072   -3.902159    0.133008
 N   -3.594697   -3.904246    1.258567
 C   -2.772441   -2.899821    1.155424
 N   -2.998946   -2.224362   -0.010975
 C   -4.030905   -2.897651   -0.609601
Br    2.155569    0.573907    2.096723
 H    6.110729    0.237824   -2.238855
 H    5.618338   -1.340571   -1.897866
 H    2.813196    0.344074   -2.835196
 H    0.569584   -0.637742   -3.290667
 H   -0.280307   -0.577571    0.917146
 H   -1.212013   -2.423411   -1.553268
 H   -1.716556   -1.005832   -2.472948
 H   -2.866833    3.316099   -1.493483
 H   -1.674901    1.188276   -1.676987
 H   -4.529742   -0.623665    1.004856
 H   -5.703065    1.522055    1.184501
 H   -2.009532   -2.607667    1.862111
 H   -4.459843   -2.600218   -1.555512
