40 
1xq0_ligand_xtb.xyz
 S    4.772448    0.133815   -0.105848
 O    5.431832    0.778897    0.968340
 O    4.229705   -1.175789    0.016874
 O    3.632238    1.123955   -0.671865
 N    5.775106    0.132246   -1.430532
 C    2.412028    0.552435   -0.922840
 C    1.942025    0.420270   -2.221017
 C    0.701027   -0.145641   -2.454275
 C   -0.078199   -0.607467   -1.400186
 C    0.396465   -0.486361   -0.102076
 C    1.631236    0.091420    0.132711
 C   -1.416358   -1.257097   -1.665965
 C   -4.926640    3.820105    0.311780
 N   -5.462062    4.819811    0.482067
 C   -4.272716    2.588484    0.093155
 C   -3.197841    2.509352   -0.792759
 C   -2.566494    1.306122   -1.020343
 C   -2.998156    0.147666   -0.368149
 C   -4.066686    0.234273    0.530841
 C   -4.696092    1.437237    0.758401
 N   -2.355610   -1.064026   -0.578294
 N   -4.212133   -3.956901    0.163811
 N   -3.358894   -3.921592    1.202427
 C   -2.596389   -2.885308    1.066168
 N   -2.931183   -2.207916   -0.074836
 C   -3.964206   -2.940706   -0.596864
Br    2.282503    0.288332    1.890051
 H    6.596471    0.693948   -1.281606
 H    6.007716   -0.803917   -1.715055
 H    2.556156    0.775283   -3.032956
 H    0.342431   -0.236178   -3.468727
 H   -0.190563   -0.830678    0.734137
 H   -1.263381   -2.336582   -1.774411
 H   -1.830561   -0.883797   -2.612149
 H   -2.861422    3.398959   -1.303804
 H   -1.729293    1.274766   -1.697564
 H   -4.411409   -0.642916    1.056973
 H   -5.521836    1.491487    1.451419
 H   -1.819121   -2.583115    1.735884
 H   -4.476750   -2.686478   -1.501143
