67 
1xqc_ligand_dft.xyz
 O   -5.910495   -4.401362    0.175290
 C   -5.207176   -3.241321    0.218578
 C   -4.125944   -3.179278    1.101331
 C   -3.378716   -2.017643    1.174417
 C   -3.677421   -0.900515    0.386391
 C   -4.766453   -0.962677   -0.483324
 C   -5.521743   -2.135223   -0.563217
 C   -2.822369    0.353447    0.527069
 N   -3.145804    1.355207   -0.494306
 C   -2.464687    2.599978   -0.264116
 C   -2.817259    3.446778    0.789509
 C   -2.142085    4.647761    0.982182
 C   -1.103664    5.009748    0.127821
 C   -0.745689    4.165820   -0.920096
 C   -1.424100    2.966208   -1.115255
 C   -4.584977    1.511092   -0.699424
 C   -5.132459    0.236756   -1.322309
 C   -1.343861    0.016627    0.427407
 C   -0.844979   -0.562514   -0.738095
 C    0.504471   -0.862363   -0.866731
 C    1.379485   -0.605900    0.191867
 C    0.885420   -0.038848    1.364735
 C   -0.463119    0.282223    1.471523
 N    2.780662   -0.904116    0.121706
 C    3.187885   -1.901181   -0.840189
 C    4.594416   -2.370640   -0.508651
 N    5.548030   -1.208348   -0.516029
 C    5.079111   -0.097752    0.412423
 C    3.641510    0.261181    0.054164
 C    6.040565    1.082646    0.321379
 C    7.487563    0.677952    0.607424
 C    7.917505   -0.460256   -0.318612
 C    6.959854   -1.638434   -0.222609
 H   -6.638027   -4.313046   -0.452252
 H   -3.893896   -4.043146    1.714729
 H   -2.535602   -1.976566    1.859841
 H   -6.371501   -2.173519   -1.243468
 H   -3.001851    0.765660    1.538835
 H   -3.627548    3.169491    1.458843
 H   -2.430616    5.304963    1.797151
 H   -0.582507    5.951096    0.273866
 H    0.056066    4.448621   -1.596387
 H   -1.163298    2.296692   -1.928700
 H   -5.122615    1.726692    0.241289
 H   -4.738431    2.361525   -1.368702
 H   -4.713354    0.128343   -2.330478
 H   -6.220656    0.308076   -1.427972
 H   -1.528914   -0.764537   -1.556782
 H    0.862768   -1.296667   -1.795255
 H    1.557451    0.137645    2.200329
 H   -0.835582    0.739095    2.384197
 H    3.163528   -1.534993   -1.885941
 H    2.518976   -2.763461   -0.782022
 H    4.962480   -3.097943   -1.236428
 H    4.633664   -2.802447    0.493708
 H    5.538432   -0.814647   -1.464408
 H    5.101256   -0.547625    1.410628
 H    3.618652    0.737317   -0.947063
 H    3.297147    1.011699    0.768540
 H    5.702120    1.839662    1.035272
 H    5.963591    1.538611   -0.675551
 H    8.148617    1.538179    0.476139
 H    7.583256    0.359640    1.652834
 H    7.965803   -0.108984   -1.357909
 H    8.918923   -0.819195   -0.064811
 H    6.942844   -2.064606    0.784782
 H    7.206063   -2.431970   -0.932330
