67 
1xqc_ligand_xtb.xyz
 O   -5.709189   -4.500812    0.100794
 C   -5.050342   -3.318164    0.197725
 C   -3.953604   -3.242575    1.053424
 C   -3.259034   -2.058521    1.169105
 C   -3.629088   -0.931145    0.441990
 C   -4.731324   -1.000502   -0.400759
 C   -5.433013   -2.192879   -0.517338
 C   -2.818320    0.336423    0.609231
 N   -3.218578    1.371534   -0.343445
 C   -2.520735    2.593049   -0.206521
 C   -3.070600    3.704299    0.429300
 C   -2.362169    4.889216    0.515142
 C   -1.091488    4.986145   -0.023254
 C   -0.540316    3.889426   -0.664725
 C   -1.248205    2.707289   -0.764438
 C   -4.661253    1.467942   -0.448237
 C   -5.157522    0.217046   -1.165332
 C   -1.353280    0.019864    0.440112
 C   -0.923940   -0.717153   -0.655417
 C    0.417960   -0.985613   -0.849628
 C    1.360506   -0.527315    0.063725
 C    0.932388    0.196558    1.171768
 C   -0.409040    0.470275    1.351848
 N    2.746583   -0.796569   -0.065249
 C    3.181608   -1.870651   -0.919518
 C    4.554077   -2.329222   -0.426834
 N    5.522671   -1.206877   -0.461843
 C    5.024495   -0.044524    0.339907
 C    3.632315    0.336833   -0.171453
 C    6.008117    1.115951    0.229387
 C    7.409035    0.700178    0.667792
 C    7.871533   -0.493498   -0.160930
 C    6.874356   -1.635628   -0.026392
 H   -6.459657   -4.415326   -0.499604
 H   -3.671181   -4.117638    1.615670
 H   -2.410663   -2.002019    1.836404
 H   -6.292649   -2.239287   -1.173671
 H   -2.977011    0.701464    1.645491
 H   -4.055981    3.645586    0.866420
 H   -2.804917    5.740040    1.011788
 H   -0.539623    5.911314    0.047176
 H    0.443902    3.961167   -1.106621
 H   -0.826508    1.867258   -1.293460
 H   -5.152772    1.539162    0.536083
 H   -4.906843    2.357808   -1.030572
 H   -4.724319    0.188880   -2.169151
 H   -6.243556    0.242454   -1.266833
 H   -1.650336   -1.069857   -1.370881
 H    0.719411   -1.544909   -1.722306
 H    1.650893    0.540393    1.900943
 H   -0.723547    1.040522    2.213247
 H    3.249557   -1.576708   -1.982959
 H    2.484544   -2.704501   -0.834118
 H    4.932295   -3.146085   -1.043940
 H    4.470302   -2.668916    0.607035
 H    5.593219   -0.877856   -1.432810
 H    4.947447   -0.387616    1.375612
 H    3.715530    0.693502   -1.215666
 H    3.242125    1.158669    0.427700
 H    5.649397    1.935159    0.851722
 H    6.035561    1.476922   -0.801766
 H    8.097681    1.533293    0.537938
 H    7.404087    0.436089    1.726198
 H    7.971607   -0.204776   -1.209538
 H    8.847433   -0.837337    0.179598
 H    6.804073   -1.954190    1.015833
 H    7.180596   -2.491399   -0.631635
