47 
1xsc_ligand_xtb.xyz
 P    3.668636   -1.206550   -0.162467
 O    2.977377   -1.151782    1.133360
 O    4.016573   -2.569949   -0.810921
 O    5.073300   -0.507610   -0.132430
 P    1.945084    0.759682   -0.693195
 O    1.363031    1.426486   -1.981074
 O    2.640635    1.631742    0.240115
 O    2.864029   -0.378073   -1.310067
 P    0.565556   -1.597110    0.260861
 O    1.406277   -2.512434   -0.519185
 O    0.564327   -1.745764    1.819776
 O    0.709997   -0.044379   -0.085792
 O   -0.971356   -1.696421   -0.107324
 C   -1.792528   -2.748732    0.379322
 C   -3.245310   -2.253650    0.403349
 O   -3.395583   -1.173842    1.313040
 C   -3.720369   -1.714495   -0.955380
 O   -5.109644   -1.834814   -1.062748
 C   -3.275355   -0.246094   -0.884054
 O   -4.104070    0.586174   -1.637790
 C   -3.339387    0.048073    0.637958
 N   -2.193699    0.827460    1.048751
 C   -1.463574    0.736444    2.201564
 N   -0.488617    1.588124    2.273902
 C   -0.539194    2.287803    1.097887
 C    0.271790    3.278943    0.519363
 N    1.268668    3.886020    1.183124
 N   -0.014344    3.669731   -0.733428
 C   -1.095696    3.188472   -1.333540
 N   -1.946493    2.286030   -0.889594
 C   -1.610723    1.817322    0.320114
 H    3.193303   -3.060152   -0.937353
 H    5.047304    0.282702    0.410490
 H    1.124698    2.353326   -1.834509
 H    1.466971   -1.619700    2.142499
 H   -1.697382   -3.620589   -0.273759
 H   -1.486431   -3.014514    1.392796
 H   -3.900207   -3.057992    0.750616
 H   -3.227722   -2.238524   -1.784906
 H   -5.427019   -1.046666   -1.527467
 H   -2.234849   -0.174452   -1.215046
 H   -3.648816    1.445443   -1.686786
 H   -4.253735    0.620588    0.873072
 H   -1.706926    0.018620    2.958575
 H    1.632488    3.381217    1.975246
 H    1.929384    4.406208    0.628999
 H   -1.295887    3.583412   -2.320907
