15 
1xt8_ligand_xtb.xyz
 N   -0.118258    1.517565    0.270618
 C    0.217891    0.094431    0.520498
 C    1.661462   -0.084579   -0.008225
 O    2.146405    0.795142   -0.667939
 C   -0.728154   -0.801499   -0.284624
 S   -2.459105   -0.203219   -0.005729
 O    2.187971   -1.228407    0.315756
 H   -0.039613    2.109362    1.103006
 H   -1.103879    1.548559   -0.082046
 H    0.585232    1.843921   -0.437224
 H    0.157427   -0.151211    1.582668
 H   -0.638750   -1.835036    0.045393
 H   -0.514901   -0.737983   -1.351023
 H   -2.944957   -0.577684   -1.182597
 H    3.090728   -1.355363   -0.029266
