15 
1xt8_ligand_dft.xyz
 N   -0.032111    1.582246    0.268525
 C    0.219914    0.117399    0.464480
 C    1.658364   -0.114242   -0.000269
 O    2.251312    0.721491   -0.638470
 C   -0.769746   -0.712058   -0.371391
 S   -2.493769   -0.240384    0.031077
 O    2.091779   -1.307621    0.349841
 H    0.252739    2.140542    1.078446
 H   -1.043243    1.731800    0.103171
 H    0.538216    1.899972   -0.532649
 H    0.109659   -0.108925    1.527413
 H   -0.598554   -1.765281   -0.141926
 H   -0.580765   -0.561206   -1.437929
 H   -2.943809   -0.182102   -1.231192
 H    2.994914   -1.441943    0.009868
