71 
1xxe_ligand_dft.xyz
 C    3.162970    0.031455    0.230481
 C    2.557032    1.421744    0.419182
 C    3.452581    2.451677   -0.282413
 C    4.614981    0.013186    0.707700
 C    5.380841    1.133083   -0.005487
 O    4.777844    2.383253    0.229456
 O    2.447262   -0.942780    1.011148
 O    0.930699   -1.195592   -0.636938
 C    1.350387   -1.491589    0.462160
 C    0.682689   -2.449445    1.412507
 C    0.159753   -1.709112    2.661195
 C   -0.625052   -0.430102    2.348681
 C   -1.832474   -0.626477    1.430935
 C   -2.569523    0.688138    1.165698
 C   -3.684755    0.578797    0.122308
 C   -4.820476   -0.370240    0.508907
 C   -5.959429   -0.386791   -0.510249
 C   -7.082163   -1.355453   -0.136670
 C   -8.177253   -1.488885   -1.201078
 C   -8.887246   -0.182815   -1.575980
 C   -9.553366    0.530227   -0.397918
 C  -10.355513    1.756752   -0.829711
 C    5.292738   -1.357911    0.541906
 C    5.492170   -1.753286   -0.901934
 O    4.582435   -1.903923   -1.713024
 N    6.783866   -1.860827   -1.316629
 O    6.973599   -2.386948   -2.587524
 O    1.233423    1.528118   -0.054636
 C    2.992506    3.883430   -0.063467
 O    3.857249    4.793538   -0.699043
 H    3.108184   -0.264533   -0.821872
 H    2.546780    1.648739    1.495039
 H    3.465727    2.241964   -1.365050
 H    4.614382    0.245148    1.780065
 H    5.431232    0.931956   -1.087958
 H    6.403908    1.200131    0.375348
 H   -0.131244   -2.930170    0.866628
 H    1.399037   -3.220585    1.714480
 H    1.011143   -1.456999    3.302677
 H   -0.469419   -2.407929    3.225493
 H    0.045890    0.309379    1.890840
 H   -0.959448    0.010161    3.297168
 H   -2.513262   -1.364833    1.876349
 H   -1.504062   -1.039910    0.468405
 H   -1.836493    1.431496    0.826130
 H   -2.986998    1.070554    2.108350
 H   -3.251964    0.251503   -0.833652
 H   -4.103507    1.578278   -0.056618
 H   -5.217103   -0.082011    1.493559
 H   -4.430353   -1.390533    0.622319
 H   -5.558872   -0.657955   -1.497885
 H   -6.362551    0.630036   -0.613284
 H   -7.525135   -1.044389    0.819046
 H   -6.648408   -2.348584    0.042192
 H   -7.737387   -1.923330   -2.108852
 H   -8.926161   -2.210115   -0.846712
 H   -9.650510   -0.406084   -2.333664
 H   -8.178077    0.504110   -2.057467
 H   -8.790447    0.836616    0.329078
 H  -10.211530   -0.175377    0.127497
 H  -11.152070    1.478602   -1.529433
 H   -9.712345    2.487180   -1.334194
 H  -10.819845    2.254649    0.027862
 H    4.664374   -2.121209    1.010513
 H    6.252753   -1.345453    1.071100
 H    7.514667   -2.170122   -0.691715
 H    6.049705   -2.443419   -2.911205
 H    1.038534    0.759399   -0.614162
 H    2.929551    4.072416    1.020854
 H    1.997022    4.013750   -0.491196
 H    4.748749    4.549636   -0.415694
