47 
1xxh_ligand_xtb.xyz
 P    3.898993   -0.525188   -0.462276
 O    3.515114   -0.139605   -1.923255
 O    3.649765   -1.906198   -0.022760
 S    5.861792    0.065961   -0.307273
 P    1.595129    0.756818    0.653236
 O    0.958159    1.388093   -0.488506
 O    1.548226    1.475491    2.028054
 O    3.167695    0.540328    0.514997
 P    0.789575   -1.789849   -0.211048
 O    1.248502   -1.321090   -1.514265
 O    1.372802   -3.125135    0.362177
 O    1.043988   -0.723553    0.978511
 O   -0.768450   -2.021554   -0.194054
 C   -1.401126   -2.875983    0.757779
 C   -2.910698   -2.603999    0.762426
 O   -3.218955   -1.430796    1.506051
 C   -3.494273   -2.381649   -0.641623
 O   -4.828734   -2.797099   -0.673854
 C   -3.369341   -0.857965   -0.807709
 O   -4.364203   -0.350068   -1.639812
 C   -3.492838   -0.359303    0.655583
 N   -2.572716    0.728698    0.889913
 C   -1.704831    0.900099    1.915653
 N   -0.975464    1.976854    1.807425
 C   -1.368793    2.562021    0.627590
 C   -0.933179    3.674554   -0.116924
 N    0.048489    4.501032    0.285505
 N   -1.566682    3.946884   -1.259911
 C   -2.531758    3.153567   -1.680179
 N   -2.993530    2.052278   -1.109800
 C   -2.377293    1.784641    0.044222
 H    2.614010   -0.472001   -2.121534
 H    6.161813   -0.885588    0.571207
 H    0.615657    1.822390    2.164931
 H    2.342862   -3.066940    0.321183
 H   -0.999670   -2.688503    1.755899
 H   -1.206853   -3.914308    0.480519
 H   -3.421263   -3.434341    1.260186
 H   -2.905650   -2.911229   -1.401334
 H   -5.297870   -2.192337   -1.267869
 H   -2.366527   -0.618776   -1.181764
 H   -4.161369    0.597697   -1.766634
 H   -4.517997    0.003924    0.843615
 H   -1.653842    0.209604    2.733480
 H    0.684511    4.167321    0.989505
 H    0.398152    5.143605   -0.406576
 H   -2.997267    3.430778   -2.616224
