47 
1xxh_ligand_dft.xyz
 P    4.181274   -0.501703   -0.352937
 O    3.741976   -0.098283   -1.814380
 O    3.959663   -1.925402    0.016373
 S    6.117262    0.177360   -0.121672
 P    1.843149    0.934289    0.628213
 O    1.433383    1.772211   -0.506347
 O    1.659655    1.498523    2.077315
 O    3.410492    0.523451    0.656906
 P    0.807229   -1.624589   -0.436301
 O    1.238213   -1.150886   -1.768224
 O    1.479156   -2.930290    0.139432
 O    1.096701   -0.516203    0.721095
 O   -0.742903   -1.913892   -0.307493
 C   -1.281200   -2.965386    0.519574
 C   -2.773170   -2.758949    0.697258
 O   -3.023866   -1.622513    1.533865
 C   -3.579696   -2.523100   -0.580978
 O   -4.886738   -2.989716   -0.363903
 C   -3.579490   -0.997961   -0.698088
 O   -4.718283   -0.568238   -1.382902
 C   -3.555376   -0.568481    0.788718
 N   -2.700330    0.604180    0.971528
 C   -1.624726    0.728877    1.795281
 N   -0.948547    1.836126    1.597828
 C   -1.611183    2.473510    0.563439
 C   -1.336337    3.611034   -0.222313
 N   -0.217027    4.355726   -0.069093
 N   -2.229934    3.968140   -1.157688
 C   -3.285265    3.183878   -1.378864
 N   -3.591809    2.026578   -0.790710
 C   -2.716106    1.726661    0.179260
 H    2.826796   -0.431314   -2.024126
 H    6.643694   -1.011052   -0.462780
 H    0.703294    1.819174    2.126594
 H    2.464560   -2.803036    0.157332
 H   -0.794362   -2.952638    1.497862
 H   -1.085684   -3.925673    0.034824
 H   -3.166256   -3.639115    1.215441
 H   -3.117611   -3.000053   -1.455882
 H   -5.466332   -2.409685   -0.881882
 H   -2.656472   -0.663322   -1.183869
 H   -4.654834    0.406619   -1.420237
 H   -4.565458   -0.327334    1.135588
 H   -1.372940   -0.035611    2.513850
 H    0.609668    3.847251    0.220172
 H   -0.061370    5.022183   -0.813402
 H   -3.968443    3.520059   -2.154041
