42 
1xxi_ligand_xtb.xyz
 P    2.483962   -1.440677    0.335571
 O    2.899109   -2.799058   -0.012025
 O    2.835955   -0.315183   -0.717956
 O    2.945291   -0.887781    1.702854
 P    0.197947   -1.987786   -0.967073
 O    0.756858   -1.308596   -2.134019
 O    0.430621   -3.536660   -0.827986
 O    0.834268   -1.379767    0.401156
 O   -1.349539   -1.778014   -0.830302
 C   -2.144977   -2.303706    0.229245
 C   -3.070981   -1.209564    0.780798
 O   -2.369186   -0.333381    1.656502
 C   -3.675029   -0.322874   -0.318225
 O   -4.934518    0.136786    0.078916
 C   -2.654444    0.822971   -0.404121
 O   -3.237719    2.000511   -0.864655
 C   -2.161303    0.915960    1.060437
 N   -0.760454    1.257763    1.116630
 C    0.156775    0.796826    2.004973
 N    1.371900    1.197498    1.758142
 C    1.271639    1.976370    0.629995
 C    2.199801    2.654006   -0.183911
 N    3.520310    2.678372    0.060022
 N    1.728646    3.340663   -1.228951
 C    0.433658    3.348075   -1.477374
 N   -0.529868    2.723061   -0.820870
 C   -0.069817    2.028710    0.223736
 H    2.352021   -0.491830   -1.542394
 H    2.493367   -0.018881    1.913241
 H    1.373695   -3.694256   -0.635282
 H   -2.742555   -3.122777   -0.178321
 H   -1.508864   -2.674730    1.034479
 H   -3.865796   -1.679945    1.369108
 H   -3.741528   -0.863513   -1.271158
 H   -5.052313    1.013861   -0.314464
 H   -1.821085    0.508782   -1.042988
 H   -2.502001    2.610043   -1.064876
 H   -2.740613    1.684259    1.602609
 H   -0.121558    0.157602    2.818244
 H    4.109858    3.059518   -0.660891
 H    3.903920    1.994842    0.689705
 H    0.120041    3.930986   -2.332459
