21 
1y1m_ligand_xtb.xyz
 N   -0.538720    1.764359    0.274785
 O   -1.438927   -1.701917   -0.191391
 C   -0.111590    0.346195    0.064888
 C   -1.466823   -0.407769   -0.066960
 C    0.747385    0.202582   -1.205693
 C    0.760878   -0.181784    1.225313
 O   -2.473971    0.254029   -0.050636
 C    2.186421    0.155657   -0.690225
 C    2.063086   -0.679657    0.580582
 H   -1.604353    1.685361    0.164555
 H   -0.325120    2.117100    1.213304
 H   -0.157007    2.408680   -0.424322
 H   -0.559126   -2.111247   -0.176598
 H    0.568384    1.006337   -1.918601
 H    0.512893   -0.732822   -1.717172
 H    0.260513   -0.961373    1.799818
 H    0.984217    0.628760    1.919699
 H    2.544841    1.157789   -0.453996
 H    2.866559   -0.284890   -1.413588
 H    1.992631   -1.737655    0.327287
 H    2.913644   -0.554793    1.244895
