21 
1y1m_ligand_dft.xyz
 N    2.167600   -4.207664    0.400715
 O    0.844728   -6.940182    2.405478
 C    1.884344   -4.803676    1.769171
 C    1.331083   -6.202225    1.426609
 C    3.189455   -4.829609    2.585420
 C    0.987665   -3.851275    2.569280
 O    1.383941   -6.604016    0.288480
 C    3.339605   -3.390497    3.136184
 C    1.944577   -2.724560    2.999957
 H    2.174747   -5.023111   -0.251037
 H    1.424754   -3.574578    0.090166
 H    3.056649   -3.703467    0.358120
 H    0.847181   -6.497269    3.265771
 H    4.043134   -5.182110    1.997573
 H    3.065734   -5.548483    3.401257
 H    0.611018   -4.379174    3.452195
 H    0.107906   -3.513083    2.011859
 H    4.100207   -2.830495    2.584337
 H    3.676899   -3.418450    4.173751
 H    1.610729   -2.257424    3.927791
 H    1.962043   -1.929452    2.246420
