18 
1y1z_ligand_dft.xyz
 N   21.110152   31.327795    7.651701
 O   23.131060   33.974142    9.097390
 C   21.397640   32.799956    7.816267
 C   22.696943   32.816860    8.638475
 C   21.381311   33.544836    6.452633
 C   19.923831   33.981058    6.734565
 C   20.132466   33.597843    8.219776
 O   23.308039   31.788197    8.805476
 H   22.025570   30.852434    7.806899
 H   20.470105   30.978242    8.371781
 H   20.725689   31.086991    6.734487
 H   22.542441   34.717212    8.902850
 H   21.597919   32.946506    5.562889
 H   22.082298   34.383612    6.464733
 H   19.185501   33.347598    6.236266
 H   19.677983   35.022316    6.527261
 H   20.378314   34.458446    8.848215
 H   19.343338   33.038853    8.731135
