34 
1y2c_ligand_xtb.xyz
 C    2.583155    0.530387    0.046446
 O    2.968556   -0.761990    0.001385
 C    4.374623   -0.992738   -0.024608
 C    4.617934   -2.455412   -0.347372
 C    1.136570    0.686972    0.064067
 C    0.452529    1.934235    0.145376
 N   -0.843665    1.736534    0.128561
 C    1.045282    3.288193    0.235927
 C    0.130061   -0.274064    0.004414
 C    0.226153   -1.743641   -0.170660
 N   -1.038693    0.406047    0.057040
 C   -2.356988   -0.074443    0.024161
 C   -3.306694    0.656185   -0.683439
 C   -4.617401    0.221957   -0.726923
 C   -4.989520   -0.938708   -0.067587
 C   -4.048067   -1.652940    0.653526
 C   -2.733771   -1.223490    0.710062
 O    3.375676    1.444114    0.068304
 H    4.793859   -0.728338    0.953456
 H    4.829044   -0.335809   -0.775190
 H    4.145757   -3.087469    0.400092
 H    4.203455   -2.699855   -1.322109
 H    5.685796   -2.653371   -0.357258
 H    1.673609    3.359794    1.121535
 H    1.682695    3.472092   -0.626683
 H    0.254645    4.031602    0.280622
 H    1.108735   -1.975531   -0.760493
 H    0.338255   -2.241682    0.792668
 H   -0.659970   -2.132639   -0.668814
 H   -2.998107    1.561431   -1.181644
 H   -5.351200    0.789513   -1.278915
 H   -6.013039   -1.279558   -0.105957
 H   -4.338498   -2.546458    1.185990
 H   -2.015596   -1.763731    1.305642
