36 
1y2e_ligand_xtb.xyz
 O   -3.849715    1.289574   -0.042050
 C   -2.990565    0.437347   -0.025830
 O   -3.280559   -0.881283    0.018915
 C   -4.664694   -1.214527    0.052975
 C   -4.793202   -2.704669    0.310085
 C   -1.560615    0.693788   -0.053632
 C   -0.957207    1.978748   -0.157377
 N    0.350358    1.862446   -0.155364
 C   -1.634521    3.292770   -0.253468
 C   -0.492768   -0.201318    0.007896
 C   -0.489146   -1.671896    0.200153
 N    0.627379    0.548887   -0.066524
 C    1.971674    0.140347   -0.040244
 C    2.882804    0.885909    0.701780
 C    4.210808    0.523335    0.738458
 C    2.416261   -0.956802   -0.769578
 C    3.745980   -1.321779   -0.727117
 C    4.664004   -0.594419    0.032829
 N    5.973836   -1.004263    0.132709
 H   -5.120269   -0.937079   -0.905126
 H   -5.153407   -0.628611    0.840145
 H   -4.287448   -3.263881   -0.472666
 H   -4.343907   -2.961286    1.266065
 H   -5.842753   -2.983705    0.325537
 H   -2.342459    3.286862   -1.079517
 H   -2.201406    3.484586    0.655920
 H   -0.895560    4.075593   -0.398732
 H   -1.318330   -1.950954    0.844817
 H   -0.628761   -2.186343   -0.750690
 H    0.448409   -1.999263    0.645443
 H    2.530750    1.754097    1.235690
 H    4.913818    1.103129    1.318378
 H    1.730345   -1.510541   -1.390971
 H    4.087722   -2.174938   -1.295084
 H    6.639314   -0.320449    0.453183
 H    6.312261   -1.624027   -0.584628
