36 
1y2k_ligand_dft.xyz
 O    3.630658   -2.445194   -1.029743
 N    4.293896   -1.562567   -0.507480
 O    5.502115   -1.604364   -0.341881
 C    3.583891   -0.363245   -0.039864
 C    4.305249    0.649494    0.573479
 C    2.213987   -0.288489   -0.249668
 C    1.540795    0.838783    0.205836
 C    2.240817    1.879788    0.819416
 C    3.615325    1.781992    0.994359
 N    0.142945    0.968275    0.026217
 C   -0.835097    0.035812    0.185114
 C   -0.580862   -1.364442    0.641201
 C   -2.021165    0.698268   -0.101322
 C   -1.650007    2.039531   -0.404574
 N   -0.344059    2.193441   -0.320743
 C   -2.528575    3.185945   -0.781643
 C   -3.396177    0.192337   -0.107138
 O   -4.375531    0.874561   -0.322519
 O   -3.466021   -1.129220    0.144292
 C   -4.783937   -1.694918    0.152981
 C   -4.637949   -3.169277    0.465355
 H    5.374416    0.545202    0.707373
 H    1.707283   -1.088057   -0.773057
 H    1.693993    2.758673    1.139943
 H    4.154703    2.593161    1.471388
 H   -0.448290   -2.044033   -0.207739
 H    0.312542   -1.422137    1.268227
 H   -1.440618   -1.720363    1.207694
 H   -3.103970    2.953879   -1.681939
 H   -3.254395    3.394397    0.008989
 H   -1.915609    4.072425   -0.959199
 H   -5.247912   -1.528227   -0.823726
 H   -5.390540   -1.175776    0.901076
 H   -4.020093   -3.666819   -0.287853
 H   -4.175733   -3.316042    1.446206
 H   -5.622790   -3.646074    0.474290
