36 
1y2k_ligand_xtb.xyz
 O    3.626191   -2.531622   -0.773558
 N    4.295023   -1.587832   -0.409934
 O    5.503708   -1.584309   -0.336929
 C    3.597060   -0.381523   -0.031955
 C    4.315127    0.696009    0.468369
 C    2.218755   -0.334415   -0.193088
 C    1.539071    0.818486    0.177132
 C    2.256805    1.915614    0.661001
 C    3.630195    1.851452    0.803100
 N    0.156506    0.946528    0.038200
 C   -0.828664    0.013807    0.132615
 C   -0.601597   -1.401348    0.510697
 C   -2.018696    0.692926   -0.097315
 C   -1.640208    2.051473   -0.316347
 N   -0.340374    2.175114   -0.219223
 C   -2.523231    3.201529   -0.610985
 C   -3.392832    0.201178   -0.126735
 O   -4.366686    0.903907   -0.263594
 O   -3.469046   -1.134732    0.013682
 C   -4.778642   -1.700570   -0.000165
 C   -4.698888   -3.110986    0.554225
 H    5.385220    0.615715    0.577732
 H    1.719678   -1.183516   -0.629492
 H    1.710568    2.811862    0.907719
 H    4.170062    2.705194    1.180894
 H   -0.424567   -2.018461   -0.370241
 H    0.249256   -1.493691    1.183189
 H   -1.493010   -1.783635    0.999708
 H   -3.105620    3.002580   -1.508287
 H   -3.229345    3.343750    0.204813
 H   -1.924875    4.097758   -0.746323
 H   -5.149103   -1.702216   -1.031844
 H   -5.444293   -1.069329    0.599095
 H   -4.017394   -3.710397   -0.043675
 H   -4.339161   -3.093248    1.579944
 H   -5.684373   -3.566775    0.533357
