40 
1y3n_ligand_dft.xyz
 C    1.248946   -0.892226    0.542235
 C    2.109770   -1.918253   -0.185137
 O    2.077345   -1.683369   -1.573166
 C    3.575927   -1.787314    0.246806
 O    4.415008   -2.499297   -0.627542
 C    3.949001   -0.329707    0.334226
 C    3.031538    0.639421    0.341779
 O    1.687685    0.436212    0.302811
 C    3.424390    2.076106    0.379362
 O    2.365829    2.901163    0.368384
 O    4.567968    2.465008    0.413120
 C   -3.082218    0.034987   -1.314032
 C   -1.834186    0.905866   -1.363229
 O   -2.159454    2.196843   -1.837938
 C   -1.262153    1.087669    0.039228
 O   -2.183053    1.786379    0.854345
 C   -1.054184   -0.276039    0.704233
 O   -0.033244   -1.016250    0.041684
 C   -2.327258   -1.132589    0.605230
 O   -2.796827   -1.218493   -0.713539
 C   -3.423507   -0.699932    1.580435
 O   -2.950874   -0.650458    2.837823
 O   -4.576182   -0.499291    1.296137
 O   -3.478124   -0.189579   -2.626199
 H    1.272275   -1.063615    1.631930
 H    1.732534   -2.921713    0.054958
 H    1.150124   -1.593368   -1.831162
 H    3.701788   -2.256881    1.229759
 H    4.130457   -2.256558   -1.521429
 H    4.997774   -0.060610    0.369532
 H    2.729395    3.800855    0.383129
 H   -3.869097    0.540624   -0.741068
 H   -1.092368    0.410904   -2.004112
 H   -2.671199    2.074460   -2.648834
 H   -0.306080    1.618045   -0.019277
 H   -2.528053    2.504966    0.303990
 H   -0.789679   -0.126206    1.756868
 H   -2.050298   -2.153724    0.887981
 H   -3.691282   -0.374233    3.401180
 H   -4.341305   -0.621819   -2.607621
