64 
1y3w_ligand_dft.xyz
 N    7.172424   -0.797310    0.542693
 C    6.310563   -0.879758   -0.395957
 N    6.481134   -1.450020   -1.647163
 C    4.929725   -0.376153   -0.115483
 C    4.757450    0.609628    0.856872
 C    3.486830    1.072719    1.162923
 C    2.363057    0.574399    0.497761
 C    2.535466   -0.417477   -0.468071
 C    3.807260   -0.888840   -0.768369
 C    1.014958    1.102801    0.913543
 N   -0.010879    0.008096    1.114652
 C    0.236319   -0.901828    2.275684
 C   -0.327763   -0.124865    3.459734
 C   -1.559472    0.604785    2.886539
 C   -1.334232    0.715501    1.362959
 C   -1.175813    2.126782    0.741460
 C   -2.155709    2.345585   -0.426910
 N   -1.442936    1.726733   -1.541558
 C   -0.097586    1.626446   -1.349022
 O    0.699664    1.153592   -2.136783
 C    0.215488    2.110271    0.075947
 C   -2.109626    0.861488   -2.513590
 C   -2.335218   -0.488885   -1.860081
 C   -1.263793   -1.381838   -1.748842
 C   -1.349231   -2.550477   -0.971232
 C   -2.549275   -2.787406   -0.333933
 O   -2.888206   -3.812610    0.492506
 C   -4.300774   -3.703401    0.671059
 O   -4.679145   -2.390279    0.258109
 C   -3.633275   -1.924270   -0.472411
 C   -3.558380   -0.769291   -1.222225
 C   -2.487785    3.813446   -0.705766
 C   -3.404625    4.431032    0.348165
 H    8.085852   -1.150499    0.252758
 H    5.968380   -1.031941   -2.411573
 H    7.432457   -1.684391   -1.897119
 H    5.631680    0.986246    1.375919
 H    3.370092    1.834728    1.930276
 H    1.689941   -0.821644   -1.014128
 H    3.920824   -1.680170   -1.502294
 H    1.129994    1.558704    1.902681
 H   -0.085820   -0.538541    0.247023
 H   -0.325106   -1.819808    2.082641
 H    1.301744   -1.130694    2.328937
 H   -0.585077   -0.795152    4.281351
 H    0.412341    0.583793    3.842477
 H   -2.469214    0.030721    3.076947
 H   -1.695737    1.587205    3.343763
 H   -2.084606    0.136877    0.820988
 H   -1.268929    2.896475    1.510344
 H   -3.090037    1.799352   -0.248898
 H    0.723402    3.077209    0.059720
 H   -1.459695    0.785523   -3.387215
 H   -3.048185    1.328641   -2.822320
 H   -0.348382   -1.169243   -2.292825
 H   -0.527720   -3.256090   -0.906424
 H   -4.543745   -3.837093    1.725275
 H   -4.807539   -4.444632    0.042431
 H   -4.414080   -0.107787   -1.313573
 H   -1.554071    4.384072   -0.789202
 H   -2.967437    3.867845   -1.689662
 H   -3.635763    5.468986    0.095824
 H   -2.946683    4.434270    1.343626
 H   -4.352939    3.886553    0.416706
