45 
1y3y_ligand_xtb.xyz
 N   -5.715516    0.739622    0.479003
 C   -4.970240   -0.084028   -0.129304
 C   -3.508732    0.081032    0.045434
 C   -3.029952    0.588917    1.248868
 C   -1.677281    0.785478    1.434437
 C   -0.772336    0.483794    0.421174
 C    0.694314    0.706761    0.681948
 N    1.439258    1.158230   -0.529787
 C    1.258064    2.592620   -0.886945
 C    2.671014    3.173577   -0.953990
 C    3.449208    2.299760    0.026216
 C    2.899858    0.907266   -0.264494
 C    2.974872   -0.121961    0.877460
 C    3.633054   -1.444694    0.470229
 N    2.540614   -2.212095   -0.081299
 C    1.316611   -1.780656    0.282241
 O    0.261723   -2.279373   -0.024372
 C    1.510548   -0.509166    1.131215
 C    2.772341   -3.477660   -0.728551
 C   -1.251905   -0.012393   -0.784923
 C   -2.606808   -0.214749   -0.969926
 N   -5.371235   -1.073122   -0.985977
 H   -6.711993    0.614521    0.326166
 H   -3.740277    0.833414    2.021295
 H   -1.317305    1.173801    2.376135
 H    0.809495    1.487250    1.443152
 H    1.108406    0.559120   -1.291263
 H    0.673385    3.075496   -0.103294
 H    0.715037    2.691565   -1.825323
 H    2.688414    4.225227   -0.681416
 H    3.082610    3.075234   -1.958397
 H    3.234661    2.591987    1.054555
 H    4.523546    2.352467   -0.128690
 H    3.352770    0.517519   -1.179590
 H    3.463502    0.312933    1.749016
 H    4.426289   -1.317282   -0.271437
 H    4.063793   -1.951345    1.342284
 H    1.289739   -0.761570    2.169118
 H    3.287061   -4.165819   -0.055669
 H    3.376450   -3.339327   -1.626347
 H    1.805026   -3.897027   -0.998454
 H   -0.586738   -0.271373   -1.599142
 H   -2.959145   -0.585402   -1.920058
 H   -4.750317   -1.835822   -1.195809
 H   -6.355817   -1.282396   -1.031964
