58 
1y6b_ligand_dft.xyz
 O    2.178754    2.396786   -1.904149
 S    2.934813    2.553300   -0.665790
 O    3.926773    3.607900   -0.523667
 N    1.895271    2.733329    0.633401
 C    0.613293    2.020043    0.574046
 C   -0.166738    2.266652    1.837335
 C   -1.655581    2.062523    1.822133
 C   -1.091875    3.455161    1.920673
 C    3.675437    0.982544   -0.296348
 C    4.846501    0.904920    0.437093
 C    5.334353   -0.352737    0.790489
 C    2.981535   -0.158747   -0.688567
 C    3.410095   -1.406042   -0.260923
 C    4.617760   -1.500297    0.463739
 O    4.976666   -2.764882    0.796270
 C    6.174441   -2.956201    1.522262
 N    2.702515   -2.590905   -0.514313
 C    1.336123   -2.692922   -0.510780
 O    0.618444   -1.591222   -0.774795
 C   -0.700728   -1.993890   -0.684835
 C   -0.672682   -3.317407   -0.394544
 N    0.636555   -3.761348   -0.279083
 C   -1.712969   -0.971112   -0.911406
 C   -2.997684   -1.125425   -0.383649
 C   -3.986480   -0.164162   -0.599009
 C   -3.673352    0.971119   -1.355424
 C   -2.394579    1.135178   -1.877289
 C   -1.414417    0.174721   -1.659503
 C   -5.338151   -0.335441   -0.015302
 C   -6.487977   -0.036456   -0.755061
 N   -7.731944   -0.157735   -0.294754
 C   -7.882227   -0.599987    0.955318
 C   -6.814857   -0.936618    1.782293
 C   -5.524554   -0.798967    1.288593
 H    1.802214    3.725890    0.837140
 H    0.829251    0.951057    0.475192
 H    0.021928    2.315658   -0.302993
 H    0.358946    1.991033    2.748133
 H   -2.116205    1.632398    2.705773
 H   -2.118743    1.764796    0.885604
 H   -1.175852    4.093384    1.044401
 H   -1.172115    3.980406    2.867100
 H    5.374168    1.807988    0.722447
 H    6.260981   -0.424714    1.347440
 H    2.105061   -0.061057   -1.310831
 H    7.041409   -2.594916    0.956823
 H    6.132037   -2.451230    2.494544
 H    6.262915   -4.031632    1.675289
 H    3.160153   -3.437027   -0.202854
 H   -1.506373   -3.992820   -0.268007
 H   -3.230482   -2.010090    0.203051
 H   -4.425278    1.739694   -1.507819
 H   -2.154373    2.022721   -2.454655
 H   -0.419600    0.314799   -2.070265
 H   -6.392506    0.304977   -1.784532
 H   -8.906235   -0.688370    1.311348
 H   -6.993141   -1.288088    2.793234
 H   -4.665152   -1.028406    1.913032
