47 
1y8p_ligand_xtb.xyz
 P    3.362321   -0.123180   -1.083140
 O    2.995798    1.233947   -1.786554
 O    4.927585   -0.061795   -1.012442
 O    2.881029   -1.377706   -1.649860
 P    2.432789   -1.153787    1.323842
 O    1.998302   -0.484878    2.648283
 O    3.408277   -2.214687    1.389348
 O    2.886130    0.126313    0.438622
 P    0.352335   -1.167997   -0.751871
 O    0.515948   -2.385994   -1.721301
 O    0.668629    0.184327   -1.215093
 O    1.043021   -1.589270    0.626101
 O   -1.184602   -1.223661   -0.394635
 C   -1.896806   -2.389888    0.003862
 C   -3.353709   -1.983190    0.275413
 O   -3.448018   -1.066962    1.357377
 C   -4.011131   -1.254759   -0.909080
 O   -5.398068   -1.417843   -0.860103
 C   -3.589731    0.204260   -0.658904
 O   -4.557917    1.106355   -1.105571
 C   -3.387939    0.243506    0.882432
 N   -2.106961    0.840721    1.202834
 C   -1.192762    0.371225    2.087463
 N   -0.045949    0.987818    2.030942
 C   -0.185440    1.922405    1.034790
 C    0.684949    2.830717    0.406170
 N    1.968435    3.010083    0.775120
 N    0.194314    3.585087   -0.580094
 C   -1.066302    3.445220   -0.944912
 N   -1.969615    2.604598   -0.470993
 C   -1.484040    1.840320    0.509845
 H    2.037463    1.265819   -1.907643
 H    5.283987    0.778954   -0.724918
 H    1.230875    0.171945    2.544217
 H    1.437034   -2.425007   -2.020033
 H   -1.851433   -3.138815   -0.789398
 H   -1.450685   -2.795870    0.915218
 H   -3.933642   -2.865080    0.559339
 H   -3.617955   -1.618576   -1.867536
 H   -5.796080   -0.572692   -1.114869
 H   -2.629909    0.380521   -1.150868
 H   -4.135942    1.976926   -1.141314
 H   -4.187036    0.828462    1.363999
 H   -1.419655   -0.427956    2.764668
 H    2.410018    2.274412    1.301663
 H    2.536716    3.545681    0.139085
 H   -1.398448    4.093544   -1.744605
