67 
1y91_ligand_dft.xyz
 N   -4.290971   62.444858   13.772976
 C    6.060849   58.675088    4.331837
 S    7.537405   60.124151    5.997792
 N    6.725027   58.713451    5.629758
 C    5.969538   58.110103    6.720288
 O    8.271552   60.508522    4.806884
 C   -3.257551   62.047987   12.721948
 C   -3.355403   63.006988   11.541802
 C   -2.277050   62.654481   10.513200
 C   -1.875674   62.038695   13.369464
 C   -0.801935   61.716773   12.321618
 C   -0.880143   62.695259   11.148354
 N    0.141105   62.395988   10.167856
 C    0.579634   63.392439    9.314646
 C    1.729534   63.140870    8.512450
 N   -0.121594   64.507894    9.298066
 C    0.293343   65.464402    8.433306
 C   -0.189830   66.730293    8.120824
 C   -1.395182   67.416539    8.702781
 C   -1.260136   67.594412   10.221613
 C   -2.688374   66.666156    8.353941
 C    0.703509   67.198215    7.140475
 N    1.411246   65.283809    7.640772
 N    1.675361   66.339851    6.837754
 C    2.156975   64.134162    7.659100
 N    3.200607   64.144974    6.795734
 C    4.211248   63.180501    6.641578
 C    4.750652   62.494089    7.732971
 C    5.767232   61.568932    7.534719
 C    4.723942   62.963442    5.359210
 C    5.755965   62.057341    5.165245
 C    6.264389   61.351112    6.253400
 O    8.185581   59.910731    7.279268
 H   -4.277377   61.813831   14.580823
 H   -4.103938   63.392933   14.117020
 H   -5.239612   62.441499   13.384181
 H    5.855445   57.629459    4.087977
 H    5.109279   59.230477    4.332345
 H    6.725807   59.083046    3.570756
 H    6.575250   58.111830    7.626454
 H    5.016742   58.631643    6.907474
 H    5.753117   57.073528    6.448638
 H   -3.544569   61.036438   12.416773
 H   -3.197276   64.038087   11.889973
 H   -4.350358   62.958797   11.083612
 H   -2.311301   63.368864    9.689158
 H   -2.457069   61.655043   10.097600
 H   -1.835007   61.308697   14.186665
 H   -1.670040   63.030228   13.797019
 H   -0.934074   60.688491   11.958832
 H    0.180596   61.769258   12.801565
 H   -0.718588   63.716034   11.527357
 H    0.822534   61.693598   10.412536
 H    2.229927   62.182774    8.538939
 H   -1.452032   68.414076    8.248892
 H   -1.187246   66.615813   10.710659
 H   -0.360613   68.164715   10.472491
 H   -2.128438   68.124903   10.629267
 H   -2.804467   66.561958    7.270954
 H   -2.669949   65.660173    8.789808
 H   -3.564395   67.196517    8.744795
 H    0.673093   68.153596    6.631811
 H    3.211984   64.961322    6.191132
 H    4.409422   62.715424    8.737949
 H    6.211196   61.048154    8.376492
 H    4.312937   63.511075    4.516386
 H    6.178768   61.906911    4.177638
