72 
1ybg_ligand_dft.xyz
 C    1.554819    2.263177   -1.619057
 C    2.659178    1.455143   -1.549058
 C    2.665521    0.207248   -2.223584
 C    1.516753   -0.181092   -2.968676
 C    0.390809    0.684438   -3.005219
 C    0.399770    1.883908   -2.344854
 C    3.789227   -0.661710   -2.175820
 C    1.538815   -1.420389   -3.659341
 C    2.633216   -2.243156   -3.589083
 C    3.767797   -1.864276   -2.832705
 S    1.575460    3.839288   -0.774201
 O    2.954540    4.194368   -0.501514
 N    0.900838    3.542134    0.728511
 C   -2.757885    3.019674    0.513770
 C   -1.505524    3.602835    0.396847
 C   -0.365482    2.914086    0.815382
 C   -0.480902    1.607967    1.320891
 C   -1.747077    1.040268    1.472090
 C   -2.867814    1.751594    1.072569
 C    0.747478    0.886735    1.788611
 S   -4.910737    0.483699    0.053231
 C   -0.810948   -4.765681   -1.072860
 C   -1.757076   -4.583234   -0.096522
 C   -2.564744   -3.417385   -0.081869
 C   -2.387011   -2.447296   -1.107241
 C   -1.412777   -2.671468   -2.112212
 C   -0.635641   -3.799981   -2.091281
 C   -3.519345   -3.175152    0.944038
 C   -3.145022   -1.250101   -1.064156
 C   -4.037107   -1.053665   -0.045054
 C   -4.246347   -2.017280    0.971577
 N    0.896932   -0.425926    1.471649
 O    1.587537    1.470570    2.475836
 O   -4.126471    1.207039    1.305430
 O   -4.667370    1.245747   -1.153024
 O   -6.237116    0.258145    0.570806
 O    0.673671    4.712241   -1.501476
 C    0.234816   -1.106512    0.370091
 C    2.034702   -1.127223    2.048770
 C    2.135101   -0.961352    3.560086
 O    3.177706   -0.899736    4.159621
 O    0.933557   -0.992747    4.156628
 C    4.366901   -1.873838    1.476309
 O    4.122712   -3.025646    1.746801
 O    5.601707   -1.446784    1.159607
 C    3.357043   -0.760834    1.380550
 H    3.538046    1.779918   -0.998896
 H   -0.479584    0.393628   -3.587903
 H   -0.447919    2.558325   -2.392196
 H    4.663555   -0.362048   -1.603324
 H    0.676139   -1.704336   -4.256763
 H    2.638092   -3.188885   -4.122766
 H    4.626732   -2.526108   -2.785833
 H    1.587699    3.150837    1.373906
 H   -3.652657    3.545760    0.202499
 H   -1.393436    4.602632   -0.005407
 H   -1.863581    0.053584    1.909306
 H   -0.188892   -5.655260   -1.066170
 H   -1.890701   -5.325346    0.685646
 H   -1.281029   -1.920728   -2.885554
 H    0.124808   -3.951082   -2.850493
 H   -3.661100   -3.925391    1.716661
 H   -3.008601   -0.488064   -1.825442
 H   -4.977799   -1.827355    1.749465
 H    0.984886   -1.510211   -0.319870
 H   -0.387963   -0.411760   -0.190710
 H   -0.383735   -1.931166    0.736704
 H    1.856587   -2.197244    1.888629
 H    1.100577   -0.891155    5.107261
 H    6.187387   -2.217230    1.235674
 H    3.174639   -0.591240    0.314650
 H    3.766648    0.160415    1.797655
