99 
1ybo_ligand_xtb.xyz
 N   -1.615271   -2.981740   -0.533519
 C   -2.636088   -3.211737   -1.571447
 C   -3.123125   -1.950323   -2.305124
 O   -3.473957   -2.024850   -3.460249
 C   -3.824200   -3.958259   -0.921527
 O   -3.236932   -4.948260   -0.099382
 C   -4.743686   -4.556580   -1.977761
 N   -3.182205   -0.819220   -1.578692
 C   -3.497003    0.449170   -2.207514
 C   -2.344583    1.429096   -1.932474
 O   -1.614127    1.818838   -2.824488
 C   -4.898094    0.970630   -1.830406
 C   -5.278534    0.924005   -0.364494
 O   -4.479961    0.769085    0.554739
 N   -6.584832    1.069870   -0.128633
 N   -2.184173    1.758842   -0.644785
 C   -1.083190    2.580305   -0.169212
 C    0.165756    1.683064   -0.104174
 O    0.617759    1.252257    0.947065
 C   -1.435009    3.167388    1.193575
 C   -0.363752    4.144669    1.687953
 C   -0.778394    4.664483    3.045830
 O   -0.351985    3.862683    4.029544
 O   -1.439793    5.643498    3.242294
 N    0.668885    1.399210   -1.307801
 C    1.787513    0.484395   -1.486269
 C    1.401062   -0.822596   -0.785850
 O    0.470786   -1.491167   -1.233014
 C    3.099493    1.136953   -1.021705
 C    3.367924    2.359514   -1.861192
 C    2.907371    3.604867   -1.455243
 C    4.038437    2.248824   -3.071802
 C    3.114983    4.721937   -2.244858
 C    4.249245    3.365462   -3.860941
 C    3.785806    4.603757   -3.449893
 N    2.074915   -1.154444    0.309871
 C    1.806204   -2.344449    1.088751
 C    0.456859   -2.265397    1.816614
 O   -0.299944   -3.218998    1.859957
 C    2.924747   -2.532461    2.129125
 C    4.272354   -2.508824    1.460954
 C    5.024599   -1.338959    1.422945
 C    4.768233   -3.638069    0.823517
 C    6.236074   -1.291993    0.763656
 C    5.982989   -3.605478    0.166179
 C    6.726007   -2.429356    0.125969
 O    7.914466   -2.339514   -0.511220
 N    0.235208   -1.100471    2.443707
 C   -0.967481   -0.850952    3.209314
 C   -2.111886   -0.472282    2.279071
 O   -3.021854    0.305304    2.795071
 C   -0.705464    0.196597    4.282202
 O   -2.175079   -0.889974    1.135338
 H   -1.932525   -2.341962    0.220630
 H   -1.417183   -3.877666   -0.064618
 H   -0.727928   -2.543685   -0.897972
 H   -2.206872   -3.864783   -2.338570
 H   -4.385249   -3.247346   -0.290308
 H   -3.886947   -5.629580    0.098375
 H   -5.031258   -3.801346   -2.702630
 H   -5.641546   -4.962815   -1.517821
 H   -4.226185   -5.355358   -2.504045
 H   -2.914632   -0.786920   -0.603490
 H   -3.493875    0.268004   -3.289614
 H   -5.634522    0.384609   -2.384653
 H   -4.981666    2.007337   -2.167055
 H   -7.249547    1.220022   -0.868115
 H   -6.922462    1.087581    0.821609
 H   -2.836626    1.390495    0.040650
 H   -0.903999    3.374074   -0.904600
 H   -2.392791    3.686287    1.123593
 H   -1.528320    2.353535    1.915404
 H   -0.274210    4.985488    1.000551
 H    0.590531    3.628485    1.783085
 H   -0.629662    4.204754    4.894570
 H    0.170628    1.729939   -2.130237
 H    1.847698    0.265440   -2.556644
 H    3.005662    1.437102    0.023535
 H    3.917164    0.421476   -1.130348
 H    2.390028    3.702424   -0.510707
 H    4.404364    1.284243   -3.393774
 H    2.756424    5.686146   -1.917180
 H    4.777192    3.269074   -4.797327
 H    3.950673    5.474831   -4.064942
 H    2.837592   -0.571588    0.622019
 H    1.770648   -3.211500    0.417807
 H    2.763720   -3.484075    2.636729
 H    2.858343   -1.732475    2.869027
 H    4.678174   -0.454732    1.941463
 H    4.203438   -4.558159    0.849325
 H    6.824743   -0.389366    0.737053
 H    6.361416   -4.496361   -0.315836
 H    8.169875   -3.193910   -0.880642
 H    0.738146   -0.270286    2.145633
 H   -1.261809   -1.809492    3.663434
 H   -3.733139    0.507081    2.138185
 H    0.056625   -0.163941    4.966949
 H   -1.614335    0.395088    4.841458
 H   -0.359514    1.123888    3.831152
