43 
1yc1_ligand_xtb.xyz
 C    2.213229    0.675389    0.549858
 C    2.524424    1.963411    0.192518
 O    3.366584    2.843218    0.812435
 C    3.329458    4.025083    0.040756
 O    2.450200    3.844490   -1.048892
 C    1.966762    2.570051   -0.935590
 C    1.071944    1.904772   -1.738612
 C    0.746693    0.600121   -1.383346
 C    1.301032   -0.016122   -0.266358
 C    0.899398   -1.379146    0.077218
 C    1.686374   -2.496407    0.360320
 C    3.126375   -2.782875    0.348722
 O    3.557814   -3.863083    0.663254
 O    3.937304   -1.794252   -0.054340
 N    0.816755   -3.509300    0.611704
 C   -0.433611   -1.855273    0.185516
 N   -0.440821   -3.140797    0.511583
 C   -1.653751   -1.075670    0.002931
 C   -1.770352    0.194984    0.555400
 C   -2.902661    0.972633    0.401288
 C   -3.013190    2.327509    1.038726
 C   -3.670441    2.227590    2.416177
 C   -3.968930    0.445940   -0.333889
 O   -5.090530    1.201238   -0.488402
 C   -3.868968   -0.817955   -0.899083
 C   -2.723590   -1.586329   -0.740268
 O   -2.597894   -2.803062   -1.325080
 H    2.621383    0.235175    1.446011
 H    4.340080    4.252475   -0.333767
 H    2.976909    4.861472    0.664778
 H    0.640540    2.378247   -2.603765
 H    0.046021    0.047374   -1.988542
 H    3.453781   -0.979359   -0.265460
 H   -0.947286    0.585656    1.134675
 H   -3.616648    2.975544    0.401982
 H   -2.017301    2.763042    1.139406
 H   -4.671985    1.815827    2.322544
 H   -3.088946    1.578579    3.067228
 H   -3.741180    3.210868    2.875142
 H   -5.734736    0.724168   -1.024531
 H   -4.698597   -1.212115   -1.476691
 H   -3.421155   -3.043459   -1.766763
 H    1.078585   -4.457445    0.839252
