43 
1yc1_ligand_dft.xyz
 C    2.397438   35.787951   -4.478436
 C    3.031223   36.553864   -3.531055
 O    4.336576   36.966250   -3.506889
 C    4.416102   37.885252   -2.427223
 O    3.266168   37.702910   -1.609477
 C    2.387373   36.996362   -2.382156
 C    1.069020   36.693533   -2.129554
 C    0.405460   35.918273   -3.088729
 C    1.044779   35.468573   -4.246414
 C    0.303529   34.621522   -5.199465
 C    0.205544   34.726562   -6.582173
 C    0.749385   35.686198   -7.545636
 O    0.280972   35.437280   -8.793518
 O    1.513607   36.590633   -7.309312
 N   -0.616623   33.719565   -6.981395
 C   -0.507486   33.496762   -4.884393
 N   -1.051170   32.965556   -5.982244
 C   -0.723358   32.898702   -3.552657
 C    0.370550   32.574114   -2.746171
 C    0.253181   32.030565   -1.473574
 C    1.461580   31.668940   -0.645771
 C    1.786917   30.171108   -0.695606
 C   -1.043437   31.797850   -0.998861
 O   -1.164200   31.255999    0.245021
 C   -2.159414   32.116645   -1.768250
 C   -2.004551   32.671646   -3.039331
 O   -3.075266   33.027742   -3.794407
 H    2.912078   35.455960   -5.370973
 H    4.425459   38.912400   -2.818713
 H    5.313686   37.680006   -1.840489
 H    0.570398   37.038387   -1.231261
 H   -0.635628   35.659082   -2.928678
 H    0.684966   36.103713   -9.370960
 H   -0.903010   33.519388   -7.927165
 H    1.366754   32.767279   -3.136394
 H    1.296171   31.967317    0.395255
 H    2.321438   32.243953   -1.007878
 H    1.981386   29.850723   -1.724673
 H    2.672423   29.943396   -0.092517
 H    0.949751   29.582395   -0.308636
 H   -2.098617   31.156276    0.461003
 H   -3.159786   31.939680   -1.373998
 H   -3.884369   32.814687   -3.315248
