32 
1yc4_ligand_dft.xyz
 O   -1.341228   -3.192706    0.081978
 C   -1.559142   -1.886939   -0.021104
 C   -2.890224   -1.476724   -0.106369
 C   -3.210253   -0.135406   -0.214872
 O   -4.525480    0.171482   -0.290461
 C   -2.203866    0.859825   -0.246842
 C   -2.550650    2.329379   -0.316205
 C   -3.031712    2.897513    1.027129
 C   -0.892575    0.444794   -0.163684
 C   -0.513368   -0.907893   -0.050552
 C    0.862563   -1.340240    0.034923
 N    1.140982   -2.618173    0.138617
 N    2.520187   -2.845118    0.209899
 C    3.121166   -1.710975    0.151501
 C    2.173824   -0.599018    0.033374
 C    2.584629    0.689427   -0.043380
 C    4.003602    1.128023   -0.018161
 N    4.074446    2.411638   -0.106876
 C    2.713706    2.799041   -0.188890
 N    1.827569    1.859486   -0.157244
 H   -0.358569   -3.345349    0.132464
 H   -3.673949   -2.224484   -0.087548
 H   -4.632106    1.123346   -0.405275
 H   -3.306021    2.517758   -1.094948
 H   -1.663448    2.881169   -0.642548
 H   -3.913618    2.365167    1.401307
 H   -2.246733    2.793649    1.782195
 H   -3.287721    3.958281    0.938298
 H   -0.115076    1.198677   -0.185278
 H    4.200564   -1.648722    0.189816
 H    4.884203    0.501820    0.061501
 H    2.457640    3.848825   -0.274097
