19 
1yda_ligand_xtb.xyz
 C    0.963474    0.302551   -0.001788
 C   -1.325988    0.780106    0.000839
 C   -3.435023   -0.348484   -0.002449
 C   -4.917801   -0.113836    0.001664
 N    3.581350    1.006837   -0.042039
 N   -0.587336    1.845354    0.001059
 N    0.709245    1.564974   -0.000225
 N   -2.688995    0.810909    0.001916
 O    2.829791   -0.991466    1.259320
 O    2.815784   -1.066448   -1.209859
 O   -2.895526   -1.427778   -0.007210
 S    2.630790   -0.342291    0.005056
 S   -0.430695   -0.726415   -0.001543
 H   -5.205667    0.484849   -0.859758
 H   -5.433121   -1.068961   -0.033822
 H   -5.206811    0.416822    0.906548
 H    3.474702    1.587781    0.772375
 H    3.484507    1.522511   -0.900483
 H   -3.123348    1.723295    0.006363
