56 
1ydk_ligand_dft.xyz
 N   -3.808262   -0.064321   -0.050616
 C   -4.155561   -1.436029   -0.546774
 C   -5.641977   -1.530582   -0.896122
 O   -6.222665   -0.321932   -0.979296
 O   -6.200392   -2.570810   -1.101777
 C   -3.775818   -2.543529    0.447195
 C   -2.274043   -2.767848    0.638269
 C   -1.595671   -1.564407    1.269433
 O   -2.209142   -0.779289    1.995632
 N   -0.296703   -1.360493    0.959745
 C    0.259204   -0.042614    1.155789
 C   -0.538356    0.967641    0.302562
 O   -1.198851    0.611042   -0.674195
 C    1.752022   -0.025484    0.798849
 S    2.024660   -0.536469   -0.933616
 C    3.755512   -1.102585   -0.826000
 C    4.775213    0.005599   -0.580506
 C    6.207941   -0.532583   -0.573922
 C    7.247395    0.568099   -0.352117
 C    8.697808    0.078500   -0.416916
 C    9.074227   -0.906791    0.689967
 N   -0.431528    2.258305    0.664201
 C   -1.040402    3.317707   -0.101304
 C   -2.545789    3.424446    0.095567
 O   -3.267555    2.553913    0.526672
 O   -2.979256    4.612718   -0.317605
 H   -3.646248   -0.070464    0.969646
 H   -4.527569    0.627685   -0.274816
 H   -2.901895    0.280261   -0.431170
 H   -3.611728   -1.576050   -1.487768
 H   -7.153780   -0.449018   -1.229252
 H   -4.228245   -3.460583    0.063365
 H   -4.244212   -2.335643    1.414733
 H   -2.134331   -3.630091    1.300185
 H   -1.795055   -3.019000   -0.314727
 H    0.124088   -1.902280    0.212880
 H    0.148622    0.229507    2.210432
 H    2.273804   -0.721877    1.463144
 H    2.154272    0.975998    0.974618
 H    3.942022   -1.585604   -1.790793
 H    3.822145   -1.881237   -0.057573
 H    4.571366    0.496474    0.380816
 H    4.666644    0.773542   -1.355971
 H    6.301105   -1.300134    0.205197
 H    6.411483   -1.034533   -1.530190
 H    7.069334    1.043812    0.623036
 H    7.100754    1.349772   -1.109381
 H    8.878909   -0.382565   -1.396821
 H    9.361463    0.949429   -0.361255
 H   10.138876   -1.155417    0.643833
 H    8.516361   -1.845999    0.610356
 H    8.874295   -0.479244    1.679618
 H    0.045393    2.495847    1.521517
 H   -0.572880    4.270064    0.153951
 H   -0.866654    3.141283   -1.168535
 H   -3.944759    4.642741   -0.213809
