56 
1ydk_ligand_xtb.xyz
 N   -3.832013    0.116286   -0.063264
 C   -4.288505   -1.171298   -0.632027
 C   -5.778874   -1.122686   -0.994096
 O   -6.284720    0.108224   -0.881780
 O   -6.400647   -2.077898   -1.343632
 C   -4.046786   -2.336836    0.335654
 C   -2.565032   -2.672278    0.516567
 C   -1.823879   -1.560649    1.232465
 O   -2.402485   -0.720173    1.916005
 N   -0.491568   -1.535401    1.071844
 C    0.194723   -0.282774    1.302326
 C   -0.427801    0.758646    0.346439
 O   -1.201769    0.425166   -0.537219
 C    1.686768   -0.441217    1.048156
 S    1.953327   -0.932918   -0.703987
 C    3.714657   -1.389701   -0.642289
 C    4.634586   -0.188033   -0.511912
 C    6.101678   -0.606677   -0.597854
 C    7.032428    0.594544   -0.442174
 C    8.508491    0.238597   -0.620725
 C    9.049120   -0.661641    0.483886
 N   -0.065154    2.026807    0.559575
 C   -0.558248    3.108438   -0.263874
 C   -2.006040    3.479231    0.052594
 O   -2.880323    2.681704    0.275035
 O   -2.179944    4.785821    0.018272
 H   -3.593894   -0.020094    0.955012
 H   -4.529194    0.858086   -0.180803
 H   -2.920825    0.434253   -0.465921
 H   -3.748933   -1.365067   -1.566566
 H   -7.224928    0.122018   -1.124661
 H   -4.568529   -3.208961   -0.059911
 H   -4.482632   -2.095323    1.307216
 H   -2.479233   -3.581616    1.114849
 H   -2.094411   -2.860766   -0.448634
 H   -0.054973   -2.146422    0.394320
 H    0.008354    0.033122    2.336067
 H    2.097583   -1.224019    1.686781
 H    2.210930    0.495495    1.234029
 H    3.889580   -1.908209   -1.584827
 H    3.844886   -2.095089    0.179167
 H    4.462962    0.311451    0.445126
 H    4.409093    0.523859   -1.309276
 H    6.309338   -1.338914    0.183778
 H    6.285735   -1.083948   -1.562646
 H    6.887806    1.039085    0.545723
 H    6.761237    1.347082   -1.186879
 H    8.647341   -0.248504   -1.588072
 H    9.085347    1.165607   -0.632715
 H   10.120350   -0.799995    0.362592
 H    8.579693   -1.641739    0.459372
 H    8.871694   -0.215981    1.460465
 H    0.498426    2.264806    1.360181
 H    0.073320    3.988056   -0.151696
 H   -0.541502    2.778732   -1.310252
 H   -3.101334    5.049090    0.182649
