38 
1ydr_ligand_dft.xyz
 C   -0.824806    0.925075   -0.347650
 C   -1.056310    2.218260    0.066861
 C   -2.310157    2.578784    0.598306
 C   -3.296054    1.631845    0.709659
 C   -3.077746    0.299833    0.281693
 C   -4.093808   -0.689216    0.393948
 N   -3.957024   -1.931588    0.007553
 C   -2.768409   -2.281825   -0.545521
 C   -1.705194   -1.430216   -0.707147
 C   -1.831734   -0.086454   -0.279158
 S    0.771182    0.568501   -1.007958
 O    0.724360   -0.036244   -2.323658
 O    1.622531    1.759847   -0.805307
 N    1.340150   -0.642221    0.034264
 C    1.590714   -0.227176    1.427213
 C    1.026242   -1.243885    2.410826
 C    3.105208   -0.002061    1.647805
 N    3.723547    0.413992    0.347013
 C    3.723638   -0.708001   -0.660785
 C    2.393253   -1.480333   -0.532190
 H   -0.268289    2.958550   -0.019402
 H   -2.481579    3.601127    0.915261
 H   -4.264591    1.893815    1.126302
 H   -5.053222   -0.410710    0.828476
 H   -2.694452   -3.314897   -0.872985
 H   -0.798814   -1.788707   -1.176849
 H    1.079836    0.727641    1.579493
 H    1.209817   -0.927486    3.442483
 H    1.479727   -2.230585    2.270671
 H   -0.051324   -1.337189    2.260360
 H    3.613186   -0.915669    1.969120
 H    3.290861    0.779889    2.385546
 H    4.673247    0.765455    0.484879
 H    3.146048    1.188644   -0.052929
 H    3.832509   -0.246948   -1.644090
 H    4.588501   -1.343143   -0.458989
 H    2.506205   -2.344794    0.126658
 H    2.082536   -1.848876   -1.509936
