38 
1yei_ligand_xtb.xyz
 C   -0.688672   -1.432630    0.549063
 C    0.244480   -1.175352    1.554774
 C    1.590583   -1.246986    1.278203
 C    2.008025   -1.595408   -0.004623
 C    1.083188   -1.873363   -1.005418
 C   -0.264839   -1.787229   -0.729651
 P   -3.209827   -0.725077    0.004343
 O   -2.001827   -1.374903    0.886526
 O   -3.178611   -1.070638   -1.421334
 O   -4.446065   -1.362353    0.783668
 C   -3.303795    1.035026    0.494710
 C   -2.940897    1.950779   -0.664969
 C   -1.509519    1.743881   -1.169834
 C   -0.448847    2.023435   -0.125378
 N    0.539057    2.867804   -0.526476
 O   -0.475266    1.562290    0.999173
 C    1.740023    2.959267    0.270694
 C    2.598598    1.717624    0.047785
 O    2.429395    0.978264   -0.889335
 O    3.499684    1.536327    0.989639
 N    3.399299   -1.637060   -0.315239
 O    3.759258   -2.252738   -1.289616
 O    4.165812   -1.042579    0.434558
 H   -0.109027   -0.900006    2.534359
 H    2.323887   -1.040620    2.043146
 H    1.437460   -2.129743   -1.991679
 H   -1.000313   -1.981321   -1.493549
 H   -4.731944   -2.168900    0.351061
 H   -4.329779    1.212474    0.815968
 H   -2.636526    1.197359    1.339069
 H   -3.072500    2.990750   -0.355370
 H   -3.618778    1.750064   -1.497297
 H   -1.345359    2.368475   -2.048856
 H   -1.397691    0.698141   -1.468937
 H    0.653189    3.027205   -1.515823
 H    2.302032    3.856788    0.007957
 H    1.460526    2.999912    1.325592
 H    3.974728    0.676739    0.862848
