38 
1yei_ligand_dft.xyz
 C    0.416489   -1.837834    0.563269
 C    0.955490   -0.995891    1.532908
 C    2.229190   -0.476546    1.352069
 C    2.934640   -0.835136    0.211016
 C    2.426640   -1.714240   -0.735832
 C    1.147348   -2.213670   -0.560775
 P   -2.091303   -1.659286   -0.119430
 O   -0.861647   -2.321724    0.741886
 O   -1.671634   -1.191805   -1.459526
 O   -3.164287   -2.856827   -0.098279
 C   -2.830662   -0.469006    1.011374
 C   -3.972992    0.354929    0.393036
 C   -3.522235    1.292117   -0.739039
 C   -2.473493    2.254700   -0.209838
 N   -1.196675    2.031229   -0.618417
 O   -2.752263    3.134698    0.593893
 C   -0.123805    2.821947   -0.070213
 C    1.205071    2.159816   -0.346237
 O    1.382605    1.325473   -1.204802
 O    2.153284    2.616037    0.471381
 N    4.225659   -0.214652   -0.048194
 O    5.024983   -0.810245   -0.742855
 O    4.436726    0.895184    0.447236
 H    0.369977   -0.746690    2.411205
 H    2.660051    0.211449    2.069361
 H    3.013038   -1.962298   -1.611847
 H    0.696315   -2.861807   -1.301706
 H   -3.058195   -3.437803   -0.864958
 H   -3.182720   -1.031085    1.882578
 H   -2.024686    0.189775    1.355598
 H   -4.411160    0.964201    1.189375
 H   -4.756094   -0.317526    0.027280
 H   -4.379554    1.888171   -1.063947
 H   -3.151800    0.720594   -1.593274
 H   -0.961420    1.270597   -1.246056
 H   -0.102159    3.832088   -0.501989
 H   -0.262431    2.953654    1.006571
 H    2.985279    2.126491    0.297634
