40 
1yi3_ligand_dft.xyz
 N   -2.324223    0.133967   -0.098078
 C   -2.189363   -1.214210    0.459725
 C   -3.678282    0.666677   -0.041940
 C   -1.273447    1.007395   -0.003108
 C   -3.243999   -2.126232   -0.147437
 O   -4.542359   -1.605585    0.034784
 C   -4.658797   -0.356423   -0.605327
 C    3.529521    2.317397   -0.011761
 C    2.360964    3.057682    0.007435
 C    3.469248    0.921425   -0.004288
 C    1.122546    2.411555    0.019898
 C    1.087969    1.021224    0.021415
 C   -0.148609    3.183891    0.046740
 C    2.254251    0.241107    0.020238
 O   -0.099655    0.342338   -0.006741
 C    2.205377   -1.244194    0.029078
 C    2.919389   -1.974527   -0.924551
 C    2.899568   -3.366191   -0.914508
 C    1.474270   -1.939196    0.999181
 C    1.452340   -3.329314    1.008291
 C    2.163896   -4.047627    0.049907
 C   -1.342018    2.367500    0.056891
 O   -0.155834    4.409113    0.076266
 H   -2.318850   -1.183153    1.553036
 H   -1.195367   -1.602848    0.237996
 H   -3.733679    1.571784   -0.651415
 H   -3.952465    0.926049    0.992442
 H   -3.220959   -3.101556    0.344399
 H   -3.037208   -2.265276   -1.220690
 H   -4.484343   -0.467731   -1.687719
 H   -5.683886   -0.012302   -0.448876
 H    4.494162    2.814475   -0.023212
 H    2.362435    4.142749    0.012454
 H    4.386728    0.339607    0.000218
 H    3.481018   -1.444401   -1.688785
 H    3.455983   -3.917836   -1.666378
 H    0.929955   -1.383829    1.757118
 H    0.885575   -3.853640    1.772304
 H    2.146482   -5.133301    0.057455
 H   -2.292184    2.878888    0.116459
