17 
1ylv_ligand_dft.xyz
 C    2.208755    0.401623    0.443192
 C    2.828057   -0.673871   -0.450451
 C    0.771322    0.775069    0.071156
 C   -0.215148   -0.379402    0.222682
 C   -1.653142    0.036905   -0.043079
 O   -2.002827    1.147163   -0.337645
 O   -2.570032   -0.953421    0.073298
 H    2.823157    1.308043    0.389253
 H    2.241602    0.072148    1.490685
 H    2.317213   -1.637643   -0.345670
 H    2.777182   -0.382246   -1.506032
 H    3.880915   -0.835061   -0.198222
 H    0.735087    1.138869   -0.962350
 H    0.430576    1.606423    0.696590
 H   -0.158906   -0.798911    1.238066
 H    0.031902   -1.201537   -0.462722
 H   -2.134924   -1.781966    0.314181
