96 
1ym4_ligand_dft.xyz
 N    2.704046    0.690694   -0.174119
 C    3.091532   -0.722458   -0.193496
 C    3.084665   -1.348024    1.239750
 O    2.478579   -0.493811    2.196849
 C    2.389600   -2.717978    1.307684
 C    0.927066   -2.801195    0.765308
 C    0.809590   -4.169281    0.046171
 C    2.086515   -4.932903    0.417322
 C    3.129791   -3.823153    0.534781
 C   -0.205530   -2.556058    1.753222
 O   -1.323946   -3.067453    1.584166
 N    0.050447   -1.689167    2.749340
 C   -0.985132   -1.132463    3.603531
 C   -0.465765   -0.912616    5.020274
 C   -1.438729    0.159000    2.931869
 O   -2.526412    0.276519    2.372753
 O   -0.527369    1.099970    2.951408
 C    4.458521   -0.863918   -0.877064
 C    4.415365   -0.961760   -2.410061
 C    3.673044    0.198045   -3.083178
 C    5.840399   -1.077476   -2.956517
 C    1.424972    1.076970   -0.387227
 O    0.462792    0.327398   -0.272431
 C    1.252541    2.536947   -0.879102
 N   -0.153893    2.805491   -1.117517
 C   -1.040890    2.861782   -0.101173
 O   -0.690200    2.979170    1.076267
 C   -2.516458    2.695888   -0.487584
 N   -2.785350    1.276019   -0.269582
 C   -2.363817    0.362785   -1.178651
 O   -2.025726    0.653501   -2.318498
 C   -2.186982   -1.075976   -0.677144
 N   -3.182406   -1.541648    0.336865
 C   -2.030206   -2.111534   -1.794011
 C   -3.055097   -2.128505   -2.934435
 C   -4.473091   -2.490638   -2.582393
 O   -4.992511   -2.410987   -1.479980
 O   -5.160376   -2.892332   -3.644568
 C   -3.443263    3.582038    0.349615
 C   -3.109652    5.057249    0.113626
 C   -4.909227    3.288389    0.027324
 C    1.902101    3.616066    0.013701
 C    3.361766    3.879505   -0.330067
 O    4.087746    3.026761   -0.839163
 N    3.820597    5.105904   -0.016553
 H    3.414819    1.379012   -0.440271
 H    2.344682   -1.240791   -0.804141
 H    4.129793   -1.497762    1.545819
 H    2.513977    0.408992    1.847134
 H    2.388457   -3.006279    2.367366
 H    0.773272   -1.992548    0.040951
 H    0.774957   -4.012602   -1.038055
 H   -0.106887   -4.690585    0.329607
 H    1.963102   -5.430903    1.386377
 H    2.352995   -5.697495   -0.316736
 H    3.397467   -3.475407   -0.472405
 H    4.052830   -4.131283    1.034914
 H    0.944917   -1.188218    2.717232
 H   -1.831614   -1.820038    3.595000
 H    0.402697   -0.248381    5.018790
 H   -0.174413   -1.873240    5.451474
 H   -1.240692   -0.468272    5.651355
 H   -0.771111    1.855142    2.353894
 H    4.946416   -1.767573   -0.494773
 H    5.104410   -0.027737   -0.570969
 H    3.880127   -1.890891   -2.658536
 H    2.605514    0.201071   -2.832604
 H    4.099554    1.164936   -2.790005
 H    3.750091    0.113295   -4.171932
 H    6.405912   -0.159171   -2.757974
 H    6.379430   -1.912239   -2.495515
 H    5.833694   -1.238325   -4.039149
 H    1.744533    2.575030   -1.857379
 H   -0.529098    2.467119   -1.996525
 H   -2.662774    2.902454   -1.551273
 H   -2.783291    1.021473    0.717146
 H   -1.235381   -1.025949   -0.143004
 H   -3.335025   -0.863177    1.094926
 H   -2.739940   -2.353399    0.816203
 H   -4.060711   -1.825398   -0.140825
 H   -1.060072   -1.909397   -2.254876
 H   -1.947766   -3.098162   -1.322807
 H   -3.085960   -1.141429   -3.409791
 H   -2.718765   -2.824767   -3.707850
 H   -6.073689   -3.069596   -3.362501
 H   -3.254602    3.350183    1.405738
 H   -2.074778    5.288522    0.385429
 H   -3.760381    5.694424    0.719163
 H   -3.262510    5.328737   -0.937863
 H   -5.165379    2.242293    0.217823
 H   -5.128134    3.503787   -1.025317
 H   -5.563403    3.914809    0.640826
 H    1.831915    3.340293    1.070166
 H    1.324346    4.537935   -0.096292
 H    3.235818    5.823488    0.381092
 H    4.794208    5.314722   -0.184953
