42 
1ymx_ligand_xtb.xyz
 C   -0.412036   -3.042407   -0.319194
 O   -0.475987   -4.003444    0.395922
 N   -0.573815    0.755984   -0.523595
 C   -0.620124   -0.588181   -0.971544
 S   -2.102649   -0.923743   -1.995220
 C   -3.336990   -0.306004   -0.814196
 C   -2.979678    0.998876   -0.187265
 C   -1.709517    1.459330   -0.118871
 C   -4.149660    1.756278    0.356512
 C   -1.401057    2.793029    0.423511
 O   -2.187639    3.600848    0.853091
 O   -0.076972    3.075439    0.383514
 C   -0.474860   -1.585223    0.212424
 O   -1.506705   -1.355656    1.120191
 C   -1.538447   -2.162082    2.288888
 N    0.813995   -1.295438    0.842082
 C    1.903254   -1.855674    0.289345
 O    1.790737   -2.730810   -0.549939
 C    3.234485   -1.273443    0.734231
 C    3.339889    0.076470    0.103812
 S    2.750706    1.490051    0.924270
 C    3.107421    2.473831   -0.439062
 C    3.642120    1.756602   -1.457592
 C    3.768468    0.382320   -1.150474
 H   -0.487895   -3.109626   -1.415687
 H    0.147407    1.341204   -0.916952
 H    0.222491   -0.784980   -1.641595
 H   -4.254087   -0.202596   -1.395981
 H   -3.485284   -1.076159   -0.055392
 H   -3.944907    2.115271    1.361852
 H   -4.355271    2.635179   -0.253848
 H   -5.033996    1.124089    0.372763
 H    0.061270    3.960488    0.754511
 H   -0.552309   -2.227564    2.752347
 H   -2.231550   -1.657387    2.959965
 H   -1.897580   -3.169142    2.069890
 H    0.867282   -0.461522    1.411326
 H    4.033217   -1.925005    0.379438
 H    3.268815   -1.201923    1.821452
 H    2.902617    3.524269   -0.394856
 H    3.938077    2.186455   -2.397346
 H    4.164451   -0.349161   -1.831482
