42 
1ymx_ligand_dft.xyz
 C   -1.444429   -2.905131    0.121010
 O   -1.275518   -3.655113    1.047983
 N   -0.951011    0.646168   -1.234110
 C   -1.522904   -0.657915   -1.077069
 S   -3.337023   -0.567385   -1.196095
 C   -3.631881    0.772297    0.001127
 C   -2.596644    1.864802    0.086026
 C   -1.367284    1.732031   -0.452079
 C   -3.071282    3.036497    0.902637
 C   -0.292577    2.735530   -0.219844
 O   -0.406049    3.905230    0.061059
 O    0.926871    2.151384   -0.343268
 C   -0.999766   -1.417118    0.174084
 O   -1.484536   -0.761057    1.303750
 C   -1.149852   -1.271325    2.589013
 N    0.460623   -1.348233    0.194381
 C    1.216332   -2.134846   -0.613977
 O    0.719525   -3.004699   -1.315782
 C    2.732408   -1.943422   -0.553319
 C    3.236705   -0.545536   -0.338972
 S    3.501928    0.107334    1.249151
 C    4.044054    1.613905    0.609247
 C    4.029203    1.610463   -0.754453
 C    3.560003    0.375763   -1.294314
 H   -1.978898   -3.216994   -0.793471
 H    0.036719    0.643292   -1.437165
 H   -1.218607   -1.261493   -1.939305
 H   -4.594372    1.207872   -0.291474
 H   -3.757475    0.338479    0.998498
 H   -2.260161    3.668356    1.259197
 H   -3.739650    3.668408    0.303609
 H   -3.652167    2.677828    1.761512
 H    1.600378    2.829876   -0.181398
 H   -0.116736   -1.630354    2.623607
 H   -1.271417   -0.430664    3.275569
 H   -1.814998   -2.087524    2.879269
 H    0.848054   -0.491610    0.573424
 H    3.119931   -2.331279   -1.498415
 H    3.098564   -2.616260    0.231540
 H    4.369008    2.402257    1.274710
 H    4.353313    2.450228   -1.358543
 H    3.477900    0.172947   -2.356587
