170 
1ynd_ligand_xtb.xyz
 O   -5.197545   -0.552351    1.563627
 C   -6.030777   -1.101762    0.860787
 C   -5.618660   -1.972694   -0.313748
 C   -4.547258   -2.972955    0.155577
 C   -5.056353   -3.995446    1.163935
 C   -6.786155   -2.634333   -1.053427
 N   -7.341383   -0.926325    1.102806
 C   -8.464600   -1.484176    0.387859
 O   -8.812248   -0.675481   -0.726045
 C   -8.026312   -2.849288   -0.182941
 C   -9.125010   -3.533878   -0.991555
 C   -9.675849   -1.578708    1.345161
 C   -9.390632   -2.393889    2.603368
 C  -10.187700   -0.173292    1.710857
 O   -9.239702    0.473684    2.538664
 C  -10.488859    0.633661    0.431774
 C  -10.994208    2.034805    0.769739
 C   -9.216705    0.656835   -0.429392
 C   -9.421812    1.383643   -1.762796
 C   -8.254855    1.218181   -2.757665
 O   -8.331761   -0.049233   -3.365100
 C   -6.857174    1.458932   -2.137083
 C   -5.785655    1.103037   -3.167299
 C   -6.697346    2.906881   -1.652536
 C   -5.745159    3.048161   -0.457254
 C   -4.339049    2.669291   -0.773497
 C   -3.645030    1.761318   -0.084659
 C   -2.294327    1.383910   -0.409858
 C   -1.529153    0.541719    0.296037
 C   -1.943485   -0.106225    1.581511
 C   -0.162192    0.183565   -0.227599
 O    0.820651    0.051996    0.826385
 C   -0.170993   -1.180281   -0.934887
 C    1.188031   -1.550783   -1.425887
 C    1.805479   -2.695075   -1.136517
 C    3.081668   -3.106965   -1.693347
 C    4.021609   -2.284743   -2.157277
 C    5.243623   -2.715032   -2.921215
 O    5.368588   -4.114541   -3.057512
 C    6.563342   -2.167251   -2.329631
 C    7.643646   -2.189759   -3.412963
 C    6.982888   -2.994828   -1.088298
 O    8.391626   -3.034556   -0.905522
 C    6.343456   -2.464605    0.206986
 C    6.752798   -3.361264    1.390530
 C    6.095323   -2.952383    2.713184
 C    4.593500   -3.008917    2.658581
 C    3.981193   -4.329188    2.309302
 O    3.906100   -2.029057    2.877094
 C    6.686232   -1.015488    0.539891
 O    5.908148   -0.323367    1.189825
 N    7.857055   -0.574704    0.078774
 C    8.416758    0.738452    0.343977
 C    9.397982    1.132085   -0.777102
 C   10.630724    0.229483   -0.756450
 C    9.821005    2.590445   -0.615303
 C    7.291187    1.760880    0.497832
 O    7.179326    2.460896    1.477683
 N    6.475170    1.884010   -0.587391
 C    5.204615    2.563386   -0.422813
 C    4.616087    3.121001   -1.721832
 C    3.152883    3.417153   -1.497673
 C    2.748943    4.083410   -0.350077
 C    1.399185    4.257406   -0.062744
 O    1.081580    4.860729    1.106398
 C    0.440732    3.800521   -0.959690
 C    0.844731    3.170611   -2.122350
 C    2.188348    2.962712   -2.386372
 C    4.255421    1.515564    0.139056
 O    3.774441    0.630631   -0.557026
 N    4.000214    1.495518    1.467853
 N    3.327740    0.322360    1.873485
 C    4.396699    2.339858    2.566768
 C    3.132298    2.782068    3.297530
 C    2.382781    1.551328    3.801159
 C    2.103315    0.569186    2.667036
 C    1.000977    1.033823    1.684383
 O    0.441845    2.090369    1.722605
 H   -5.111467   -1.285986   -1.004592
 H   -4.144237   -3.489247   -0.718883
 H   -3.738160   -2.400604    0.611916
 H   -5.801801   -4.650860    0.720994
 H   -4.232361   -4.614083    1.513354
 H   -5.492995   -3.493640    2.024527
 H   -6.457335   -3.598575   -1.445749
 H   -7.070651   -2.019466   -1.907801
 H   -7.572924   -0.296343    1.864649
 H   -7.757969   -3.477834    0.668525
 H   -9.520672   -2.856714   -1.743520
 H   -9.939401   -3.865097   -0.353021
 H   -8.717846   -4.407477   -1.495001
 H  -10.483292   -2.055155    0.782475
 H   -8.544388   -1.983263    3.146389
 H   -9.183442   -3.431020    2.356407
 H  -10.259815   -2.367916    3.256225
 H  -11.127692   -0.296947    2.274674
 H   -9.610510    1.312349    2.832049
 H  -11.265708    0.093094   -0.118436
 H  -11.764219    1.980091    1.537858
 H  -10.183211    2.668251    1.126113
 H  -11.430898    2.505793   -0.105681
 H   -8.422952    1.158926    0.142371
 H  -10.310452    0.977202   -2.251020
 H   -9.598925    2.438715   -1.563442
 H   -8.395557    1.935154   -3.576744
 H   -8.447033   -0.683981   -2.643811
 H   -6.739159    0.779362   -1.288073
 H   -5.955785    0.100392   -3.551286
 H   -4.797424    1.146469   -2.717239
 H   -5.824065    1.794010   -4.006802
 H   -7.665411    3.307266   -1.349453
 H   -6.336602    3.523442   -2.478381
 H   -5.761614    4.095932   -0.137424
 H   -6.103641    2.438168    0.374700
 H   -3.885329    3.195038   -1.605599
 H   -4.110649    1.259961    0.749835
 H   -1.889961    1.816385   -1.317633
 H   -1.365054   -1.010027    1.765841
 H   -3.001968   -0.354078    1.575009
 H   -1.778055    0.577673    2.415440
 H    0.200999    0.959304   -0.912745
 H   -0.550450   -1.939831   -0.250579
 H   -0.860780   -1.102198   -1.778620
 H    1.664782   -0.823315   -2.067099
 H    1.302984   -3.427696   -0.517158
 H    3.239415   -4.178415   -1.745832
 H    3.907153   -1.215303   -2.062087
 H    5.143113   -2.259760   -3.924165
 H    4.619051   -4.441130   -3.565518
 H    6.384509   -1.129482   -2.031089
 H    7.334078   -1.577473   -4.256517
 H    7.792483   -3.206690   -3.769920
 H    8.585914   -1.794572   -3.040365
 H    6.622763   -4.019645   -1.241732
 H    8.773231   -3.592980   -1.590588
 H    5.256067   -2.502319    0.079167
 H    7.836447   -3.309724    1.505205
 H    6.492826   -4.392727    1.148696
 H    6.430903   -3.638134    3.494509
 H    6.400137   -1.941350    2.988317
 H    3.966833   -4.423052    1.223298
 H    2.953800   -4.371795    2.662391
 H    4.553694   -5.156945    2.715968
 H    8.469677   -1.259647   -0.351769
 H    8.954278    0.729683    1.302996
 H    8.887018    1.015350   -1.739759
 H   10.376857   -0.819636   -0.891832
 H   11.159060    0.335238    0.187992
 H   11.307996    0.514877   -1.557284
 H   10.544229    2.856306   -1.381616
 H   10.279251    2.744858    0.358296
 H    8.969277    3.259977   -0.700078
 H    6.509039    1.171724   -1.301941
 H    5.386575    3.365860    0.290757
 H    4.715314    2.381883   -2.518370
 H    5.160095    4.020271   -2.015136
 H    3.463152    4.487919    0.348872
 H    0.129480    4.807489    1.255278
 H   -0.608232    3.929982   -0.735785
 H    0.103572    2.827031   -2.829382
 H    2.485682    2.444307   -3.285137
 H    3.103522   -0.120042    0.934179
 H    3.970157   -0.358799    2.363017
 H    5.054514    1.761875    3.224887
 H    4.970133    3.188828    2.207566
 H    3.399566    3.419918    4.138080
 H    2.494008    3.355672    2.624852
 H    2.973346    1.046494    4.568096
 H    1.431287    1.848376    4.241057
 H    1.788951   -0.400302    3.067069
