64 
1yon_ligand_dft.xyz
 P    0.942389   -1.480264   -0.782160
 O    0.477750   -1.319654   -2.277530
 O    0.170777   -2.424769    0.058984
 O    0.849847    0.038442   -0.217301
 O    2.479739   -1.818649   -0.867175
 C    3.338638   -1.429434   -1.953782
 C    4.498871   -0.603835   -1.449832
 O    4.034191    0.705703   -1.107782
 C    5.226341   -1.159257   -0.208075
 O    6.605267   -1.209293   -0.489578
 C    4.943615   -0.089248    0.858708
 O    6.018309    0.007838    1.766403
 C    4.793676    1.152078   -0.010857
 O    4.111301    2.187297    0.644393
 P    1.057413    0.463345    1.343048
 O    1.951618   -0.430198    2.101808
 O    1.471540    1.975777    1.208581
 O   -0.446580    0.540871    1.848255
 C   -0.836395    0.060281    3.145456
 C   -2.230209   -0.534488    3.052985
 O   -3.196250    0.451568    2.673433
 C   -2.393947   -1.655324    2.031128
 O   -3.470186   -2.449568    2.449714
 C   -2.745476   -0.866709    0.755326
 O   -3.651130   -1.563816   -0.078900
 C   -3.433244    0.399739    1.295975
 N   -2.922156    1.640467    0.693245
 C   -2.484987    1.908237   -0.579344
 N   -2.375090    1.108880   -1.659101
 C   -1.900934    1.744779   -2.733921
 N   -1.550730    3.020357   -2.853703
 C   -1.662472    3.807214   -1.770348
 C   -2.146989    3.257752   -0.569763
 N   -2.365566    3.824497    0.664436
 C   -2.822845    2.833853    1.378413
 N   -1.301558    5.097647   -1.864433
 P   -3.132853   -2.476107   -1.327187
 O   -2.142672   -3.546436   -0.710792
 O   -2.163205   -1.442338   -2.098011
 O   -4.267882   -3.031440   -2.062057
 H   -0.507179   -1.437932   -2.359848
 H    3.713209   -2.355351   -2.397108
 H    2.776843   -0.874057   -2.707771
 H    5.233511   -0.533369   -2.263048
 H    4.842901   -2.142955    0.089354
 H    7.052338   -1.138160    0.367874
 H    3.990314   -0.289880    1.357881
 H    5.668842   -0.038242    2.661697
 H    5.780974    1.514323   -0.332759
 H    4.220297    2.997872    0.130038
 H    2.436892    2.053586    0.993647
 H   -0.840985    0.910852    3.832429
 H   -0.122802   -0.691364    3.494895
 H   -2.515157   -0.893978    4.045611
 H   -1.474116   -2.237193    1.896246
 H   -3.817642   -2.899970    1.667066
 H   -1.829142   -0.606625    0.226515
 H   -4.510947    0.345262    1.121913
 H   -1.790581    1.134542   -3.626751
 H   -3.100778    2.887499    2.420236
 H   -1.028103    5.466553   -2.760813
 H   -1.441222    5.716527   -1.082007
 H   -1.258577   -3.202509   -0.429257
 H   -2.398755   -0.457477   -1.906627
