64 
1yon_ligand_xtb.xyz
 P   -0.529319   -1.840634    0.004948
 O   -0.533934   -2.165259    1.534652
 O    0.709063   -2.150367   -0.717605
 O   -0.812777   -0.253581   -0.046180
 O   -1.766495   -2.582483   -0.601202
 C   -2.897793   -2.970104    0.159128
 C   -3.877595   -1.828836    0.380054
 O   -3.267056   -0.795293    1.126696
 C   -4.371819   -1.152756   -0.920304
 O   -5.419179   -1.830722   -1.528698
 C   -4.754391    0.260614   -0.415491
 O   -6.152209    0.316023   -0.264926
 C   -4.025757    0.374953    0.950528
 O   -3.219995    1.505530    0.986423
 P   -0.801976    0.507281   -1.468955
 O   -1.329013   -0.269888   -2.578497
 O   -1.538552    1.841981   -1.087616
 O    0.708601    0.980179   -1.615147
 C    1.409853    0.843190   -2.847061
 C    2.902003    0.588984   -2.583116
 O    3.500430    1.637952   -1.831741
 C    3.173833   -0.672467   -1.756256
 O    4.466569   -1.130625   -2.023868
 C    3.028626   -0.125675   -0.319679
 O    3.876112   -0.757400    0.596209
 C    3.400682    1.365279   -0.462545
 N    2.403964    2.250296    0.120254
 C    1.389811    2.008362    0.997440
 N    1.140753    0.955320    1.790568
 C   -0.014528    1.034570    2.427652
 N   -0.914597    2.000382    2.372308
 C   -0.640787    3.104479    1.656952
 C    0.573312    3.154892    0.958333
 N    1.100513    4.073374    0.091931
 C    2.160917    3.505153   -0.382285
 N   -1.529666    4.106838    1.635963
 P    3.361841   -2.037600    1.455809
 O    2.890622   -3.131217    0.431021
 O    1.984997   -1.520251    2.117367
 O    4.394630   -2.466657    2.374041
 H    0.365635   -2.064747    1.908606
 H   -3.391225   -3.749638   -0.425456
 H   -2.572944   -3.357546    1.126907
 H   -4.748315   -2.222602    0.931752
 H   -3.541601   -1.095664   -1.631554
 H   -6.247756   -1.493408   -1.156662
 H   -4.396000    1.040511   -1.094611
 H   -6.431148    1.230677   -0.160889
 H   -4.787038    0.433417    1.755541
 H   -2.552669    1.429256    1.709668
 H   -2.206864    1.745692   -0.376202
 H    1.303424    1.781055   -3.400721
 H    0.973510    0.025528   -3.425432
 H    3.432536    0.550551   -3.537954
 H    2.430568   -1.454008   -1.952338
 H    4.804899   -1.569075   -1.229742
 H    1.983371   -0.218315   -0.026069
 H    4.376572    1.563346    0.005501
 H   -0.265294    0.196492    3.063253
 H    2.812552    3.941550   -1.112157
 H   -2.448413    3.952431    2.012559
 H   -1.367057    4.860669    0.991256
 H    2.083417   -2.897378   -0.072901
 H    1.852141   -0.535207    2.115930
