58 
1yp9_ligand_xtb.xyz
 N   -6.765785    1.030218    0.195155
 C   -5.667415    1.194116   -0.417863
 N   -5.594484    2.102705   -1.430824
 C   -4.379173    0.531956   -0.062314
 C   -4.356339   -0.814194    0.287619
 C   -3.172750   -1.419670    0.654939
 C   -1.985962   -0.693248    0.692264
 C   -0.732894   -1.439533    1.076870
 C   -0.225693   -2.437601    0.026297
 C   -0.096549   -1.751336   -1.347484
 O   -0.951819   -1.090883   -1.885750
 N    1.158823   -1.954493   -1.795870
 C    1.774786   -1.080033   -2.777893
 C    2.438758    0.043129   -2.017302
 C    3.814675    0.135409   -1.895678
 C    4.422311    1.088393   -1.076398
 C    3.596461    1.920377   -0.360101
 O    3.910007    2.889933    0.543779
 C    2.689975    3.497985    0.907612
 O    1.621684    2.718129    0.395643
 C    2.204742    1.827862   -0.471762
 C    1.602637    0.915243   -1.300338
 C    1.955866   -2.796080   -0.931004
 C    1.231176   -2.726358    0.418666
 C    1.647031   -1.500838    1.250659
 C    1.939304   -1.724900    2.729603
 C    1.711965   -0.334005    3.318145
 C    0.496245    0.192269    2.547622
 N    0.464675   -0.577489    1.275495
 C   -2.010671    0.656606    0.366946
 C   -3.195926    1.259111   -0.014980
 H   -6.729860    0.404414    0.991518
 H   -4.894202    1.980072   -2.142226
 H   -6.482560    2.473435   -1.729924
 H   -5.269159   -1.390175    0.255469
 H   -3.166763   -2.468493    0.912159
 H   -0.905330   -1.978323    2.016640
 H   -0.863552   -3.317078   -0.044194
 H    2.489375   -1.643847   -3.377385
 H    0.975208   -0.703536   -3.419317
 H    4.442701   -0.535797   -2.460628
 H    5.492934    1.167113   -1.000841
 H    2.639631    4.515329    0.488304
 H    2.613299    3.549990    2.001293
 H    0.534061    0.896655   -1.452774
 H    2.985107   -2.436350   -0.878779
 H    1.966141   -3.822944   -1.312484
 H    1.355875   -3.643696    0.992735
 H    2.484456   -0.969785    0.788091
 H    2.951506   -2.084993    2.893639
 H    1.244177   -2.447314    3.158375
 H    2.583475    0.294590    3.135010
 H    1.531912   -0.359554    4.389659
 H   -0.431593    0.011352    3.090857
 H    0.568208    1.259571    2.340343
 H    0.515184    0.057063    0.465043
 H   -1.121789    1.271559    0.402938
 H   -3.205374    2.308763   -0.265335
