42 
1yqy_ligand_dft.xyz
 C   -1.483726   -1.361986    0.096471
 C   -2.383082   -0.873742   -0.850778
 C   -3.516802   -0.176883   -0.452253
 C   -3.695430    0.000146    0.922522
 C   -2.818400   -0.485080    1.877462
 C   -1.689397   -1.181369    1.458036
 F   -4.778185    0.673632    1.330742
 C   -4.521430    0.373251   -1.426344
 S    0.001680   -2.148103   -0.471158
 N    0.865042   -0.839207   -1.033604
 C    1.577461    0.004387   -0.065971
 C    3.032818   -0.455076    0.014285
 N    3.297672   -1.375742    0.968890
 O    4.549754   -1.973228    0.901866
 O    3.914686   -0.036147   -0.731293
 O    0.654066   -2.717400    0.708219
 O   -0.268457   -2.963498   -1.640528
 C    1.457477    1.485510   -0.431086
 C   -0.009752    1.911653   -0.560024
 C   -0.103351    3.415643   -0.800907
 O    0.537271    4.153056    0.216757
 C    1.912744    3.846155    0.294112
 C    2.151540    2.371758    0.611828
 H   -2.193619   -1.038902   -1.907236
 H   -3.024756   -0.316624    2.928127
 H   -0.981706   -1.583480    2.174230
 H   -5.505126   -0.082077   -1.273144
 H   -4.210964    0.179434   -2.455713
 H   -4.641682    1.453483   -1.298182
 H    1.371412   -1.071536   -1.883461
 H    1.100907   -0.148869    0.909034
 H    2.577088   -2.047948    1.221952
 H    4.968601   -1.478769    0.168297
 H    1.961257    1.633726   -1.396302
 H   -0.500046    1.371648   -1.376304
 H   -0.549001    1.665736    0.365350
 H   -1.145450    3.745987   -0.810467
 H    0.342292    3.661787   -1.780921
 H    2.410278    4.104084   -0.656897
 H    2.326026    4.486721    1.077086
 H    1.741918    2.156691    1.608158
 H    3.227780    2.172028    0.636987
