25 
1ysg_ligand_xtb.xyz
 C   -3.548913   -1.140925    0.429208
 C   -4.231775   -0.012630    0.011967
 C   -3.569155    1.123321   -0.417280
 C   -2.187516    1.126023   -0.421176
 C   -1.469677    0.004434   -0.009218
 C   -2.167460   -1.126329    0.411663
 C    0.705793    1.138496    0.416496
 C    0.000168    0.015304   -0.014777
 C    0.716488   -1.095854   -0.456806
 C    2.097595   -1.095043   -0.455454
 C    2.797872    0.025040   -0.011679
 C    2.084525    1.144765    0.413079
 F   -5.579787   -0.020786    0.023849
 C    4.286176    0.105527    0.008647
 O    4.882097    1.147467    0.002460
 O    4.953032   -1.063775    0.048427
 H   -4.097772   -2.007802    0.761531
 H   -4.133774    1.983415   -0.740727
 H   -1.658673    2.000188   -0.769660
 H   -1.623251   -1.994776    0.751024
 H    0.165471    2.002813    0.771975
 H    0.184003   -1.959432   -0.826853
 H    2.616366   -1.963946   -0.840591
 H    2.638560    2.010091    0.743325
 H    4.361400   -1.825785    0.100216
