60 
1ysi_ligand_xtb.xyz
 C    7.889101   -0.238966    0.890510
 C    8.192401   -1.412579    0.223967
 C    7.272808   -2.045232   -0.593278
 C    6.021308   -1.480787   -0.748119
 C    5.683535   -0.299927   -0.088913
 C    6.630808    0.309240    0.732478
 F    9.417406   -1.954146    0.374636
 C    4.352149    0.298226   -0.262196
 C    3.746928    0.335084   -1.517872
 C    2.500928    0.904272   -1.679654
 C    1.831715    1.463583   -0.593101
 C    2.424593    1.416851    0.666639
 C    3.668576    0.839337    0.826369
 C    0.480940    2.034636   -0.822786
 O   -0.265562    1.636382   -1.693247
 N    0.084501    3.028007    0.017024
 S   -1.485152    3.688050   -0.137703
 C   -2.494345    2.228393   -0.071817
 C   -2.525087    1.509694    1.090372
 C   -3.314733    0.361402    1.189860
 C   -4.104524   -0.067544    0.084592
 C   -4.014268    0.701319   -1.102105
 C   -3.229897    1.820529   -1.180708
 O   -1.614293    4.352238   -1.391291
 O   -1.638038    4.449380    1.063287
 N   -3.260274   -0.340518    2.421336
 O   -2.423851   -0.004617    3.235103
 O   -4.047433   -1.260450    2.620426
 N   -4.904811   -1.138258    0.174398
 C   -5.628722   -1.760411   -0.903369
 C   -4.724377   -2.548843   -1.854630
 S   -3.777006   -3.835966   -0.963463
 C   -2.404863   -2.886050   -0.333972
 C   -2.066966   -3.019025    1.005552
 C   -0.990713   -2.312719    1.514270
 C   -0.257405   -1.472693    0.692040
 C   -0.585634   -1.359867   -0.648826
 C   -1.652204   -2.071348   -1.166102
 H    8.631841    0.229110    1.516906
 H    7.541785   -2.962166   -1.093338
 H    5.289125   -1.973788   -1.369396
 H    6.388093    1.234202    1.233250
 H    4.267218   -0.069617   -2.372754
 H    2.027615    0.936260   -2.649417
 H    1.903484    1.801043    1.531875
 H    4.109361    0.785147    1.810631
 H    0.688086    3.409784    0.725679
 H   -1.956146    1.831174    1.948900
 H   -4.588398    0.400384   -1.962393
 H   -3.155714    2.402958   -2.084296
 H   -4.859111   -1.642269    1.057971
 H   -6.183757   -1.007845   -1.473330
 H   -6.348469   -2.444615   -0.450551
 H   -4.018698   -1.897677   -2.364706
 H   -5.329427   -3.078163   -2.588787
 H   -2.650331   -3.667225    1.641232
 H   -0.735769   -2.409079    2.558708
 H    0.577291   -0.915699    1.091170
 H   -0.014051   -0.719638   -1.300600
 H   -1.880942   -1.995836   -2.218553
