94 
1yt9_ligand_dft.xyz
 N   -5.854505    0.710637    2.641912
 N    2.357341    0.852261    0.256037
 C    2.378634   -0.469485    0.872531
 N    0.436438   -2.776854    0.447033
 N   -3.919671    1.505003   -1.930565
 C    3.697678   -0.716961    1.626157
 N    0.707877    3.279415   -0.487976
 C    0.685000   -2.172388    1.756708
 C   -0.469868    3.456201    0.347834
 O    1.317671   -0.395866    3.108575
 O   -1.000128   -3.052808   -1.591502
 O    0.024466   -0.808002   -1.113690
 O    2.069539    2.065731    2.165173
 C    2.189146    1.998335    0.936076
 C    1.127022   -0.707504    1.752843
 C    2.245845   -4.392681   -0.115742
 C    0.779876   -4.190595    0.287457
 S   -0.584620   -2.039060   -0.630060
 C    4.884323   -0.627974    0.700848
 C    5.549473    0.585268    0.510488
 C    6.600650    0.688024   -0.395374
 C    7.004811   -0.425942   -1.126097
 C    6.354432   -1.642750   -0.940359
 C    5.304041   -1.739232   -0.033030
 C    2.525712   -3.806638   -1.499570
 C    2.596505   -5.880481   -0.058671
 C    2.061470    3.246737    0.047210
 C    0.396881    2.459667   -1.560699
 C    2.441769    4.534977    0.782854
 C    2.169807    5.760647   -0.090702
 C    3.913797    4.479401    1.202981
 N   -0.971430    2.321802   -1.599613
 O    1.207602    1.950388   -2.321410
 C   -1.591434    3.258890   -0.677609
 C   -2.813967   -2.561409    0.880513
 C   -3.929474   -2.192012    1.618646
 C   -4.235131   -0.841049    1.817872
 C   -3.395649    0.141075    1.279361
 C   -2.275779   -0.219217    0.545687
 C   -1.998045   -1.568170    0.349736
 C   -5.438682   -0.494965    2.585293
 C   -1.621118    1.853977   -2.808691
 C   -2.799371    0.965939   -2.528955
 C   -2.875188   -0.361569   -2.818635
 C   -4.839417    0.604362   -1.749438
 S   -4.402984   -0.981317   -2.323213
 O   -6.995541    0.812845    3.411855
 C   -6.152674    0.874969   -1.083848
 H    2.305507    0.901239   -0.756707
 H    2.325136   -1.166843    0.034680
 H    3.647339   -1.708447    2.090759
 H    3.785985    0.007438    2.439588
 H    1.483336   -2.758717    2.220931
 H   -0.196785   -2.254921    2.407195
 H   -0.490881    4.445976    0.809911
 H   -0.513584    2.698051    1.144288
 H    1.583972    0.543453    3.110067
 H    0.323212   -0.091535    1.328071
 H    2.869376   -3.864354    0.621440
 H    0.126882   -4.624264   -0.473811
 H    0.569792   -4.703087    1.235954
 H    5.236805    1.458102    1.078656
 H    7.104676    1.640720   -0.530913
 H    7.823002   -0.347091   -1.835815
 H    6.665919   -2.519126   -1.501709
 H    4.801187   -2.693178    0.109681
 H    2.289660   -2.739054   -1.546011
 H    3.580780   -3.926753   -1.767777
 H    1.920377   -4.312813   -2.260775
 H    2.428589   -6.297662    0.940853
 H    1.985898   -6.450980   -0.769296
 H    3.647509   -6.043415   -0.318075
 H    2.713046    3.129216   -0.825292
 H    1.836328    4.594868    1.695502
 H    1.116550    5.835750   -0.376361
 H    2.446213    6.676707    0.441794
 H    2.758907    5.717419   -1.014895
 H    4.096878    3.654301    1.896897
 H    4.203145    5.408515    1.704550
 H    4.565023    4.355418    0.328260
 H   -2.507091    2.848584   -0.249151
 H   -1.841567    4.202687   -1.185789
 H   -2.589057   -3.608533    0.703874
 H   -4.578692   -2.958039    2.033460
 H   -3.633107    1.188041    1.434613
 H   -1.629857    0.527732    0.094587
 H   -5.980937   -1.290728    3.100667
 H   -1.953076    2.713557   -3.410716
 H   -0.860687    1.309636   -3.371569
 H   -2.117162   -0.998465   -3.252240
 H   -7.198849    1.756096    3.379761
 H   -6.874468    0.075660   -1.269934
 H   -6.017144    0.969752   -0.000841
 H   -6.564081    1.816281   -1.457841
