44 
1yvf_ligand_xtb.xyz
 C   -2.029364   -2.446377   -0.324792
 C   -3.177156   -1.786498   -0.068140
 N   -3.181171   -0.382223   -0.144230
 C   -3.956202    0.584272    0.398625
 O   -4.948721    0.371128    1.088945
 C   -0.720923   -1.873780   -0.595317
 C    0.101914   -2.490244   -1.544523
 C    1.794579   -0.821609   -1.220249
 C   -0.234713   -0.738094    0.056915
 C    1.005630   -0.213155   -0.251227
 C    3.685051    0.548907   -0.820785
 C    4.137291    0.213846    0.455881
 C    4.873729    1.117228    1.203090
 C    5.179207    2.360232    0.678201
 C    4.754637    2.696410   -0.596255
 C    4.010403    1.798175   -1.338227
 C   -4.404973   -2.644483    0.153079
 O   -4.361898   -3.810595   -0.153123
 O   -5.480571   -2.106473    0.678084
 C   -3.489094    1.969326    0.129713
 C   -3.846044    2.952982    1.050023
 C   -3.435943    4.260335    0.871922
 C   -2.675925    4.601897   -0.234755
 C   -2.336861    3.633907   -1.166477
 C   -2.737693    2.322196   -0.989731
 C    1.334936   -1.969483   -1.863386
 O    3.006595   -0.330634   -1.623132
Br    3.777827   -1.514799    1.180753
 H   -2.108131   -3.523171   -0.382359
 H   -2.344414   -0.048460   -0.610956
 H   -0.247890   -3.381826   -2.042038
 H   -0.799912   -0.284219    0.858054
 H    1.361441    0.666719    0.266541
 H    5.212018    0.837064    2.188539
 H    5.755410    3.058932    1.264065
 H    4.998572    3.660823   -1.013713
 H    3.670177    2.040311   -2.333153
 H   -5.376909   -1.138895    0.931439
 H   -4.444442    2.668608    1.902158
 H   -3.711775    5.013802    1.593844
 H   -2.355608    5.622902   -0.378140
 H   -1.760253    3.902356   -2.039093
 H   -2.489061    1.593215   -1.748801
 H    1.966863   -2.437976   -2.600844
