45 
1yvz_ligand_xtb.xyz
 N   -1.156844    2.012508   -0.279902
 C   -1.024827    3.466105   -0.445017
 C   -0.205448    3.821540   -1.684514
 C   -0.436112    4.097462    0.811009
 C   -2.214629    1.379103   -0.875438
 O   -3.108724    1.976484   -1.428873
 C   -2.195383   -0.116425   -0.722894
 C   -3.060056   -0.734741    0.173091
 C   -3.038513   -2.105577    0.348104
 C   -2.154574   -2.872015   -0.397112
 C   -1.316812   -2.285464   -1.333375
 C   -1.350847   -0.910582   -1.491503
Cl   -2.101674   -4.577887   -0.177566
Cl   -0.347642   -0.185911   -2.690933
 C   -0.118211    1.267628    0.324466
 C   -0.258629    0.603901    1.531428
 S    1.158396   -0.297143    1.925556
 C    1.960532    0.244838    0.487352
 C    1.147926    1.067566   -0.252952
 C   -1.363048    0.550868    2.492967
 O   -1.376248   -0.217783    3.417277
 O   -2.364816    1.432230    2.308479
 C    3.311449   -0.180034    0.177027
 C    4.121964   -0.737048    1.168055
 C    5.411058   -1.138242    0.879507
 C    5.914784   -0.993648   -0.403392
 C    5.116893   -0.450954   -1.397590
 C    3.826358   -0.047626   -1.114910
 H   -2.050370    3.822582   -0.598936
 H   -0.330631    4.876953   -1.910878
 H    0.852565    3.629937   -1.524296
 H   -0.551303    3.244734   -2.538826
 H    0.574005    3.732916    0.988549
 H   -0.392459    5.175360    0.681697
 H   -1.042401    3.886812    1.689809
 H   -3.750184   -0.133307    0.744475
 H   -3.697945   -2.574531    1.059775
 H   -0.651307   -2.887549   -1.930765
 H    1.441953    1.511725   -1.184260
 H   -2.234262    1.987016    1.523779
 H    3.729994   -0.845579    2.168905
 H    6.026469   -1.564950    1.657221
 H    6.923071   -1.306509   -0.628624
 H    5.501508   -0.345076   -2.400993
 H    3.208296    0.353390   -1.902670
