93 
1ywi_ligand_dft.xyz
 N    1.334762   -0.927124    1.828242
 C    0.359544   -2.023197    2.228217
 C   -0.862150   -1.820737    1.324945
 O   -1.602233   -0.872049    1.583406
 C    0.049303   -1.751440    3.709638
 C    0.455786   -0.290839    3.937921
 C    1.680761   -0.126762    3.048931
 N   -1.002355   -2.617075    0.259574
 C   -2.013214   -2.314320   -0.760362
 C   -3.385931   -2.076664   -0.118993
 O   -3.798217   -2.822833    0.751668
 C   -1.997106   -3.560899   -1.650209
 C   -0.541526   -4.023545   -1.567663
 C   -0.180837   -3.781867   -0.100557
 N   -4.086091   -1.003006   -0.570122
 C   -3.820830   -0.225701   -1.782127
 C   -2.713151    0.827539   -1.661930
 O   -2.303554    1.403436   -2.660343
 C   -5.177588    0.452945   -2.057764
 C   -5.773243    0.622991   -0.657582
 C   -5.379984   -0.677537    0.041561
 N   -2.258324    1.101473   -0.413282
 C   -1.144921    2.005819   -0.272756
 C    0.156219    1.352959   -0.727490
 O    0.402648    0.156016   -0.480255
 C   -0.961046    2.429063    1.191571
 C   -2.183132    3.110009    1.820585
 C   -1.882020    3.446092    3.282891
 C   -2.608764    4.358179    1.045314
 N    1.081967    2.109670   -1.321592
 C    2.396925    1.535852   -1.543139
 C    3.073781    1.300193   -0.182099
 O    2.783064    1.976559    0.796733
 C    3.128158    2.623583   -2.352105
 C    2.477454    3.922819   -1.861648
 C    1.009451    3.539112   -1.650722
 N    4.053809    0.360447   -0.121341
 C    4.403357   -0.592154   -1.157446
 C    3.472135   -1.797686   -1.128227
 O    3.394521   -2.391021   -2.312309
 C    5.831165   -1.026342   -0.761279
 C    5.798759   -0.964233    0.769374
 C    4.907154    0.244638    1.069723
 O    2.903279   -2.216723   -0.137184
 H    2.153194   -1.319194    1.339361
 H    0.889383   -0.326130    1.098556
 H    0.855650   -2.980876    2.080188
 H   -1.005369   -1.927084    3.924712
 H    0.647753   -2.418942    4.336749
 H   -0.345722    0.377000    3.613800
 H    0.686461   -0.075109    4.982906
 H    1.916989    0.891495    2.736050
 H    2.564341   -0.583785    3.503072
 H   -1.657321   -1.437706   -1.309369
 H   -2.324397   -3.343500   -2.669396
 H   -2.664641   -4.314641   -1.220230
 H   -0.404185   -5.067264   -1.858633
 H    0.085210   -3.396274   -2.213145
 H    0.883275   -3.571049    0.025458
 H   -0.458569   -4.640467    0.521494
 H   -3.536267   -0.869015   -2.620279
 H   -5.800768   -0.218658   -2.656881
 H   -5.052787    1.385839   -2.610200
 H   -5.311986    1.479304   -0.152969
 H   -6.854019    0.777539   -0.671465
 H   -6.098911   -1.482542   -0.149779
 H   -5.263005   -0.583402    1.123416
 H   -2.400825    0.415637    0.323724
 H   -1.351704    2.872994   -0.902617
 H   -0.716309    1.528669    1.768105
 H   -0.089074    3.094079    1.256595
 H   -3.014212    2.393436    1.799882
 H   -2.758149    3.881963    3.772965
 H   -1.062505    4.171502    3.356816
 H   -1.594368    2.551493    3.847547
 H   -3.441643    4.859959    1.548043
 H   -2.939320    4.117878    0.029307
 H   -1.782300    5.077570    0.977144
 H    2.292376    0.600201   -2.095919
 H    2.932724    2.469060   -3.417738
 H    4.210533    2.604785   -2.198864
 H    2.918845    4.225981   -0.908483
 H    2.589693    4.743573   -2.572472
 H    0.408369    3.674547   -2.556002
 H    0.554309    4.105765   -0.835533
 H    4.387232   -0.154796   -2.157508
 H    2.841158   -3.185510   -2.227369
 H    6.535035   -0.293474   -1.166493
 H    6.098841   -2.007648   -1.159319
 H    6.794750   -0.857039    1.202692
 H    5.352409   -1.877177    1.174745
 H    4.302197    0.115503    1.970335
 H    5.478130    1.170496    1.193505
