65 
1ywr_ligand_dft.xyz
 C   -0.488492    1.836052    0.125161
 C    0.577644    4.268707   -0.718491
 C    0.793532    1.870770   -0.440869
 C   -1.243676    2.993150    0.252302
 C   -0.696335    4.194536   -0.174289
 C    1.318504    3.100605   -0.851495
 C    1.572049    0.631308   -0.599116
 F   -1.415565    5.315000   -0.050894
 N    3.276435   -0.855871   -0.540289
 C    4.441872   -1.588197   -0.040338
 C    2.127262   -2.789745   -1.532514
 C    1.103560   -0.626081   -0.880235
 C   -0.278732   -0.996501   -1.260695
 O    3.814331    1.345107    0.012637
 C    2.975700    0.482238   -0.348520
 N    2.093733   -1.557725   -0.756205
 C    6.461118   -0.276919    0.849799
 C    4.500712   -0.666834    2.355753
 C    4.347399   -1.902787    1.461814
 C    5.774911   -0.872952   -0.384530
 N    5.421189    0.337688    1.723788
 N   -0.923688   -1.803412   -0.419332
 C   -2.199021   -0.759861   -2.593486
 N   -2.937702   -2.724198    0.212577
 C   -0.860502   -0.432184   -2.387283
 C   -2.228603   -1.998977   -0.691887
 N   -2.891065   -1.523284   -1.761959
 C   -4.369321   -2.463412    0.401850
 C   -4.616125   -0.995449    0.729180
 C   -4.901067   -3.404016    1.479644
 C   -5.013810    1.721840    1.288012
 C   -5.474283   -0.228170   -0.055651
 C   -3.953902   -0.384392    1.797099
 C   -4.149385    0.964196    2.076760
 C   -5.676536    1.121300    0.221840
 H   -0.908856    0.899644    0.479843
 H    0.971087    5.227712   -1.036227
 H   -2.241356    2.966432    0.677071
 H    2.314463    3.145618   -1.278797
 H    4.435566   -2.538665   -0.574367
 H    1.094567   -3.100908   -1.685579
 H    2.629260   -3.582868   -0.974721
 H    2.616245   -2.638702   -2.500710
 H    7.165607    0.505970    0.565121
 H    6.998328   -1.029197    1.433358
 H    3.548049   -0.154939    2.507632
 H    4.905246   -0.944429    3.330823
 H    3.389477   -2.380947    1.683632
 H    5.129208   -2.632536    1.697416
 H    6.464356   -1.592566   -0.832239
 H    5.595290   -0.092668   -1.125407
 H    5.836516    0.940213    2.434694
 H    4.801091    0.933705    1.061616
 H   -2.738075   -0.379925   -3.458187
 H   -2.410809   -2.934561    1.049798
 H   -0.318544    0.239946   -3.040081
 H   -4.863623   -2.692740   -0.545407
 H   -4.724036   -4.447674    1.203258
 H   -5.975045   -3.251390    1.610195
 H   -4.420761   -3.211168    2.446442
 H   -5.173311    2.773482    1.506990
 H   -5.975477   -0.688081   -0.903067
 H   -3.275536   -0.965487    2.418490
 H   -3.635786    1.423006    2.916952
 H   -6.346845    1.706139   -0.400544
