81 
1z1r_ligand_xtb.xyz
 C   -0.166235   -1.687947   -0.585290
 C   -0.999638   -2.452934   -1.635961
 C   -2.448309   -2.424803   -1.244147
 C   -4.186021   -2.883971    0.364355
 C   -2.898249   -3.072800   -0.098570
 C   -6.830575   -0.521304    0.234055
 C   -6.667748    0.151059    1.602334
 C   -5.201668    0.257192    2.031625
 C   -4.412224    1.172949    1.110729
 C   -2.406622    1.367265   -0.280765
 C   -1.393417    0.431592   -0.964788
 N    3.131270    0.171827   -0.680267
 C    3.092194    1.605482   -0.510331
 C    1.949815    4.420979   -0.117997
 C    1.093146    4.296654   -2.473209
 C    5.104521   -1.076754    0.740320
 C   -3.353839   -1.650991   -1.958143
 C   -4.645286   -1.455257   -1.505520
 C   -5.059852   -2.030879   -0.309088
 O   -6.299233   -1.835575    0.240314
 O   -4.754603    2.312257    0.858986
 N   -3.276586    0.632683    0.617241
 C   -1.748944    2.557730    0.440378
 C   -1.016580    2.208483    1.719266
 O   -0.762150    1.081057    2.100996
 N   -0.627645    3.290773    2.423970
 O   -1.140338    0.550267   -2.144483
 N   -0.881567   -0.504074   -0.145707
 C    1.237499   -1.371114   -1.139043
 O    1.819402   -2.600368   -1.480198
 C    2.079422   -0.621450   -0.084115
 C    2.030760    2.239560   -1.410227
 C    2.132339    3.766309   -1.486789
 S    4.597254   -0.565113   -0.900848
 O    5.514590    0.417282   -1.393005
 O    4.385862   -1.750614   -1.688350
 C    4.928561   -2.387011    1.142109
 C    5.282849   -2.750527    2.431972
 C    5.805038   -1.803094    3.298137
 C    5.980535   -0.491900    2.881884
 C    5.624764   -0.124028    1.594982
 H   -0.039051   -2.319811    0.298868
 H   -0.872428   -1.969454   -2.603363
 H   -0.608427   -3.467488   -1.698943
 H   -4.531835   -3.376824    1.260570
 H   -2.226190   -3.717075    0.449520
 H   -7.895277   -0.613259   -0.002742
 H   -6.352794    0.099030   -0.528688
 H   -7.096566    1.152143    1.541795
 H   -7.216026   -0.424753    2.349301
 H   -5.163650    0.696766    3.031370
 H   -4.748818   -0.732937    2.073360
 H   -3.020640    1.795534   -1.085363
 H    2.910721    1.854601    0.544071
 H    4.078597    1.968749   -0.801676
 H    1.031802    4.075342    0.352408
 H    1.896569    5.502417   -0.223472
 H    2.782111    4.187745    0.540578
 H    1.248269    3.864410   -3.457815
 H    1.160658    5.378879   -2.558154
 H    0.087352    4.037565   -2.149237
 H   -3.038572   -1.175149   -2.874029
 H   -5.322959   -0.847111   -2.085716
 H   -3.052436   -0.333013    0.797606
 H   -2.544630    3.265443    0.686872
 H   -1.054360    3.048593   -0.245208
 H   -0.167550    3.155317    3.309528
 H   -0.902653    4.221621    2.164894
 H   -0.935371   -0.314459    0.850132
 H    1.131225   -0.724992   -2.022446
 H    2.745136   -2.432971   -1.740237
 H    2.515195   -1.364702    0.595190
 H    1.437675    0.040913    0.500680
 H    1.036680    1.951502   -1.063450
 H    2.156208    1.827710   -2.412340
 H    3.128467    4.025666   -1.861317
 H    4.532883   -3.102287    0.437968
 H    5.152929   -3.771002    2.758663
 H    6.082299   -2.088320    4.301926
 H    6.395094    0.240223    3.558130
 H    5.760340    0.883397    1.234615
