31 
1z34_ligand_xtb.xyz
 O    1.765713    2.278785   -0.121089
 C    2.475521    1.769104    0.965796
 C    2.843606    0.278131    0.818691
 O    1.744542   -0.555815    1.177049
 C    1.343782   -1.349729    0.089934
 N   -0.094351   -1.421865    0.060584
 C   -0.976890   -0.387746   -0.029787
 N   -0.745485    0.922626   -0.169605
 C   -1.858980    1.620206   -0.213121
 F   -1.694294    2.932825   -0.345640
 N   -3.107800    1.220392   -0.147461
 C   -3.355591   -0.086853   -0.014995
 N   -4.627141   -0.496066    0.046797
 C   -2.256744   -0.963325    0.049491
 N   -2.140239   -2.322390    0.189926
 C   -0.864727   -2.546299    0.201116
 C    1.947067   -0.717000   -1.168454
 C    3.229113   -0.087681   -0.629725
 O    4.254971   -1.050749   -0.698455
 H    0.868753    1.890794   -0.126463
 H    1.921187    1.886616    1.905792
 H    3.400093    2.351094    1.028298
 H    3.664219    0.046387    1.511537
 H    1.709348   -2.380586    0.227471
 H   -4.823169   -1.473487    0.165281
 H   -5.362608    0.187080    0.011106
 H   -0.427092   -3.519982    0.301406
 H    1.283597    0.055541   -1.553040
 H    2.163146   -1.453050   -1.938059
 H    3.502572    0.814114   -1.190113
 H    5.074962   -0.669447   -0.367859
