52 
1z3c_ligand_dft.xyz
 N   -3.245565   -0.442609    1.226646
 C   -2.886199    0.946840    0.787683
 C   -3.942759    1.482570   -0.183437
 O   -3.696931    2.337028   -0.989485
 O   -5.122244    0.903687    0.024056
 C   -1.471136    1.002924    0.192669
 C   -1.002469    2.439727   -0.101776
 N    0.482842    2.589886    0.101183
 C    0.881717    4.034202    0.113334
 C    1.329890    1.782441   -0.856395
 C    2.572802    1.295817   -0.110760
 O    2.110010    0.741392    1.121128
 C    3.358304    0.204197   -0.862251
 O    4.584677    0.748353   -1.276312
 C    3.554032   -0.896209    0.220920
 O    4.732795   -0.667484    0.927196
 C    2.427545   -0.638821    1.226821
 N    1.202897   -1.419675    1.060859
 C    0.296779   -1.600058    2.077089
 N   -0.873960   -2.038382    1.683122
 C   -0.727273   -2.184214    0.313226
 C   -1.630265   -2.504624   -0.709085
 N   -2.969398   -2.778180   -0.435778
 N   -1.246312   -2.410329   -1.975421
 C    0.010085   -2.021340   -2.237549
 N    0.951970   -1.675527   -1.360179
 C    0.540448   -1.777344   -0.097695
 H   -4.122477   -0.433919    1.757261
 H   -2.498321   -0.887972    1.802000
 H   -3.380947   -1.123992    0.435133
 H   -2.932406    1.567273    1.690642
 H   -5.790960    1.291203   -0.570686
 H   -0.789081    0.546346    0.918760
 H   -1.435613    0.397717   -0.718303
 H   -1.472200    3.160721    0.572121
 H   -1.231539    2.745658   -1.122366
 H    0.711381    2.188984    1.022038
 H    0.386385    4.535379    0.945505
 H    0.580905    4.486970   -0.832358
 H    1.962716    4.104453    0.235257
 H    0.742562    0.924041   -1.186954
 H    1.570750    2.406425   -1.719915
 H    3.255502    2.119542    0.120405
 H    2.783890   -0.197672   -1.699306
 H    4.889232    0.306012   -2.079172
 H    3.507404   -1.906636   -0.204419
 H    5.343248   -0.198895    0.334070
 H    2.792089   -0.828176    2.236768
 H    0.558254   -1.379438    3.104802
 H   -3.101385   -3.441415    0.325145
 H   -3.462578   -3.087183   -1.271052
 H    0.280413   -1.972174   -3.287823
