58 
1z4u_ligand_xtb.xyz
 C    0.201999    2.539477    0.427967
 C   -0.747138    2.930702    1.375206
 C   -1.988226    2.335129    1.424993
 C   -2.321849    1.351802    0.499335
 C   -1.390777    0.954850   -0.455792
 C   -0.144087    1.540827   -0.484770
 C    2.670844    2.720548   -0.016963
 C    1.480966    3.221946    0.376981
 N    2.933469    1.376909   -0.278959
 C    2.503142    0.331856    0.504724
 C    3.898252    3.543919   -0.239405
 O    1.676304    0.469094    1.375389
 O    3.835446    4.861198   -0.029894
 O    4.917179    3.029529   -0.632969
 O   -3.557222    0.769360    0.617305
 C   -4.266926    0.418488   -0.487804
 C   -5.189691   -0.619485   -0.351126
 C   -6.004048   -0.999081   -1.400664
 C   -5.903682   -0.340151   -2.614105
 C   -5.001022    0.699370   -2.761530
 C   -4.189309    1.081293   -1.708787
Br   -5.306735   -1.498052    1.328416
 C    2.962978   -3.766900   -0.816974
 C    3.114679   -3.454597    0.670697
 C    3.651156   -2.674912   -1.633775
 C    2.473149   -2.103961    0.975105
 C    3.004720   -1.320844   -1.335450
 C    3.156361   -1.002703    0.157517
 C    5.134922   -2.623386   -1.271666
 C    5.284275   -2.316811    0.217918
 C    4.597214   -3.408472    1.036171
 C    4.647179   -0.961520    0.526207
 H   -0.497195    3.696888    2.094309
 H   -2.714790    2.618147    2.170432
 H   -1.643523    0.178065   -1.163446
 H    0.565574    1.236074   -1.238304
 H    1.433748    4.254134    0.708792
 H    3.818901    1.259535   -0.764725
 H    2.969997    5.152421    0.287129
 H   -6.706563   -1.806502   -1.265057
 H   -6.534061   -0.636397   -3.437634
 H   -4.929710    1.225475   -3.701110
 H   -3.497810    1.903654   -1.818779
 H    1.904071   -3.817777   -1.080064
 H    3.411284   -4.736868   -1.042835
 H    2.616047   -4.231230    1.260393
 H    3.543863   -2.894150   -2.702306
 H    2.561249   -1.871221    2.037508
 H    1.408265   -2.124744    0.734846
 H    1.943637   -1.350975   -1.595504
 H    3.479955   -0.552149   -1.948991
 H    5.638278   -1.855145   -1.863408
 H    5.604715   -3.582202   -1.500995
 H    6.347907   -2.278049    0.477879
 H    5.062957   -4.374783    0.830646
 H    4.710691   -3.201481    2.102412
 H    4.752135   -0.733473    1.589568
 H    5.167696   -0.181546   -0.035303
