36 
1z6d_ligand_dft.xyz
 P   -0.255372    2.322831   -0.637697
 O   -1.289392    1.695848   -1.472168
 O   -0.706815    2.783162    0.824980
 O    0.465061    3.654932   -1.171460
 O    1.006005    1.353550   -0.475276
 C    2.197672    1.638802    0.253253
 C    2.899978    0.322032    0.562370
 O    2.183030   -0.426393    1.553189
 C    3.034956   -0.639255   -0.620848
 O    4.109674   -1.506965   -0.363427
 C    1.704800   -1.397415   -0.573840
 O    1.852676   -2.690591   -1.092445
 C    1.371122   -1.383621    0.940687
 N   -0.033029   -1.014286    1.164701
 C   -0.477378   -0.032286    2.000232
 N   -1.741759    0.273217    1.818802
 C   -2.154253   -0.571545    0.816304
 C   -3.428076   -0.656842    0.142595
 O   -4.459996   -0.052058    0.324139
 N   -3.342154   -1.649853   -0.879628
 C   -2.248576   -2.384105   -1.204385
 N   -1.101009   -2.308039   -0.600496
 C   -1.108071   -1.373785    0.397935
 H   -1.338130    2.141668    1.221291
 H   -0.159775    4.384764   -1.276845
 H    1.956674    2.153038    1.189414
 H    2.843756    2.280777   -0.354801
 H    3.884007    0.541314    0.985385
 H    3.162479   -0.108188   -1.573893
 H    3.882596   -2.351587   -0.779993
 H    0.951652   -0.831305   -1.123538
 H    0.949160   -3.034868   -1.186452
 H    1.558685   -2.362227    1.390816
 H    0.190757    0.454725    2.693519
 H   -4.189927   -1.759828   -1.421969
 H   -2.370680   -3.081794   -2.027185
