59 
1z6e_ligand_xtb.xyz
 F   -5.578428    4.008728   -0.932077
 F   -3.812678    5.112343   -0.382095
 F   -5.136333    4.371851    1.142899
 O   -4.770813   -4.515697    0.757535
 O   -0.862088   -0.582452   -0.564626
 N   -5.880814   -4.583162   -0.058458
 N   -7.059567   -3.160803   -1.494858
 N   -3.379045    0.736854    0.168053
 N   -4.349079    1.622239    0.167639
 N    0.218910    1.312306    0.081749
 C   -4.296258   -3.266631    0.734801
 C   -5.089274   -2.471807   -0.116604
 C   -6.087457   -3.405686   -0.584779
 C   -3.207903   -2.741892    1.423136
 C   -2.921396   -1.411172    1.224434
 C   -3.688712   -0.626731    0.350674
 C   -4.789609   -1.132953   -0.316403
 C   -3.780262    2.810060    0.010992
 C   -2.391986    2.687205   -0.086128
 C   -2.158495    1.319833    0.017296
 C   -4.584510    4.064919   -0.039817
 C   -0.916269    0.558656   -0.178687
 C    1.501588    0.795322   -0.061519
 C    1.832416   -0.461888    0.460429
 C    3.078779   -1.021164    0.264337
 C    4.044410   -0.310464   -0.439717
 C    3.757492    0.964590   -0.914491
 C    2.499417    1.503896   -0.726146
 N    5.297767   -0.911919   -0.671929
 C    5.476824   -2.188532   -1.135968
 C    6.823344   -2.381451   -1.232153
 N    7.473473   -1.258943   -0.834624
 C    6.545421   -0.388661   -0.510441
 F    0.959612   -1.122501    1.223948
 C    6.822307    0.979444    0.032249
 N    8.087673    1.020667    0.820285
 C    9.269177    0.853413   -0.050691
 C    8.096756    0.023258    1.906180
 H   -7.756810   -3.879809   -1.595244
 H   -7.374087   -2.210982   -1.595832
 H    0.124166    2.316644    0.107627
 H   -2.623537   -3.354771    2.087836
 H   -2.097003   -0.962642    1.755270
 H   -5.374401   -0.499899   -0.964122
 H   -1.699101    3.488964   -0.239451
 H    3.287310   -1.997030    0.673549
 H    4.494681    1.514470   -1.477999
 H    2.273642    2.482179   -1.121527
 H    4.651243   -2.823370   -1.376990
 H    7.367328   -3.243516   -1.555934
 H    5.986877    1.287169    0.668944
 H    6.921518    1.703781   -0.783534
 H    8.141005    1.950925    1.249080
 H    9.168499   -0.102004   -0.571176
 H    9.318851    1.659559   -0.779098
 H   10.177064    0.859717    0.547450
 H    7.209173    0.129154    2.527271
 H    8.116654   -0.973582    1.469316
 H    8.980546    0.156388    2.526318
