82 
1z6f_ligand_dft.xyz
 O    2.833987   -0.323239   -1.054602
 C    3.716651   -0.893728   -0.428863
 O    5.028763   -0.701048   -0.586327
 C    5.541034    0.260444   -1.561435
 C    5.125254   -0.145715   -2.973897
 C    5.073560    1.669276   -1.199788
 C    7.051593    0.131695   -1.386279
 N    3.502126   -1.844283    0.519696
 C    2.215250   -2.061204    1.146673
 C    2.470454   -2.247921    2.633583
 O    1.330114   -2.284916    3.337689
 O    3.560273   -2.379254    3.136993
 C    1.474876   -3.297164    0.590230
 C    0.946171   -3.097942   -0.835364
 C   -0.248258   -2.155385   -0.839551
 O   -1.367763   -2.561233   -0.516375
 N    0.025877   -0.881490   -1.153300
 C   -0.959495    0.179819   -1.123801
 C   -2.169088   -0.203438   -1.988582
 O   -2.041614   -0.534671   -3.157322
 N   -3.355888   -0.087477   -1.347800
 C   -4.615531   -0.569719   -1.906571
 C   -5.710601    0.490648   -1.761338
 B   -5.005156   -1.990621   -1.283545
 O   -4.119327   -2.828318   -0.686396
 O   -6.319107   -2.372510   -1.350591
 C   -0.314325    1.460701   -1.650400
 C   -1.263701    2.656255   -1.584833
 C   -0.579141    3.997006   -1.860607
 C    0.454073    4.410718   -0.803971
 N   -0.094480    4.455561    0.538996
 C    0.032810    3.411617    1.399611
 O    0.799547    2.475236    1.281204
 O   -0.810942    3.576562    2.447102
 C   -0.824949    2.496542    3.386345
 C   -1.592186    1.302566    2.874651
 C   -0.973767    0.057729    2.761188
 C   -1.685046   -1.049317    2.310819
 C   -3.028138   -0.922304    1.964579
 C   -3.652332    0.320172    2.071747
 C   -2.936240    1.428008    2.519697
 H    5.642860    0.490063   -3.699465
 H    4.049510   -0.036990   -3.117171
 H    5.408088   -1.185386   -3.167757
 H    3.993658    1.770247   -1.318086
 H    5.570119    2.394087   -1.853148
 H    5.339525    1.902285   -0.163811
 H    7.341029    0.374040   -0.359355
 H    7.379274   -0.888502   -1.607799
 H    7.565960    0.818320   -2.065303
 H    4.305198   -2.126003    1.067760
 H    1.591752   -1.167760    1.016768
 H    1.571895   -2.431418    4.266526
 H    0.634044   -3.545834    1.245554
 H    2.172416   -4.141819    0.609392
 H    0.593769   -4.057995   -1.220530
 H    1.742940   -2.736952   -1.492370
 H    0.997329   -0.625645   -1.311919
 H   -1.274985    0.344563   -0.085126
 H   -3.319616    0.052937   -0.347365
 H   -4.413259   -0.723246   -2.973538
 H   -5.904641    0.717773   -0.705651
 H   -6.646990    0.129642   -2.195132
 H   -5.421154    1.421539   -2.260196
 H   -3.179746   -2.560387   -0.716149
 H   -6.416620   -3.259094   -0.981894
 H    0.577683    1.648122   -1.044035
 H    0.001643    1.288307   -2.686325
 H   -1.743798    2.690129   -0.596835
 H   -2.074261    2.517091   -2.309162
 H   -1.344486    4.781528   -1.931330
 H   -0.076604    3.967339   -2.836091
 H    1.292399    3.711822   -0.773756
 H    0.862143    5.397319   -1.048443
 H   -0.862963    5.084050    0.721702
 H    0.201758    2.218865    3.637063
 H   -1.306813    2.923269    4.269284
 H    0.077341   -0.042255    3.014070
 H   -1.189500   -2.008189    2.207971
 H   -3.573533   -1.780267    1.583754
 H   -4.701810    0.426339    1.808563
 H   -3.424238    2.395981    2.599857
