82 
1z6f_ligand_xtb.xyz
 O    2.179077   -1.543521   -0.096297
 C    3.113911   -1.291877    0.634481
 O    4.355404   -1.774158    0.508689
 C    4.689591   -2.679045   -0.573183
 C    3.871290   -3.965324   -0.461677
 C    4.463135   -1.997993   -1.922965
 C    6.175790   -2.969205   -0.362327
 N    3.032384   -0.523047    1.744706
 C    1.972308    0.425972    2.007595
 C    2.628436    1.705053    2.497552
 O    1.760917    2.693104    2.707784
 O    3.805887    1.818136    2.715470
 C    0.999499   -0.080047    3.091173
 C    0.157914   -1.276762    2.636202
 C   -0.907582   -0.818648    1.648324
 O   -1.969731   -0.343890    2.031804
 N   -0.559429   -0.955910    0.368917
 C   -1.275385   -0.397041   -0.766860
 C   -2.517461   -1.253250   -1.098094
 O   -2.602997   -1.931047   -2.106113
 N   -3.486182   -1.123186   -0.184875
 C   -4.643602   -2.007558   -0.192134
 C   -5.680481   -1.465312    0.791019
 B   -4.224234   -3.537336    0.109441
 O   -5.136952   -4.502114   -0.149428
 O   -2.995809   -3.772835    0.616347
 C   -0.305232   -0.332024   -1.942075
 C   -0.766072    0.626785   -3.033842
 C    0.309941    0.856659   -4.097161
 C    1.568031    1.548255   -3.552331
 N    1.263611    2.803683   -2.904326
 C    1.075529    2.901178   -1.569513
 O    1.445725    2.102944   -0.741700
 O    0.458291    4.072547   -1.279251
 C    0.045086    4.236899    0.073885
 C   -1.268248    3.547503    0.351923
 C   -1.533012    3.028702    1.612087
 C   -2.743392    2.411707    1.872844
 C   -3.690306    2.288397    0.870068
 C   -3.428499    2.793866   -0.391266
 C   -2.226383    3.431249   -0.646311
 H    4.208292   -4.677575   -1.209360
 H    2.817256   -3.757473   -0.622966
 H    3.998254   -4.403544    0.526089
 H    3.405282   -1.801812   -2.073663
 H    4.820172   -2.642196   -2.721474
 H    5.004972   -1.055351   -1.959494
 H    6.744254   -2.044247   -0.405739
 H    6.331892   -3.424075    0.612094
 H    6.535587   -3.644897   -1.132318
 H    3.911491   -0.304771    2.199206
 H    1.429052    0.650414    1.081885
 H    2.225410    3.482093    3.033133
 H    0.328584    0.735572    3.364203
 H    1.584594   -0.362308    3.969931
 H   -0.350367   -1.692988    3.506972
 H    0.794481   -2.040710    2.193033
 H    0.358538   -1.334651    0.151299
 H   -1.626599    0.606467   -0.491248
 H   -3.228779   -0.708840    0.709968
 H   -5.063495   -1.966808   -1.204590
 H   -5.259444   -1.432888    1.793241
 H   -6.553798   -2.110892    0.796549
 H   -5.983624   -0.460725    0.505174
 H   -4.874723   -5.410828    0.007485
 H   -2.733541   -4.684987    0.747285
 H    0.659296   -0.009598   -1.552930
 H   -0.201362   -1.335483   -2.358222
 H   -1.040983    1.582416   -2.579986
 H   -1.658601    0.218302   -3.509388
 H   -0.108371    1.470677   -4.899151
 H    0.606910   -0.100056   -4.528282
 H    2.064642    0.922059   -2.810783
 H    2.267117    1.740447   -4.371604
 H    0.814586    3.512762   -3.464553
 H    0.817760    3.845021    0.742382
 H   -0.050081    5.318527    0.213365
 H   -0.782266    3.104699    2.384557
 H   -2.940918    2.006942    2.852255
 H   -4.626737    1.791637    1.070823
 H   -4.159587    2.693194   -1.179942
 H   -2.023989    3.840228   -1.626315
