61 
1z6q_ligand_dft.xyz
 C    0.281915   -1.001491   -1.037386
 C   -0.392712    0.220975   -1.007063
 C   -1.772934    0.232508   -0.844250
 C   -2.491792   -0.956654   -0.704034
 C   -1.808517   -2.176420   -0.712465
 C   -0.430238   -2.183918   -0.882094
 O    1.623962   -1.001310   -1.322951
 C    2.490639   -1.646719   -0.489466
 C    3.663065   -2.115704   -1.068182
 C    4.650038   -2.740615   -0.310420
 C    4.413934   -2.942449    1.067032
 C    3.219078   -2.465635    1.625956
 C    2.261704   -1.808008    0.873154
 C    5.374761   -3.600581    2.005460
 O    4.836999   -4.364175    2.966127
 O    6.579374   -3.457875    1.982771
 C    5.848213   -3.186296   -1.147731
 O    7.040416   -3.276956   -0.580525
 O    5.700275   -3.397592   -2.327998
 N    0.316016    1.432282   -1.170455
 C    1.315111    1.821192   -0.310486
 C    1.995517    3.111498   -0.661998
 O    1.626622    1.178976    0.675003
 C    2.545579    3.847512    0.385767
 C    3.188132    5.038341    0.093481
 C    3.324694    5.513902   -1.205128
 C    2.794945    4.760342   -2.244531
 C    2.131424    3.566016   -1.975683
 N    3.752539    5.828828    1.199618
 O    4.328017    6.866428    0.912633
 O    3.607209    5.399233    2.331672
 N   -3.885892   -0.846991   -0.536899
 C   -4.806935   -1.854273   -0.407523
 O   -4.539282   -3.041618   -0.469633
 C   -6.224308   -1.392475   -0.196712
 C   -6.550925   -0.172653    0.390553
 C   -7.889811    0.152318    0.554942
 C   -8.915598   -0.694666    0.161410
 C   -8.578736   -1.917334   -0.410120
 C   -7.244739   -2.267220   -0.580387
 N   -8.226286    1.442440    1.174808
 O   -7.300756    2.174944    1.489868
 O   -9.407249    1.703215    1.331014
 H   -2.283101    1.192156   -0.803485
 H   -2.355562   -3.101712   -0.606041
 H    0.103891   -3.128077   -0.914828
 H    3.814726   -2.004509   -2.135084
 H    3.052750   -2.556510    2.696151
 H    1.375077   -1.392413    1.335371
 H    3.896066   -4.503947    2.792357
 H    7.006399   -3.131865    0.392272
 H   -0.064703    2.115388   -1.807687
 H    2.472975    3.489957    1.405655
 H    3.843176    6.447941   -1.382357
 H    2.907749    5.100288   -3.268364
 H    1.754189    2.969285   -2.801287
 H   -4.249815    0.092355   -0.590578
 H   -5.804632    0.521443    0.760197
 H   -9.945890   -0.396238    0.310367
 H   -9.362847   -2.599871   -0.719629
 H   -6.968810   -3.224710   -1.008932
