61 
1z6q_ligand_xtb.xyz
 C    0.150086   -1.073492   -0.968893
 C   -0.498566    0.166611   -0.919381
 C   -1.875674    0.212234   -0.766384
 C   -2.615904   -0.958235   -0.619289
 C   -1.959560   -2.186851   -0.620417
 C   -0.592073   -2.235544   -0.802437
 O    1.480219   -1.099487   -1.309518
 C    2.388389   -1.727210   -0.526491
 C    3.659050   -1.892992   -1.068625
 C    4.686830   -2.499798   -0.361881
 C    4.445665   -2.909114    0.961532
 C    3.169127   -2.719532    1.499541
 C    2.140951   -2.161618    0.772261
 C    5.453773   -3.558282    1.840033
 O    5.443255   -3.188242    3.121452
 O    6.228219   -4.410019    1.465767
 C    5.991968   -2.560287   -1.130253
 O    6.814326   -3.572594   -0.929262
 O    6.229743   -1.715046   -1.954562
 N    0.249126    1.350538   -1.027308
 C    1.372232    1.589813   -0.283197
 C    2.051846    2.880021   -0.607792
 O    1.776653    0.838972    0.575680
 C    2.688581    3.560289    0.422065
 C    3.345709    4.748785    0.145099
 C    3.401770    5.259560   -1.145963
 C    2.788381    4.562842   -2.171026
 C    2.112346    3.382367   -1.905917
 N    3.987039    5.472657    1.222344
 O    4.586996    6.484184    0.934535
 O    3.875998    5.024633    2.341070
 N   -3.998063   -0.835476   -0.466151
 C   -4.923359   -1.822259   -0.288301
 O   -4.676180   -3.008149   -0.269622
 C   -6.327456   -1.319575   -0.134539
 C   -6.642772   -0.070753    0.382335
 C   -7.976347    0.295172    0.504744
 C   -9.004836   -0.560043    0.130810
 C   -8.685221   -1.810480   -0.367771
 C   -7.359459   -2.187367   -0.493934
 N   -8.290932    1.604733    1.030519
 O   -7.362934    2.358272    1.235573
 O   -9.455486    1.868454    1.223069
 H   -2.370388    1.173694   -0.747773
 H   -2.524148   -3.094784   -0.496577
 H   -0.087844   -3.189240   -0.840999
 H    3.858202   -1.531632   -2.065496
 H    2.959182   -3.054604    2.506677
 H    1.169204   -2.026930    1.219848
 H    4.823168   -2.466909    3.300270
 H    6.605281   -4.124287   -0.136289
 H   -0.173151    2.119826   -1.525270
 H    2.671262    3.166563    1.427379
 H    3.928097    6.184458   -1.325473
 H    2.838442    4.939084   -3.180847
 H    1.658464    2.834950   -2.718955
 H   -4.339730    0.114473   -0.508680
 H   -5.893874    0.625888    0.730895
 H  -10.028070   -0.235443    0.241490
 H   -9.470237   -2.491839   -0.655383
 H   -7.093369   -3.163832   -0.869665
