28 
1zaf_ligand_dft.xyz
 C   -4.364647   -0.976984    0.079503
 C   -3.185678   -1.743837    0.104114
 C   -1.991304   -1.067755    0.065557
 C   -1.918550    0.326796    0.001250
 C   -3.071590    1.081577   -0.025346
 C   -4.303033    0.414137    0.015330
 C   -0.586976   -1.593228    0.071079
 C    0.325237   -0.381941    0.014687
 C   -0.489312    0.693806   -0.032974
 C    1.786929   -0.484908    0.033877
 C    2.580984    0.444373    0.722283
 C    3.961840    0.339803    0.735984
 C    4.584902   -0.709866    0.059991
 C    3.811848   -1.651435   -0.619285
 C    2.428294   -1.540121   -0.625956
 O    5.940831   -0.765772    0.103691
 O   -0.253499   -2.755193    0.108779
 O   -5.536384   -1.659399    0.120787
Br    0.002522    2.492361   -0.179915
 H   -3.233144   -2.826442    0.152014
 H   -3.034173    2.165360   -0.075749
 H   -5.224285    0.991990   -0.003221
 H    2.110163    1.256612    1.265106
 H    4.573434    1.056605    1.273275
 H    4.289899   -2.476368   -1.143178
 H    1.839268   -2.285424   -1.147166
 H    6.242733   -1.537420   -0.390391
 H   -6.273428   -1.037158    0.099695
