28 
1zaf_ligand_xtb.xyz
 C   -4.341524   -0.973349    0.067354
 C   -3.164778   -1.742063    0.096766
 C   -1.964834   -1.080511    0.065469
 C   -1.900159    0.322262    0.003773
 C   -3.050864    1.076063   -0.029697
 C   -4.274689    0.412178    0.003645
 C   -0.570387   -1.606066    0.081432
 C    0.314252   -0.394989    0.033385
 C   -0.492223    0.694110   -0.016803
 C    1.762543   -0.488101    0.045361
 C    2.552180    0.446329    0.721787
 C    3.924973    0.340485    0.726312
 C    4.548376   -0.706225    0.050628
 C    3.770929   -1.648532   -0.615461
 C    2.395993   -1.543783   -0.613948
 O    5.903181   -0.771092    0.073669
 O   -0.225116   -2.760534    0.134691
 O   -5.519764   -1.637983    0.102719
Br    0.013737    2.496933   -0.176339
 H   -3.226610   -2.817046    0.142454
 H   -3.014334    2.154036   -0.078249
 H   -5.190856    0.986940   -0.019925
 H    2.088275    1.246683    1.276503
 H    4.536580    1.056334    1.251557
 H    4.249410   -2.467288   -1.136815
 H    1.805385   -2.279663   -1.135600
 H    6.205621   -1.544601   -0.417984
 H   -6.259420   -1.018035    0.081280
