36 
1zaj_ligand_dft.xyz
 C    2.582573    0.917660    0.432761
 C   -0.024654   -1.095229    0.492945
 C   -0.742275   -0.820805   -0.827636
 C    1.250915   -1.926530    0.320674
 C    2.314514   -1.413458   -0.679314
 C    3.251472   -0.304903   -0.179612
 O    1.348681    3.885667   -0.319671
 P    0.575465    2.526982    0.038104
 O   -0.571700    2.468203   -1.051043
 O    0.193857    2.356671    1.451927
 O    1.620016    1.418278   -0.494666
 O    4.082324   -0.912108    0.805015
 O    3.128573   -2.519515   -1.042770
 O    0.791062   -3.187195   -0.129479
 O   -0.886571   -1.798192    1.385394
 O   -1.834726    0.088189   -0.620574
 P   -3.264917   -0.479109   -0.070196
 O   -4.219175    0.755239   -0.410577
 O   -3.179584   -0.355233    1.504840
 O   -3.621630   -1.774295   -0.673612
 H    2.108351    0.654301    1.382511
 H    3.336412    1.688815    0.632651
 H    0.176203   -0.147030    0.993155
 H   -0.086680   -0.310752   -1.534205
 H   -1.113022   -1.745999   -1.275571
 H    1.718531   -2.027470    1.312797
 H    1.835314   -1.079714   -1.601456
 H    3.851804    0.000616   -1.046753
 H    1.006091    4.621116    0.206349
 H   -1.222793    1.756188   -0.854471
 H    4.914036   -0.428392    0.858735
 H    3.810086   -2.566732   -0.351714
 H    1.558513   -3.612430   -0.545112
 H   -0.950779   -2.708055    1.053028
 H   -4.797075    0.527637   -1.150874
 H   -2.407482   -0.886255    1.805132
