30 
1zc9_ligand_xtb.xyz
 N   -2.357758   -1.868589    0.137883
 C   -2.892541   -0.675194    0.316211
 C   -4.236077   -0.607459    0.969770
 C   -2.212109    0.479924   -0.090067
 O   -2.705709    1.736290    0.132826
 C   -0.968555    0.372363   -0.721507
 C   -0.313272    1.666579   -1.134967
 N   -0.058749    2.458834    0.093367
 C   -0.423633   -0.901676   -0.885587
 C   -1.175476   -1.982009   -0.425753
 C    0.940078   -1.173694   -1.454715
 O    1.908318   -1.340443   -0.415956
 P    2.396652   -0.106624    0.460517
 O    3.534355   -0.740832    1.325470
 O    3.140294    0.886688   -0.520005
 O    1.335238    0.608130    1.201540
 H   -4.970670   -0.143190    0.311142
 H   -4.562280   -1.619116    1.188885
 H   -4.192068   -0.047638    1.904204
 H   -3.609958    1.673057    0.467823
 H   -0.990403    2.219690   -1.791620
 H    0.632630    1.501105   -1.647224
 H    0.410544    3.345213   -0.095052
 H   -0.965392    2.621066    0.551894
 H    0.559317    1.817432    0.705433
 H   -0.798923   -2.990444   -0.519165
 H    1.270279   -0.392044   -2.143513
 H    0.937654   -2.130362   -1.982494
 H    3.228770   -1.236757    2.084549
 H    4.005819    0.577970   -0.792676
