30 
1zd2_ligand_xtb.xyz
 C    1.666159   -0.079642   -0.051603
 N    0.339217   -0.083262    0.528180
 C   -0.740176   -0.581560   -0.120580
 N   -1.888452   -0.634626    0.653572
 C   -3.145151   -0.820592   -0.027717
 C   -4.024415    0.415607    0.104462
 O   -5.150624    0.397471   -0.621327
 O   -0.715987   -0.993807   -1.263223
 O   -3.753558    1.332615    0.824523
 C    2.237242    1.339031   -0.086462
 C    3.622925    1.335280   -0.725087
 C    4.562014    0.406170    0.038084
 C    3.991654   -1.008177    0.082277
 C    2.606276   -1.007394    0.721427
 H    1.540883   -0.451989   -1.073456
 H    0.253111    0.204038    1.489554
 H   -1.949407   -0.000383    1.439471
 H   -3.684407   -1.680619    0.394079
 H   -2.911796   -1.029305   -1.079784
 H   -5.224875   -0.387786   -1.179937
 H    2.305962    1.724074    0.934479
 H    1.564093    1.988662   -0.648366
 H    4.027291    2.349312   -0.734463
 H    3.540728    0.996937   -1.759917
 H    4.691248    0.777714    1.057411
 H    5.543171    0.395673   -0.440316
 H    4.658519   -1.662288    0.647632
 H    3.917678   -1.401165   -0.933667
 H    2.193656   -2.018002    0.730009
 H    2.680968   -0.662238    1.756414
