32 
1zdp_ligand_dft.xyz
 S    3.658512   -1.900364   -0.104329
 C    1.872112   -2.313305   -0.121909
 C    1.058362   -1.061620    0.210620
 C   -0.376872   -1.477464    0.530063
 O   -0.811830   -2.593185    0.297619
 C    1.064294   -0.027705   -0.952059
 C    0.857164    1.400864   -0.502562
 C    1.868890    2.062016    0.202519
 C   -0.337044    2.081262   -0.756255
 C    1.692285    3.367321    0.646544
 C   -0.516430    3.389628   -0.308769
 C    0.495807    4.035628    0.393201
 N   -1.155764   -0.505167    1.099605
 C   -2.575144   -0.713626    1.155969
 C   -3.236410   -0.622739   -0.211866
 O   -4.527848   -0.981008   -0.141827
 O   -2.705034   -0.264518   -1.234106
 H    4.101371   -3.101890   -0.508585
 H    1.586320   -2.694679   -1.105043
 H    1.671736   -3.091422    0.615288
 H    1.483942   -0.587510    1.105123
 H    0.298235   -0.310989   -1.681911
 H    2.033647   -0.100716   -1.457262
 H    2.807007    1.546290    0.397660
 H   -1.133358    1.572232   -1.292736
 H    2.490893    3.866042    1.188009
 H   -1.451084    3.903722   -0.514222
 H    0.356124    5.055153    0.740206
 H   -0.825372    0.449618    1.052024
 H   -3.034887    0.028358    1.815594
 H   -2.785659   -1.701944    1.570750
 H   -4.889154   -0.902141   -1.039315
