32 
1zdp_ligand_xtb.xyz
 S    3.991538   -1.203374   -0.174830
 C    2.316949   -1.949959   -0.145691
 C    1.279788   -0.888731    0.199231
 C   -0.044996   -1.585136    0.500760
 O   -0.197531   -2.786404    0.435473
 C    1.121303    0.134426   -0.946044
 C    0.621839    1.469869   -0.470493
 C    1.424573    2.259471    0.346903
 C   -0.637217    1.939164   -0.830314
 C    0.974219    3.483476    0.805851
 C   -1.087060    3.166453   -0.371163
 C   -0.285201    3.939033    0.450414
 N   -1.029067   -0.744705    0.909895
 C   -2.376889   -1.227628    1.051299
 C   -3.197830   -1.006247   -0.206192
 O   -4.458087   -1.412469   -0.046153
 O   -2.783369   -0.523806   -1.223780
 H    4.636889   -2.333548   -0.445775
 H    2.113453   -2.382019   -1.125302
 H    2.311607   -2.738328    0.606043
 H    1.600661   -0.365429    1.107516
 H    0.449201   -0.272690   -1.704030
 H    2.104759    0.276482   -1.402006
 H    2.412896    1.913192    0.614664
 H   -1.268036    1.339945   -1.470886
 H    1.608330    4.086910    1.438565
 H   -2.066612    3.518831   -0.659794
 H   -0.636268    4.895829    0.807645
 H   -0.905501    0.248353    0.764099
 H   -2.877548   -0.749923    1.897387
 H   -2.323109   -2.306884    1.231747
 H   -4.966832   -1.287508   -0.863543
