110 
1zfp_ligand_xtb.xyz
 C    5.399240    0.095055   -0.883915
 O    4.751864    0.737234   -1.710836
 C    6.007186   -1.222076   -1.190173
 C    6.548510   -1.460909   -2.465939
 C    7.153033   -2.692882   -2.718377
 N    6.571681   -0.457929   -3.420600
 C    7.191536   -3.675186   -1.752006
 C    6.623910   -3.452871   -0.506149
 C    6.045315   -2.230422   -0.231512
 N    5.632627    0.533245    0.370461
 C    5.318598    1.856699    0.892550
 C    3.800137    1.973531    1.118454
 O    3.338640    2.017218    2.247691
 C    5.870520    2.992483    0.020792
 C    7.402366    2.948154   -0.079362
 C    7.846945    1.754899   -0.897624
 O    8.395122    0.778052   -0.454292
 O    7.545092    1.903443   -2.182105
 N    3.062454    2.012259    0.003384
 C    1.612681    1.931074    0.060574
 C    1.256397    0.438890    0.173229
 O    0.842587   -0.222981   -0.759576
 C    0.972257    2.561697   -1.178789
 C   -0.445239    2.960748   -0.874496
 C   -1.481613    2.039760   -0.956258
 C   -0.732971    4.253803   -0.453599
 C   -2.775973    2.399952   -0.621831
 C   -2.021915    4.623444   -0.120877
 C   -3.048801    3.690681   -0.200884
 O   -4.303206    4.118319    0.164298
 P   -5.593866    3.170108    0.161350
 O   -6.641306    4.157005    0.830383
 O   -5.347356    2.097915    1.271840
 O   -6.020062    2.675314   -1.160131
 N    1.518943   -0.072446    1.383941
 C    1.469168   -1.499268    1.643221
 C    0.063442   -1.863454    2.162685
 O   -0.182924   -2.278239    3.277242
 C    2.636024   -1.932962    2.545738
 C    2.616071   -3.458509    2.709851
 C    2.616592   -1.221639    3.897718
 C    3.953548   -4.027219    3.168920
 N   -0.875116   -1.657987    1.225266
 C   -2.278902   -1.902168    1.447539
 C   -2.980259   -1.849707    0.091508
 O   -2.513913   -1.227741   -0.842065
 C   -2.899807   -0.813290    2.345879
 C   -4.316499   -1.147162    2.780432
 O   -4.789368   -2.268490    2.724358
 N   -4.986996   -0.112262    3.319252
 N   -4.141233   -2.537767    0.033251
 C   -5.079589   -2.188550   -1.015859
 C   -5.515106   -0.731262   -0.784467
 O   -5.518075   -0.288624    0.368850
 C   -6.262863   -3.157097   -0.986747
 C   -7.294279   -2.875728   -2.086766
 C   -6.639371   -2.897293   -3.455999
 O   -6.178446   -1.905383   -3.986287
 N   -6.579332   -4.109529   -4.038400
 N   -5.848457   -0.027526   -1.848162
 H    7.586113   -2.870132   -3.692638
 H    6.731085   -0.780054   -4.363889
 H    5.795067    0.189424   -3.336498
 H    7.656681   -4.624197   -1.972359
 H    6.636219   -4.228060    0.244121
 H    5.585997   -2.064244    0.732684
 H    6.274396   -0.017626    0.919111
 H    5.776488    1.915030    1.885073
 H    5.449395    2.934914   -0.982772
 H    5.566800    3.938792    0.470806
 H    7.853895    2.889110    0.911308
 H    7.746848    3.850795   -0.584675
 H    7.678365    1.072518   -2.687687
 H    3.508248    1.746398   -0.876871
 H    1.293639    2.451562    0.970694
 H    1.554206    3.436424   -1.472085
 H    0.993228    1.825385   -1.983979
 H   -1.286696    1.028150   -1.278327
 H    0.060408    4.984028   -0.385232
 H   -3.572652    1.677005   -0.699563
 H   -2.249490    5.626050    0.205325
 H   -7.096644    4.654118    0.153753
 H   -5.490300    1.168022    0.913403
 H    1.871178    0.529624    2.116637
 H    1.575279   -1.991487    0.666124
 H    3.556627   -1.652117    2.015286
 H    2.356535   -3.914501    1.751012
 H    1.836403   -3.721260    3.424413
 H    2.784399   -0.151809    3.789342
 H    1.661886   -1.387633    4.387125
 H    3.405322   -1.612060    4.535010
 H    4.242311   -3.627724    4.137399
 H    3.888069   -5.109028    3.256908
 H    4.737451   -3.791309    2.451383
 H   -0.639691   -1.284078    0.308435
 H   -2.414185   -2.874736    1.934105
 H   -2.880259    0.148763    1.830362
 H   -2.287033   -0.741158    3.248575
 H   -4.691964    0.836504    3.161943
 H   -5.959796   -0.256064    3.538980
 H   -4.545411   -2.800896    0.930774
 H   -4.548082   -2.241968   -1.971542
 H   -5.871936   -4.171686   -1.091087
 H   -6.748986   -3.079509   -0.011806
 H   -8.086261   -3.623972   -2.038133
 H   -7.733365   -1.889805   -1.932082
 H   -6.943447   -4.935712   -3.599348
 H   -6.125144   -4.197208   -4.933070
 H   -6.036911    0.971694   -1.742245
 H   -5.839243   -0.447945   -2.772916
