82 
1zgb_ligand_xtb.xyz
 C    3.119026    2.785170    0.189430
 C    3.089892    2.301527    1.635345
 C    2.916933    0.782522    1.719962
 C    3.775906    0.063743    0.710772
 C    4.364851    0.698859   -0.345934
 C    4.317763    2.182707   -0.536207
 C    3.940930   -1.344714    0.819789
 C    4.609413   -2.059007   -0.114482
 C    5.195571   -1.419382   -1.267671
 N    5.043160   -0.028990   -1.264310
 O    5.768836   -1.956033   -2.191437
 N    1.511425    0.406425    1.459344
 C    0.621677    0.425261    2.622436
 C    0.641252   -0.859513    3.460192
 C    0.328986   -2.143506    2.680323
 C   -0.992459   -2.145904    1.908019
 C   -2.221852   -2.173533    2.815301
 C   -3.538719   -2.140473    2.035264
 C   -3.807022   -0.764365    1.430244
 C   -5.174750   -0.625186    0.759530
 C   -5.417177   -1.498371   -0.477762
 C   -4.298728   -1.480103   -1.528429
 N   -3.840714   -0.129784   -1.793129
 C   -2.584965    0.298702   -1.603882
 C   -1.457293   -0.553681   -1.866697
 C   -0.208686   -0.188600   -1.319157
 N   -0.106164    0.965949   -0.599961
 C   -1.092051    1.876745   -0.570743
 C   -2.327467    1.609184   -1.128748
 C   -1.509771   -1.693575   -2.691587
 C   -0.391057   -2.459369   -2.902557
 C    0.824888   -2.121949   -2.301514
 C    0.919846   -0.992164   -1.528625
 C   -0.776943    3.158148    0.134705
 C   -2.030322    3.955560    0.478922
 C   -2.926662    4.024939   -0.749628
 C   -3.436673    2.627623   -1.087790
 H    2.202547    2.488168   -0.323230
 H    3.183380    3.873266    0.164816
 H    4.027869    2.572650    2.121142
 H    2.280867    2.790303    2.180469
 H    3.209017    0.450629    2.727912
 H    4.280880    2.422218   -1.601325
 H    5.241527    2.612118   -0.136012
 H    3.525416   -1.845285    1.684459
 H    4.740394   -3.125567   -0.033159
 H    5.497447    0.449170   -2.034654
 H    1.512615   -0.549731    1.110183
 H    0.693112    1.017410    0.090108
 H   -0.396371    0.598016    2.257499
 H    0.892053    1.270945    3.258568
 H    1.626359   -0.974625    3.918911
 H   -0.077056   -0.739400    4.271371
 H    0.319243   -2.970172    3.393032
 H    1.137856   -2.352632    1.973215
 H   -1.032079   -1.277801    1.247168
 H   -1.010506   -3.034368    1.271153
 H   -2.187690   -3.084025    3.416021
 H   -2.197451   -1.324822    3.501102
 H   -3.512574   -2.901170    1.252782
 H   -4.356509   -2.389722    2.713632
 H   -3.758891   -0.023873    2.233389
 H   -3.017516   -0.518107    0.718822
 H   -5.948595   -0.867694    1.489664
 H   -5.316488    0.425888    0.492843
 H   -6.352167   -1.172899   -0.938672
 H   -5.551462   -2.536233   -0.172817
 H   -3.452257   -2.069162   -1.172422
 H   -4.679674   -1.935766   -2.448268
 H   -4.569445    0.564379   -1.702004
 H   -2.424260   -1.933206   -3.207683
 H   -0.444491   -3.320218   -3.549512
 H    1.698290   -2.731191   -2.472785
 H    1.867889   -0.689263   -1.112791
 H   -0.192658    2.943554    1.031703
 H   -0.143393    3.755649   -0.528817
 H   -2.566901    3.472215    1.297378
 H   -1.749034    4.955741    0.805878
 H   -2.361867    4.428310   -1.591583
 H   -3.774742    4.684514   -0.568017
 H   -4.169004    2.329664   -0.328853
 H   -3.944352    2.651430   -2.055657
