82 
1zgb_ligand_dft.xyz
 C    3.071061    2.819662    0.065720
 C    3.015195    2.409485    1.539241
 C    2.898593    0.895433    1.706521
 C    3.792507    0.121388    0.779895
 C    4.359238    0.700207   -0.323109
 C    4.260648    2.167436   -0.639332
 C    3.994271   -1.282958    0.988942
 C    4.692592   -2.049332    0.117758
 C    5.285273   -1.468469   -1.078502
 N    5.075224   -0.076854   -1.178811
 O    5.905459   -2.055003   -1.942677
 N    1.473747    0.449930    1.437267
 C    0.504073    0.546860    2.567605
 C    0.519823   -0.719905    3.419782
 C    0.192514   -2.009832    2.647380
 C   -1.147716   -2.010656    1.901724
 C   -2.363059   -1.952622    2.833151
 C   -3.706699   -1.949911    2.095419
 C   -4.016020   -0.608344    1.428280
 C   -5.322629   -0.575716    0.628615
 C   -5.417047   -1.555487   -0.551917
 C   -4.181763   -1.636033   -1.452807
 N   -3.732549   -0.317289   -1.916456
 C   -2.479853    0.171306   -1.662337
 C   -1.320981   -0.662304   -1.832167
 C   -0.083537   -0.167301   -1.357252
 N    0.030253    1.057183   -0.764601
 C   -1.028049    1.860925   -0.748808
 C   -2.295688    1.494478   -1.235665
 C   -1.338625   -1.914587   -2.498491
 C   -0.197773   -2.668589   -2.619103
 C    1.023345   -2.194580   -2.095918
 C    1.081765   -0.964089   -1.491590
 C   -0.797995    3.214889   -0.113684
 C   -2.084383    3.904321    0.332337
 C   -3.091821    3.878715   -0.812591
 C   -3.476918    2.437975   -1.151343
 H    2.145781    2.531340   -0.446602
 H    3.151426    3.907483   -0.010069
 H    3.930675    2.728570    2.049684
 H    2.184307    2.910754    2.049482
 H    3.096716    0.614622    2.746896
 H    4.179010    2.307191   -1.722699
 H    5.198418    2.647620   -0.328906
 H    3.575619   -1.742019    1.884700
 H    4.853032   -3.109098    0.273882
 H    5.502480    0.342317   -1.997108
 H    1.504374   -0.529888    1.141898
 H    1.063521    0.924382    0.566990
 H   -0.480490    0.713611    2.121391
 H    0.762633    1.431326    3.154714
 H    1.497991   -0.825087    3.906047
 H   -0.202923   -0.574808    4.228787
 H    0.206207   -2.837050    3.366168
 H    0.997727   -2.248198    1.935130
 H   -1.178347   -1.188171    1.173638
 H   -1.204352   -2.927831    1.302539
 H   -2.319212   -2.814202    3.511006
 H   -2.313436   -1.058929    3.471456
 H   -3.706799   -2.758565    1.351999
 H   -4.509671   -2.187006    2.803819
 H   -4.071964    0.163013    2.208153
 H   -3.182386   -0.314173    0.778542
 H   -6.164897   -0.776437    1.301662
 H   -5.479503    0.447357    0.264665
 H   -6.295217   -1.294443   -1.155698
 H   -5.600957   -2.571766   -0.184576
 H   -3.358007   -2.097133   -0.901032
 H   -4.406899   -2.286289   -2.305839
 H   -4.463405    0.378643   -1.883624
 H   -2.256840   -2.263506   -2.954912
 H   -0.228660   -3.617815   -3.143140
 H    1.927609   -2.784806   -2.208123
 H    2.033082   -0.555103   -1.163888
 H   -0.099438    3.094070    0.724123
 H   -0.280271    3.846848   -0.848300
 H   -2.505547    3.387928    1.205621
 H   -1.868277    4.931737    0.640014
 H   -2.651395    4.362086   -1.693538
 H   -3.992627    4.443801   -0.555897
 H   -4.174606    2.069569   -0.384137
 H   -4.026935    2.433096   -2.101809
