19 
1zge_ligand_dft.xyz
 S    2.622934    0.022492   -0.138543
 N    3.072274   -0.126641    1.469355
 O    3.053123   -1.201112   -0.796048
 O    3.031259    1.341620   -0.595698
 C    0.850558    0.011514   -0.085055
 C    0.173854   -1.202786   -0.065086
 C   -1.206495   -1.200485   -0.007499
Cl   -2.058356   -2.727137    0.007461
 C   -1.960571   -0.008171    0.029697
 N   -3.319814   -0.018421    0.128716
 C   -1.223844    1.193690   -0.005504
Cl   -2.096323    2.708609    0.011997
 C    0.157514    1.215310   -0.062829
 H    3.697831   -0.918377    1.580652
 H    3.487467    0.735571    1.807833
 H    0.717695   -2.139404   -0.111199
 H   -3.803406   -0.877709   -0.079935
 H   -3.816113    0.833922   -0.078579
 H    0.690757    2.158026   -0.107751
