45 
1zgv_ligand_xtb.xyz
 C   -3.859893    1.152302    1.620527
 C   -2.940445    0.133557    1.410495
 C   -2.981803   -0.553950    0.189971
 C   -3.971381   -0.251775   -0.744494
 C   -4.881455    0.755995   -0.491813
 C   -4.825668    1.480191    0.686452
 N   -2.106617   -1.601063   -0.103008
 C   -0.749978   -1.579357   -0.068753
 N   -0.069219   -2.655560   -0.515143
 C    1.197803   -2.324411   -0.361472
 N    1.252749   -1.036371    0.175558
 N    0.001589   -0.565432    0.352201
 N    2.294864   -3.003830   -0.639109
 C    3.448517   -2.416120   -0.386931
 C    3.561082   -1.125469    0.147208
 C    2.412667   -0.404760    0.443511
 N    2.319519    0.820690    1.012231
 C    3.413443    1.756648    1.092939
 C    3.711563    2.442296   -0.244775
 C    4.877026    3.421175   -0.130577
 C    5.159532    4.115708   -1.456891
 C    4.680233   -3.203861   -0.702711
Cl   -6.098969    1.115600   -1.667543
 C   -1.975421   -0.245546    2.486145
 H   -3.833088    1.693563    2.554852
 H   -4.021040   -0.805469   -1.670088
 H   -5.533991    2.270507    0.875717
 H   -2.454017   -2.314452   -0.729368
 H    4.533895   -0.701153    0.324238
 H    1.383329    1.203324    0.986267
 H    4.300440    1.223921    1.444566
 H    3.152127    2.506362    1.843848
 H    2.818715    2.974955   -0.580506
 H    3.944488    1.680118   -0.991831
 H    5.769851    2.883150    0.195630
 H    4.645599    4.170123    0.629985
 H    5.404282    3.386240   -2.225642
 H    4.289370    4.679616   -1.785280
 H    5.995904    4.802968   -1.356924
 H    4.395872   -4.135076   -1.181787
 H    5.335978   -2.638435   -1.361804
 H    5.227141   -3.424468    0.212579
 H   -0.965218    0.049982    2.205800
 H   -2.241953    0.230435    3.426075
 H   -1.970348   -1.326192    2.619806
