46 
1zm7_ligand_dft.xyz
 P    1.760164   -1.259074    0.801051
 O    2.050221   -1.899031   -0.504101
 O    2.430007   -1.831224    2.097950
 O    2.215461    0.307281    0.810962
 P    2.849941    1.224838   -0.377054
 O    2.220481    1.020418   -1.688145
 O    2.794720    2.656272    0.273783
 O    4.421972    0.898579   -0.288351
 P    5.088576   -0.595229   -0.206766
 O    4.883102   -1.195815    1.133538
 O    6.590180   -0.293925   -0.600375
 O    4.552260   -1.379964   -1.453179
 O    0.240324   -1.202645    1.242625
 C   -0.810441   -0.978471    0.291571
 C   -0.680828    0.378738   -0.409676
 O   -1.828067    0.611039   -1.231867
 C   -0.644144    1.579377    0.538382
 O    0.056058    2.684383   -0.040765
 C   -2.129526    1.872783    0.749015
 C   -2.795723    1.364307   -0.542256
 N   -3.989549    0.527567   -0.279729
 C   -5.039727    1.173494    0.353246
 O   -4.969731    2.332887    0.720778
 N   -6.155699    0.386884    0.534198
 C   -6.367790   -0.926995    0.095119
 O   -7.420963   -1.490840    0.319656
 C   -5.236892   -1.496053   -0.637570
 C   -5.389627   -2.880399   -1.190856
 C   -4.130337   -0.745291   -0.798214
 H    3.411481   -1.742242    1.997434
 H    1.849422    2.943923    0.257036
 H    7.167836   -0.312917    0.174825
 H    3.618908   -1.690175   -1.315294
 H   -1.732039   -1.037103    0.874922
 H   -0.807323   -1.776554   -0.455791
 H    0.178100    0.364747   -1.086037
 H   -0.127450    1.362579    1.472922
 H   -0.101482    2.691361   -0.995781
 H   -2.318809    2.930806    0.923132
 H   -2.507745    1.319347    1.612671
 H   -3.115061    2.182079   -1.193772
 H   -6.929751    0.833344    1.009944
 H   -6.228578   -2.925627   -1.892618
 H   -5.606775   -3.595347   -0.391024
 H   -4.482300   -3.200584   -1.710688
 H   -3.269904   -1.095090   -1.354256
