91 
1zom_ligand_xtb.xyz
 C   -5.343815   -1.765244    1.059779
 C   -4.249854   -1.126159    0.154171
 C   -6.362264   -2.458351    0.224145
 O   -4.765439   -2.641170    1.992360
 N   -3.395589   -0.325291    0.996193
 C   -3.438983   -2.198598   -0.583986
 C   -2.572427   -1.590265   -1.686727
 C   -1.451405   -2.535129   -2.139409
 N   -0.366652   -2.580675   -1.185086
 C    0.796390   -1.868456   -1.302232
 N    1.421510   -1.632491   -0.098340
 N    1.399726   -1.534137   -2.382375
 N   -6.430900   -3.740940    0.121013
 C   -7.409657   -4.128694   -0.729478
 C   -8.107136   -3.115405   -1.302086
 S   -7.520182   -1.593392   -0.750348
 N   -1.123215    2.256977    1.009699
 C   -2.184445    1.640383    1.782948
 C   -3.129841    0.974497    0.765841
 O   -3.597956    1.595267   -0.165123
 C   -2.949884    2.688836    2.601270
 C   -4.133490    2.027528    3.306396
 C   -2.034816    3.368861    3.616922
 N    1.213906    1.493494   -1.650481
 C    0.325716    2.368970   -0.930195
 C   -0.545582    1.565435    0.022432
 O   -0.705994    0.357622   -0.112111
 C   -0.547313    3.181897   -1.912615
 C   -1.093541    4.496863   -1.358360
 C   -0.059386    5.628012   -1.236512
 N    1.157202    5.291221   -0.527446
 C    1.150224    4.890158    0.772544
 N    2.373593    4.490040    1.233481
 O    0.150478    4.912807    1.479161
 C    2.568533    1.619821   -1.526645
 O    3.092981    2.607612   -1.017514
 N    3.248523    0.585955   -2.067757
 C    4.690929    0.511630   -2.061927
 C    5.182191   -0.480804   -1.029737
 C    4.655940   -1.767990   -0.986534
 C    5.094886   -2.679586   -0.043811
 C    6.075564   -2.299674    0.855523
 C    6.619027   -1.027948    0.828834
 C    6.164568   -0.124187   -0.115402
Br    6.686668   -3.551366    2.159659
 C    5.201105    0.124309   -3.451676
 H   -5.818783   -0.952756    1.627015
 H   -4.721427   -0.442940   -0.559970
 H   -4.883450   -3.540967    1.658325
 H   -2.978876   -0.806681    1.777310
 H   -2.813433   -2.710823    0.150737
 H   -4.119571   -2.937410   -1.012820
 H   -2.111302   -0.673759   -1.317442
 H   -3.200931   -1.334091   -2.540687
 H   -1.843009   -3.550364   -2.274285
 H   -1.054127   -2.195102   -3.098358
 H   -0.678042   -2.683657   -0.230266
 H    0.803460   -1.329704    0.639543
 H    2.249130   -1.060410   -0.179655
 H    0.946817   -1.843143   -3.234579
 H   -7.568532   -5.178345   -0.894117
 H   -8.916516   -3.167346   -2.000729
 H   -0.898962    3.233283    1.174036
 H   -1.758649    0.879685    2.452604
 H   -3.332431    3.437075    1.899794
 H   -3.792455    1.231769    3.966185
 H   -4.828826    1.606403    2.584094
 H   -4.667294    2.761789    3.904365
 H   -2.611989    4.065239    4.220118
 H   -1.240541    3.929440    3.131584
 H   -1.589471    2.629867    4.280532
 H    0.842413    0.595131   -1.928704
 H    0.965914    3.027567   -0.349612
 H    0.062980    3.384641   -2.796068
 H   -1.386932    2.554961   -2.221600
 H   -1.560697    4.328605   -0.390335
 H   -1.875001    4.853915   -2.032068
 H    0.237409    5.967728   -2.230310
 H   -0.534046    6.462065   -0.709903
 H    1.954735    5.013628   -1.078549
 H    2.382409    4.094932    2.159594
 H    3.021237    4.081463    0.573404
 H    2.709927   -0.238516   -2.355831
 H    5.051080    1.512814   -1.799069
 H    3.888467   -2.064336   -1.685627
 H    4.677629   -3.673950   -0.008771
 H    7.382930   -0.746146    1.537238
 H    6.579138    0.872811   -0.136605
 H    4.873785    0.856407   -4.185083
 H    4.811428   -0.851090   -3.732084
 H    6.287230    0.081928   -3.453179
