40 
1zp5_ligand_dft.xyz
 C    0.736459   -0.434515   -1.175446
 C   -0.565004   -0.913795   -1.282550
 C   -1.051778   -1.818727   -0.334868
 C   -0.215877   -2.248395    0.695794
 C    1.084787   -1.773565    0.783224
 C    1.583387   -0.850327   -0.143136
 C    2.969035   -0.334166   -0.039147
 C    4.024038   -1.181907    0.320639
 C    5.322072   -0.704546    0.421471
 C    5.590180    0.642389    0.156829
 C    4.547622    1.501022   -0.206198
 C    3.253261    1.012182   -0.299031
 C    6.932763    1.142457    0.257505
 N    8.016452    1.545961    0.338893
 O   -2.306353   -2.350780   -0.382458
 C   -3.383146   -1.456709   -0.637577
 C   -3.652171   -0.590588    0.594026
 N   -4.695255    0.391618    0.362544
 C   -6.061566   -0.037242    0.612929
 C   -4.473631    1.740332    0.331066
 O   -5.339602    2.574223    0.537495
 N   -3.145927    2.172921    0.107414
 O   -2.485389    1.542993   -0.968436
 H    1.110209    0.246061   -1.935626
 H   -1.181732   -0.607013   -2.120827
 H   -0.608295   -2.947878    1.426235
 H    1.712644   -2.099205    1.607797
 H    3.828430   -2.234673    0.500147
 H    6.133255   -1.371140    0.694412
 H    4.755812    2.547240   -0.403486
 H    2.445551    1.691051   -0.555449
 H   -4.239530   -2.095749   -0.864375
 H   -3.196625   -0.813685   -1.501643
 H   -2.733017   -0.087498    0.901028
 H   -3.949998   -1.233850    1.431313
 H   -6.215842   -1.025881    0.171721
 H   -6.275595   -0.089775    1.688278
 H   -6.751669    0.672517    0.158373
 H   -3.193637    3.165722   -0.101468
 H   -1.658699    1.215371   -0.584361
