19 
1zsb_ligand_dft.xyz
 C   -0.986289    0.279677    0.006042
 C    1.308131    0.716218   -0.001310
 C    3.514231   -0.329734    0.006597
 C    4.988278   -0.009551   -0.015488
 N   -3.573675    0.934970    0.511152
 N    0.600777    1.813845   -0.010782
 N   -0.734690    1.548170   -0.009392
 N    2.683079    0.776565   -0.003124
 O   -3.007451   -0.502319   -1.455146
 O   -2.755014   -1.400558    0.903983
 O    3.054407   -1.453616    0.028269
 S   -2.673508   -0.322849   -0.059666
 S    0.401398   -0.765156    0.025261
 H    5.261985    0.622846    0.835372
 H    5.548296   -0.942859    0.031962
 H    5.250992    0.523447   -0.935314
 H   -3.479736    1.769118   -0.060710
 H   -3.402619    1.119763    1.494235
 H    3.064771    1.713196   -0.021937
