36 
1zuc_ligand_dft.xyz
 C    2.633333    1.266910    1.965855
 C    2.398248    1.294846    0.453816
 C    1.276436    0.356138    0.066596
 C   -0.055463    0.727888   -0.043210
 C   -1.053182   -0.216043   -0.313661
 C   -0.680412   -1.554216   -0.482196
 C    0.647845   -1.942302   -0.380516
 C    1.621569   -0.985328   -0.106450
 N    2.972765   -1.324472   -0.002022
 C    3.988479   -0.427375   -0.181177
 S    5.556917   -0.890279   -0.400382
 O    3.629763    0.852931   -0.196381
 C   -2.446026    0.233597   -0.454495
 C   -2.925627    1.316098   -1.176236
 C   -4.322079    1.353138   -1.023105
 C   -4.662304    0.292521   -0.204094
 N   -3.511815   -0.387204    0.142608
 C   -3.474922   -1.520819    1.050181
 C   -5.933279   -0.112780    0.275114
 N   -6.965658   -0.456704    0.680468
 C    2.210861    2.715840   -0.056879
 H    2.821473    0.247751    2.316555
 H    3.495623    1.889982    2.220002
 H    1.748935    1.649856    2.483893
 H   -0.345427    1.763521    0.104431
 H   -1.431921   -2.297967   -0.727763
 H    0.929827   -2.980073   -0.533363
 H    3.248002   -2.293832   -0.069816
 H   -2.317399    1.979853   -1.774271
 H   -5.018099    2.056859   -1.455601
 H   -3.624919   -2.462183    0.513056
 H   -2.510276   -1.544997    1.558409
 H   -4.267457   -1.411576    1.792690
 H    3.119249    3.291029    0.138659
 H    2.016618    2.718408   -1.132449
 H    1.379088    3.204372    0.458085
