48 
1zvx_ligand_xtb.xyz
 C   -3.601327   -0.173552   -0.161490
 C   -3.986801    0.888438   -0.981739
 C   -5.302768    1.282955   -1.053563
 C   -6.286104    0.617415   -0.316696
 C   -5.911964   -0.446060    0.499192
 C   -4.584424   -0.825427    0.575566
 O   -7.553441    1.079402   -0.466577
 C   -8.592939    0.449439    0.243495
 C   -2.196697   -0.592514   -0.082474
 C   -1.407505   -0.641156   -1.232565
 C   -0.083028   -1.032341   -1.161406
 C    0.456373   -1.373399    0.063995
 C   -0.305017   -1.337200    1.216940
 C   -1.629391   -0.951927    1.142225
 S    2.180666   -1.784343    0.209227
 O    2.375707   -2.858544    1.131161
 O    2.735367   -1.933225   -1.120700
 N    2.736458   -0.405616    0.958483
 C    2.806378    0.766767    0.122493
 C    2.582754    2.059890    0.912378
 C    1.169119    2.086574    1.487692
 C    3.627067    2.217379    2.011254
 P    4.403129    0.853284   -0.822777
 O    4.205836   -0.016160   -2.129786
 O    5.379812   -0.027655    0.130999
 O    4.951966    2.174249   -1.117333
 H   -3.239950    1.424928   -1.547277
 H   -5.603987    2.109829   -1.676850
 H   -6.644282   -0.987351    1.077109
 H   -4.314605   -1.664610    1.199330
 H   -8.446485    0.528806    1.325407
 H   -9.502550    0.978630   -0.035729
 H   -8.688391   -0.604742   -0.035499
 H   -1.841741   -0.388113   -2.187760
 H    0.536609   -1.089397   -2.043199
 H    0.155289   -1.617258    2.150785
 H   -2.228067   -0.905107    2.039064
 H    3.595069   -0.581588    1.461495
 H    2.005165    0.672235   -0.620126
 H    2.707627    2.879886    0.198120
 H    1.006066    3.006688    2.042984
 H    1.026685    1.242445    2.158068
 H    0.425617    2.023965    0.695851
 H    3.538655    1.417843    2.742943
 H    4.623885    2.202231    1.578427
 H    3.490249    3.168383    2.520676
 H    3.753169   -0.865253   -1.942336
 H    6.268826    0.320863    0.049243
