48 
1zvx_ligand_dft.xyz
 C   -3.624984   -0.189807   -0.175074
 C   -3.995194    0.922057   -0.946078
 C   -5.310443    1.343354   -1.009379
 C   -6.304431    0.658201   -0.300902
 C   -5.956473   -0.451806    0.470513
 C   -4.626658   -0.860672    0.526241
 O   -7.560317    1.146805   -0.428491
 C   -8.600188    0.503144    0.275191
 C   -2.213107   -0.633239   -0.109793
 C   -1.408420   -0.625292   -1.255356
 C   -0.078011   -1.022373   -1.198875
 C    0.451095   -1.434099    0.019146
 C   -0.329375   -1.470438    1.172086
 C   -1.653905   -1.069787    1.100474
 S    2.171968   -1.832850    0.146044
 O    2.389991   -2.895453    1.109140
 O    2.678152   -1.975837   -1.225903
 N    2.777433   -0.455005    0.852367
 C    2.884407    0.779948    0.065442
 C    2.501260    2.016769    0.902394
 C    1.024880    1.943698    1.298416
 C    3.393773    2.201708    2.131408
 P    4.532756    0.939284   -0.746907
 O    4.485293   -0.043379   -2.004260
 O    5.456639    0.195711    0.372262
 O    4.969824    2.307493   -1.081709
 H   -3.234499    1.481064   -1.484018
 H   -5.596061    2.210273   -1.595684
 H   -6.703381   -1.010255    1.022482
 H   -4.375853   -1.741858    1.110494
 H   -8.430009    0.533886    1.358836
 H   -9.509949    1.055325    0.037950
 H   -8.717192   -0.539963   -0.044817
 H   -1.835329   -0.326593   -2.207672
 H    0.541983   -1.029696   -2.089185
 H    0.104610   -1.795604    2.111883
 H   -2.259412   -1.066482    2.001583
 H    3.595911   -0.683353    1.412165
 H    2.163430    0.711234   -0.757732
 H    2.650666    2.877325    0.239749
 H    0.723767    2.861718    1.813350
 H    0.844981    1.100456    1.973164
 H    0.375534    1.816754    0.424229
 H    3.309947    1.346931    2.812866
 H    4.444593    2.327889    1.856142
 H    3.085237    3.094070    2.685038
 H    3.987027   -0.871738   -1.828998
 H    6.367128    0.519087    0.325070
