37 
1zxv_ligand_xtb.xyz
 C   -5.025167   -0.875603    0.170535
 C   -6.382680   -1.097963    0.264599
 C   -7.260085   -0.028747    0.145724
Cl   -8.958197   -0.299767    0.264204
 C   -6.782751    1.257836   -0.067576
 C   -5.424113    1.475511   -0.161333
 C   -4.523713    0.412599   -0.042971
 C   -3.097809    0.627806   -0.135651
 O   -2.267679   -0.419451   -0.007807
 C   -2.359146    1.782536   -0.343654
 C   -1.016158    1.408396   -0.340340
 C   -0.988534    0.035006   -0.129741
 C    0.018752   -0.948279   -0.020938
 C    1.373481   -0.845745   -0.095874
 C    2.224174    0.317657   -0.314824
 O    1.889754    1.469830   -0.475923
 S    2.362391   -2.291828    0.078046
 C    3.838295   -1.383592   -0.141351
 S    5.339800   -2.042290   -0.120949
 N    3.561637   -0.069940   -0.328122
 C    4.614081    0.902528   -0.537604
 C    5.360167    1.228837    0.765720
 C    6.838418    1.492174    0.487219
 O    7.514059    0.435501    0.036164
 O    7.358968    2.556430    0.648836
 H   -4.336209   -1.700749    0.261914
 H   -6.765098   -2.092777    0.429705
 H   -7.475920    2.079143   -0.158161
 H   -5.057392    2.475547   -0.326781
 H   -2.741341    2.772698   -0.481124
 H   -0.161804    2.038292   -0.472195
 H   -0.376672   -1.943501    0.148366
 H    4.134394    1.798015   -0.937677
 H    5.300043    0.496119   -1.288127
 H    5.294992    0.380562    1.452188
 H    4.928407    2.103444    1.250060
 H    6.975341   -0.379513   -0.008102
