39 
1zyj_ligand_dft.xyz
 N   -5.702779   -0.664179    0.677954
 C   -4.823607   -0.242423   -0.235520
 C   -4.648762    1.105959   -0.559732
 C   -5.423400    2.052508    0.095456
 C   -6.344591    1.622971    1.047033
 C   -6.443211    0.259725    1.297727
 C   -3.977812   -1.306266   -0.904425
 N   -2.603922   -1.302777   -0.431805
 C   -1.631472   -0.576936   -1.048953
 C   -0.272944   -0.615188   -0.418005
 C    0.827152   -0.367465   -1.240030
 C    2.119238   -0.381187   -0.734459
 C    2.316578   -0.622958    0.625778
 C    1.228207   -0.851547    1.466381
 C   -0.056363   -0.850056    0.942816
 O    3.551263   -0.692905    1.207390
 C    4.620947   -0.051816    0.618364
 C    5.758047   -0.803903    0.350397
 C    6.882398   -0.174004   -0.176155
 C    6.864149    1.192569   -0.439877
 C    5.716214    1.933948   -0.167070
 C    4.590353    1.318216    0.368486
 O   -1.844577    0.058442   -2.075742
 H   -3.912310    1.383618   -1.307327
 H   -5.314046    3.108464   -0.133761
 H   -6.973883    2.326177    1.582615
 H   -7.151659   -0.115710    2.033302
 H   -3.946140   -1.147215   -1.985164
 H   -4.419402   -2.283393   -0.697691
 H   -2.382237   -1.843981    0.387761
 H    0.651148   -0.165262   -2.291283
 H    2.966677   -0.203782   -1.387267
 H    1.407391   -1.017356    2.523122
 H   -0.892088   -0.991502    1.623039
 H    5.748665   -1.868048    0.560939
 H    7.773752   -0.757774   -0.384901
 H    7.741069    1.679692   -0.854363
 H    5.697220    3.001328   -0.365157
 H    3.692544    1.886253    0.590644
