39 
1zyj_ligand_xtb.xyz
 N   -4.271088    1.045372    0.423855
 C   -4.804045   -0.043382   -0.114836
 C   -6.087710   -0.053346   -0.654965
 C   -6.827625    1.114650   -0.628107
 C   -6.266328    2.252185   -0.064786
 C   -4.983068    2.159754    0.445429
 C   -3.962952   -1.289314   -0.093893
 N   -2.612183   -0.997988    0.312831
 C   -1.555027   -1.621764   -0.257861
 C   -0.213818   -1.136310    0.173479
 C    0.868109   -1.407694   -0.659803
 C    2.144025   -1.000726   -0.330170
 C    2.359789   -0.312013    0.860512
 C    1.288271   -0.065679    1.716986
 C    0.014649   -0.472086    1.376014
 O    3.595304    0.074139    1.295054
 C    4.586862    0.387244    0.399242
 C    5.892530    0.077195    0.764999
 C    6.941718    0.430369   -0.062297
 C    6.699447    1.090689   -1.255323
 C    5.400010    1.409186   -1.611540
 C    4.342119    1.065647   -0.789899
 O   -1.692644   -2.533001   -1.055516
 H   -6.486957   -0.958882   -1.085214
 H   -7.825905    1.140851   -1.040245
 H   -6.810378    3.182498   -0.024157
 H   -4.493168    3.013314    0.895984
 H   -3.933310   -1.762091   -1.082642
 H   -4.418003   -2.012716    0.599098
 H   -2.509900   -0.117329    0.796746
 H    0.685960   -1.953851   -1.573010
 H    2.975472   -1.227764   -0.981208
 H    1.479678    0.441361    2.650018
 H   -0.794796   -0.287204    2.066289
 H    6.063621   -0.435826    1.698517
 H    7.953121    0.184758    0.225194
 H    7.520012    1.360993   -1.902335
 H    5.204595    1.934902   -2.534405
 H    3.329836    1.328573   -1.060829
