87 
1zyr_ligand_dft.xyz
 C   -2.027862    0.560170   -0.927010
 C   -2.760155   -0.643568   -0.503521
 N   -4.101112   -0.299859   -0.487060
 C   -2.967543    1.609006   -1.166571
 C   -5.117433   -1.289508   -0.264986
 O   -2.716482    2.767393   -1.517907
 O   -2.321747   -1.752537   -0.234758
 C   -0.666989    0.743803   -1.092895
 C    0.309294   -0.296855   -0.853543
 C    1.629522   -0.096870   -1.031668
 C    2.666427   -1.100707   -0.809914
 C    3.943133   -0.730399   -1.024268
 C    5.189100   -1.551841   -0.867347
 C    2.228018   -2.469079   -0.356483
 O   -0.216614    1.921249   -1.490473
 O   -5.874975   -0.873009    0.860767
 C   -6.013798   -1.519109   -1.483135
 C    6.205417   -0.835109    0.035341
 C    5.809243   -1.856230   -2.239497
 C   -7.155731   -2.477151   -1.129030
 C    5.665611   -0.456219    1.420861
 O    6.627927    0.332273   -0.660281
 C    6.710217    0.440491    2.116654
 C    5.289454   -1.674541    2.260109
 C    7.540261    1.153990    0.042195
 C   -4.366343    1.082505   -0.868377
 C   -5.037424    1.968905    0.199030
 C   -6.556932    1.795259    0.173066
 C   -4.383723    1.825654    1.576167
 N   -7.232381    2.138259    1.286526
 O   -7.150458    1.454209   -0.852986
 C   -8.684767    2.135317    1.323066
 C   -6.864566   -1.814951    1.258739
 C   -7.891963   -2.011788    0.133294
 O   -8.677966   -0.863943   -0.091604
 C   -7.461675   -1.309105    2.556370
 O    6.989741    1.550531    1.273898
 C    8.869755    0.396088    0.283176
 C    7.721302    2.409879   -0.782018
 C    7.990978   -0.276309    2.463214
 C    9.577979   -0.160953   -0.877757
 C    9.010249   -0.256693    1.607546
 O   10.060256    1.001627   -0.224137
 H   -4.580404   -2.215230   -0.018231
 H   -0.106204   -1.244056   -0.526849
 H    1.966277    0.883240   -1.364395
 H    4.128597    0.291557   -1.354759
 H    4.960621   -2.504082   -0.378748
 H    1.715877   -2.411815    0.610938
 H    3.062470   -3.165458   -0.257424
 H    1.516512   -2.901194   -1.068986
 H   -0.999353    2.524431   -1.606242
 H   -5.402086   -1.926859   -2.294929
 H   -6.421394   -0.561515   -1.819702
 H    7.063945   -1.515283    0.161348
 H    6.033334   -0.930322   -2.775383
 H    5.123875   -2.454369   -2.847049
 H    6.744798   -2.415056   -2.120919
 H   -7.867425   -2.550432   -1.956739
 H   -6.751231   -3.482811   -0.951233
 H    4.778523    0.171014    1.272122
 H    6.270642    0.869223    3.022672
 H    6.105839   -2.405593    2.294585
 H    5.058454   -1.381266    3.290404
 H    4.402943   -2.172827    1.856255
 H   -4.971892    1.133351   -1.780036
 H   -4.871653    2.993807   -0.164135
 H   -4.635435    0.862056    2.024338
 H   -3.294651    1.887666    1.486358
 H   -4.680567    2.635747    2.251417
 H   -6.723618    2.322149    2.134549
 H   -9.083301    1.130569    1.153266
 H   -9.007844    2.496138    2.301259
 H   -9.079276    2.798499    0.548257
 H   -6.372433   -2.787780    1.435467
 H   -8.594979   -2.790886    0.450883
 H   -8.121967   -0.143330   -0.442256
 H   -8.214615   -2.011986    2.926335
 H   -7.941795   -0.342014    2.395559
 H   -6.680499   -1.199370    3.314280
 H    8.144800    2.175767   -1.760760
 H    8.388831    3.099956   -0.264732
 H    6.741473    2.873462   -0.914791
 H    8.061702   -0.787771    3.418754
 H   10.188735   -1.055488   -0.757511
 H    9.157860   -0.008425   -1.871315
 H    9.969186   -0.719054    1.826831
