60 
1zz2_ligand_xtb.xyz
 C   -6.871368    2.013690    1.360912
 C   -7.106684    3.210400    0.707347
 C   -6.466611    3.486967   -0.488454
 C   -5.597182    2.559544   -1.034350
 C   -5.355736    1.349704   -0.398056
 C   -5.999357    1.085649    0.815110
 O   -5.721739   -0.106948    1.450935
 C   -4.458704    0.309827   -1.017142
 N   -3.489100   -0.206551   -0.012604
 C   -2.656391   -1.376167   -0.425557
 C   -1.977146   -1.966156    0.810843
 C   -1.066003   -3.124360    0.391238
 N   -0.107477   -2.623243   -0.560932
 C   -0.721842   -2.160377   -1.783287
 C   -1.612698   -0.958211   -1.458967
 S    1.236425   -3.614969   -0.782960
 N    1.959427   -3.438894    0.701369
 O    0.822524   -4.976723   -0.861478
 O    1.996234   -3.028185   -1.832395
 C    2.724460   -2.305094    1.001878
 C    2.311277   -1.069169    0.528716
 C    3.030336    0.076184    0.848446
 C    4.162618   -0.010482    1.651555
 C    4.566702   -1.248955    2.115529
 C    3.861680   -2.395955    1.797409
 O    2.507561    1.263784    0.407865
 C    3.348365    2.312127    0.109439
 C    2.886063    3.595321    0.382912
 C    3.648756    4.695761    0.041887
 C    4.873426    4.495859   -0.570206
 C    5.346472    3.227192   -0.855861
 C    4.576981    2.130340   -0.516978
 F    5.620557    5.564204   -0.901093
 H   -7.368421    1.795127    2.295202
 H   -7.790324    3.925018    1.136144
 H   -6.645972    4.419646   -0.997300
 H   -5.107419    2.768342   -1.972725
 H   -6.299833   -0.207588    2.217676
 H   -3.925726    0.730648   -1.869386
 H   -5.058698   -0.538750   -1.358818
 H   -4.079906   -0.459313    0.806480
 H   -2.866405    0.555713    0.276897
 H   -3.332015   -2.119699   -0.860676
 H   -2.718420   -2.328385    1.524423
 H   -1.356960   -1.207420    1.291030
 H   -1.655380   -3.949089   -0.032555
 H   -0.507005   -3.502067    1.246234
 H   -1.317658   -2.954670   -2.255589
 H    0.084009   -1.879515   -2.460533
 H   -0.986253   -0.162425   -1.051890
 H   -2.080769   -0.610559   -2.379285
 H    2.334429   -4.311503    1.042185
 H    1.442659   -0.996467   -0.100541
 H    4.712888    0.879985    1.913582
 H    5.446077   -1.320480    2.736416
 H    4.187933   -3.356735    2.164501
 H    1.927991    3.717333    0.863195
 H    3.308876    5.697790    0.248421
 H    6.301106    3.107232   -1.342114
 H    4.922309    1.133076   -0.744229
