12 
220l_ligand_xtb.xyz
 C    1.331585   -0.379498   -0.000132
 C    0.994430    0.963356    0.000023
 C   -0.337102    1.342902   -0.000004
 C   -1.331597    0.379505    0.000057
 C   -0.994498   -0.963422   -0.000158
 C    0.337120   -1.342902    0.000170
 H    2.370663   -0.675483   -0.000631
 H    1.770416    1.715166    0.000443
 H   -0.599995    2.390894   -0.000271
 H   -2.370590    0.675951    0.000525
 H   -1.770479   -1.715344   -0.000737
 H    0.600361   -2.390831    0.000934
