53 
2a0c_ligand_xtb.xyz
 O    2.508415    0.401279    0.784946
 C    3.333205   -0.639356    0.545459
 C    4.318528   -0.903502    1.496975
 C    5.202592   -1.948382    1.328286
 C    5.120345   -2.752485    0.203453
 C    4.156212   -2.486817   -0.750298
 C    3.262577   -1.434260   -0.605135
 C    2.237605   -1.167454   -1.683931
 N    0.929964   -1.701071   -1.370330
 C   -0.065973   -0.980459   -0.829389
 C   -1.321798   -1.539246   -0.544853
 N   -1.853519   -2.799953   -0.663215
 C   -3.071254   -2.686293   -0.230654
 C   -2.288009   -0.668426   -0.019165
 N   -3.405392   -1.421335    0.174399
 C   -4.659649   -0.945323    0.712902
 C   -5.785501   -1.145490   -0.299910
 C   -4.965842   -1.639059    2.039226
 N   -2.114313    0.631442    0.217017
 C   -0.883131    1.051125   -0.076348
 N    0.127649    0.317175   -0.573228
 N   -0.642363    2.354327    0.175855
 C    0.527570    3.101182   -0.220752
 C    0.828735    4.175065    0.824898
 C    1.130375    3.557294    2.184509
 C    0.313217    3.709674   -1.624009
 O   -0.816970    4.543507   -1.689979
 H    1.711168    0.385946    0.201957
 H    4.363656   -0.268135    2.367792
 H    5.955663   -2.138702    2.078293
 H    5.805114   -3.575548    0.067664
 H    4.096912   -3.102227   -1.637466
 H    2.115069   -0.092459   -1.845691
 H    2.575758   -1.624994   -2.618025
 H    0.775763   -2.693796   -1.442589
 H   -3.763927   -3.503364   -0.190434
 H   -4.507086    0.126017    0.886658
 H   -5.537515   -0.661810   -1.241961
 H   -6.706733   -0.713175    0.081116
 H   -5.950515   -2.204299   -0.486237
 H   -5.118522   -2.705386    1.888074
 H   -5.866287   -1.218128    2.478316
 H   -4.141764   -1.501315    2.735488
 H   -1.424873    2.868773    0.548725
 H    1.366492    2.404974   -0.277336
 H   -0.022849    4.855565    0.895375
 H    1.688484    4.754239    0.485842
 H    1.966696    2.867308    2.104595
 H    0.271359    3.003467    2.554684
 H    1.380712    4.330747    2.906251
 H    0.230474    2.892004   -2.354196
 H    1.165541    4.335924   -1.893073
 H   -1.593347    4.009263   -1.484633
