58 
2a3x_ligand_xtb.xyz
 O   -4.497167    1.722518   -2.199947
 C   -5.361902    2.260018   -1.356347
 O   -5.820020    3.354485   -1.474648
 C   -5.698946    1.326853   -0.147613
 O   -5.508939    0.007393   -0.631750
 C   -5.451429   -0.981627    0.376119
 C   -7.122385    1.590197    0.337042
 O   -4.706474    1.673774    0.796398
 C   -4.577456    0.783929    1.884469
 C   -4.357310   -0.649366    1.396453
 O   -3.071592   -0.690417    0.787539
 C   -2.572925   -1.930347    0.544816
 O   -3.135439   -2.950062    0.867657
 N   -1.400190   -1.879418   -0.120821
 C   -0.662226   -0.666520   -0.396368
 C    0.635321   -0.660586    0.424153
 C   -0.660082   -3.098351   -0.373880
 C    0.641800   -3.089980    0.432405
 N    1.376159   -1.872606    0.158395
 C    2.549532   -1.930968   -0.504590
 O    3.107650   -2.955694   -0.818440
 O    3.049207   -0.695190   -0.770912
 C    4.346826   -0.679658   -1.357203
 C    4.585980    0.734199   -1.886980
 O    4.721874    1.657795   -0.827337
 C    5.425715   -0.993787   -0.313246
 O    5.504568    0.031721    0.654161
 C    5.718380    1.322927    0.128032
 C    7.138622    1.551065   -0.383613
 C    5.438258    2.247878    1.357119
 O    4.170181    2.607730    1.458102
 O    6.286846    2.561937    2.133762
 H   -4.317594    0.800258   -1.937125
 H   -5.226956   -1.918254   -0.136708
 H   -6.414804   -1.075205    0.891341
 H   -7.316889    1.121869    1.297780
 H   -7.253383    2.664912    0.426530
 H   -7.821534    1.204545   -0.400215
 H   -5.460510    0.813741    2.535347
 H   -3.707242    1.140751    2.437233
 H   -4.394808   -1.366792    2.224354
 H   -1.274818    0.198517   -0.149390
 H   -0.417115   -0.645569   -1.464453
 H    0.391931   -0.628190    1.492019
 H    1.245390    0.203062    0.168156
 H   -0.431658   -3.156713   -1.443158
 H   -1.287389   -3.942702   -0.087075
 H    1.271953   -3.936415    0.158176
 H    0.414742   -3.132621    1.502561
 H    4.389469   -1.419124   -2.165468
 H    3.725710    1.082097   -2.461841
 H    5.477612    0.738019   -2.525665
 H    6.386515   -1.143457   -0.821654
 H    5.170975   -1.898991    0.239280
 H    7.434600    0.798609   -1.109151
 H    7.193184    2.534992   -0.841808
 H    7.811969    1.515322    0.468103
 H    3.678659    2.288330    0.678534
