52 
2a4l_ligand_dft.xyz
 O    4.039014    1.640696   -0.148486
 C    3.314802    2.732613   -0.654649
 C    1.975954    2.976852    0.078284
 C    1.601472    4.463273    0.073595
 C    0.370751    4.807256    0.913428
 N    0.867402    2.223036   -0.495410
 C    0.689458    0.877768   -0.425293
 N    1.712396    0.129865    0.008878
 C    1.416482   -1.178677    0.004656
 N    2.227005   -2.218269    0.372454
 C    3.625946   -2.081146    0.787764
 C    4.526660   -1.871857   -0.429940
 C    4.061199   -3.271055    1.636594
 C    1.479538   -3.361212    0.163183
 C    0.223930   -1.756622   -0.393323
 N    0.275371   -3.131785   -0.287944
 N   -0.530878    0.448510   -0.827457
 C   -0.779243   -0.862190   -0.832672
 N   -1.969413   -1.327570   -1.266555
 C   -3.088765   -0.485586   -1.647195
 C   -4.098963   -0.289592   -0.535292
 C   -5.376291   -0.838515   -0.626524
 C   -6.298238   -0.669745    0.404719
 C   -5.944678    0.050751    1.540046
 C   -4.668176    0.603060    1.639518
 C   -3.751112    0.435075    0.609001
 H    3.376623    0.931778   -0.025854
 H    3.956089    3.612930   -0.530843
 H    3.100564    2.627353   -1.731154
 H    2.125373    2.654880    1.119637
 H    1.458834    4.793961   -0.964887
 H    2.460245    5.021889    0.460250
 H   -0.542903    4.335347    0.536646
 H    0.506791    4.478117    1.949319
 H    0.199737    5.888149    0.921646
 H    0.050351    2.723601   -0.807570
 H    3.656469   -1.177121    1.405679
 H    5.565702   -1.747291   -0.109778
 H    4.468431   -2.735211   -1.101899
 H    4.238153   -0.972783   -0.980857
 H    3.371206   -3.440389    2.468725
 H    5.055568   -3.076545    2.047534
 H    4.125551   -4.187974    1.040284
 H    1.882008   -4.342020    0.373105
 H   -2.130872   -2.314328   -1.124753
 H   -3.573820   -0.934839   -2.520362
 H   -2.667752    0.473708   -1.955652
 H   -5.656209   -1.403008   -1.513387
 H   -7.290060   -1.104069    0.319470
 H   -6.660784    0.183784    2.345718
 H   -4.388902    1.168476    2.524021
 H   -2.756028    0.866804    0.679676
