111 
2a4q_ligand_xtb.xyz
 C    5.513048    2.137367   -1.146236
 O    6.112791    2.886586   -1.891192
 C    6.225074    1.306175   -0.093526
 C    6.551607   -0.084987   -0.648128
 C    7.300130   -0.955704    0.362466
 C    6.473147   -1.403181    1.570383
 C    5.386440   -2.422657    1.227841
 C    4.753497   -3.008538    2.488873
 C    3.813580   -4.190864    2.206735
 N    4.166884    2.027574   -1.222492
 C    3.279273    1.102531   -0.573143
 C    2.246887    1.742586    0.400448
 C    2.851815    2.101576    1.762611
 C    1.490070    2.935583   -0.197518
 C    3.630648    3.413072    1.750489
 C    2.248977    4.259999   -0.136183
 C    2.727911    4.547265    1.281552
 C    2.457965    0.391916   -1.650335
 O    2.096862    0.944561   -2.669021
 N    2.162265   -0.900975   -1.373186
 C    1.062016   -1.520380   -2.082746
 C    0.954100   -3.021037   -1.748674
 C    1.082865   -3.251030   -0.267333
 C    2.312330   -3.616433    0.269860
 C    0.006339   -3.051930    0.587039
 C    0.174545   -3.180409    1.954192
 C    1.407244   -3.527789    2.477212
 C    2.488427   -3.770405    1.638541
 C   -0.224653   -0.788742   -1.683493
 O   -0.328591   -0.274807   -0.576610
 N   -1.167861   -0.764564   -2.624226
 C   -2.482161   -0.182136   -2.463772
 C   -2.704143    0.941347   -3.475584
 C   -1.717834    2.098924   -3.302849
 C   -1.925320    2.865136   -2.001336
 O   -3.052731   -2.538930   -2.132612
 C   -3.542403   -1.306957   -2.597865
 O   -5.154170    0.257765   -1.689695
 N   -5.518103   -1.956854   -1.387543
 C   -6.587335   -1.831890   -0.414848
 C   -5.926696   -1.583669    0.953554
 O   -5.795812   -2.441625    1.795161
 C   -4.821123   -0.906562   -1.846606
 N   -5.480507   -0.311461    1.069566
 C   -4.349304    0.006111    1.918612
 C   -4.296322    1.477066    2.229747
 C   -4.220447    2.393608    1.186586
 C   -4.315486    1.934031    3.539010
 C   -4.160803    3.748898    1.453681
 C   -4.258877    3.291767    3.803795
 C   -4.179874    4.200406    2.762838
 C   -3.084658   -0.450328    1.170672
 O   -2.022188    0.272252    1.410383
 O   -3.109530   -1.380487    0.393428
 H    5.628061    1.236682    0.814086
 H    7.159130    1.817415    0.145366
 H    7.179160    0.043231   -1.532561
 H    5.639679   -0.591014   -0.971559
 H    8.168116   -0.398487    0.721980
 H    7.671741   -1.845689   -0.151046
 H    6.023624   -0.538019    2.061347
 H    7.155654   -1.860630    2.291278
 H    5.835328   -3.231735    0.645842
 H    4.613448   -1.959301    0.611917
 H    5.553300   -3.360210    3.144922
 H    4.205172   -2.229921    3.024612
 H    4.308942   -4.878242    1.517671
 H    3.638255   -4.722152    3.144467
 H    3.741713    2.505373   -2.010037
 H    3.854564    0.362504   -0.013463
 H    1.505686    0.951770    0.576266
 H    2.029870    2.197965    2.476897
 H    3.488981    1.284010    2.111393
 H    0.559601    3.047742    0.365267
 H    1.222042    2.709691   -1.230617
 H    4.003348    3.618617    2.756774
 H    4.489236    3.342644    1.082211
 H    1.585794    5.059014   -0.475230
 H    3.112266    4.242749   -0.800659
 H    3.272308    5.492954    1.306011
 H    1.869448    4.633257    1.952561
 H    2.311656   -1.248504   -0.435089
 H    1.238964   -1.378844   -3.154035
 H    1.750364   -3.551531   -2.273333
 H   -0.008385   -3.387809   -2.111081
 H    3.144067   -3.805093   -0.395323
 H   -0.964153   -2.801807    0.187941
 H   -0.665128   -3.016617    2.613009
 H    1.528255   -3.631860    3.545726
 H   -0.986586   -1.209115   -3.511413
 H   -2.524894    0.223796   -1.451723
 H   -2.608425    0.529988   -4.484131
 H   -3.724087    1.306369   -3.350155
 H   -0.692745    1.723725   -3.343369
 H   -1.851730    2.783651   -4.142719
 H   -1.653746    2.260268   -1.140157
 H   -2.965104    3.168709   -1.901915
 H   -1.302733    3.756238   -1.989349
 H   -2.875492   -2.428542   -1.182212
 H   -3.785099   -1.459633   -3.656992
 H   -5.069764   -2.860781   -1.467572
 H   -7.223848   -0.989811   -0.694687
 H   -7.163069   -2.756313   -0.396586
 H   -5.572043    0.280981    0.249308
 H   -4.435302   -0.597892    2.829971
 H   -4.206391    2.048663    0.162333
 H   -4.375586    1.226872    4.353324
 H   -4.096860    4.453912    0.638430
 H   -4.276373    3.639959    4.825888
 H   -4.133229    5.259003    2.970668
 H   -1.281794    0.034824    0.786611
