24 
2a4z_ligand_xtb.xyz
 C    3.807431    0.958571   -0.009970
 C    4.171842   -1.387411    0.006765
 C   -1.992746   -0.151011   -0.003614
 C   -2.782175    0.998066    0.012180
 C   -0.624849   -0.106917   -0.010090
 C   -2.224698    2.255195    0.021832
 C   -4.102505   -0.750913   -0.003707
 C   -0.030522    1.168056   -0.000755
 C   -0.839673    2.314434    0.014480
 N    4.674514   -0.115835   -0.002984
 S    2.381624   -1.280113    0.006407
 C    2.410626    0.471139   -0.004884
 O    4.789060   -2.406433    0.014037
 O    4.158774    2.109415   -0.018429
 O   -2.834357   -1.248094   -0.011495
 O   -4.106237    0.614643    0.014168
 F   -4.787437   -1.229992    1.055153
 C    1.397444    1.361242   -0.006471
 F   -4.788733   -1.201436   -1.074922
 H   -0.044416   -1.012059   -0.023196
 H   -2.836697    3.140482    0.033814
 H   -0.364312    3.283114    0.021498
 H    5.676414    0.030117   -0.005223
 H    1.727989    2.394896   -0.011420
