33 
2a5b_ligand_xtb.xyz
 O   -4.493032   -0.502320    0.234667
 C   -3.283014   -0.560406    0.171558
 N   -2.629976   -1.816371    0.250144
 C   -1.286393   -2.017611    0.190072
 N   -0.806381   -3.272585    0.313533
 N   -0.426930   -1.037580    0.063262
 C   -0.964759    0.191782   -0.017493
 C   -2.318896    0.474762    0.021105
 N   -2.447129    1.848456   -0.109289
 C   -1.211797    2.419882   -0.237204
 O   -0.939368    3.588117   -0.364828
 N   -0.288894    1.367653   -0.166278
 C    1.138350    1.580139   -0.263175
 O    1.695398    0.668595   -1.176053
 C    1.857270    1.391557    1.085598
 C    2.661324    0.095336    0.901145
 O    3.923111    0.110467    1.515062
 C    2.845351    0.044109   -0.622520
 C    2.976288   -1.368610   -1.193354
 O    1.929065   -2.211295   -0.794545
 H   -3.252181   -2.607481    0.364985
 H   -1.415790   -4.061506    0.187935
 H    0.176088   -3.391655    0.114517
 H   -3.317137    2.352457   -0.133406
 H    1.237919    2.610280   -0.637958
 H    1.143398    1.338143    1.905317
 H    2.547149    2.216564    1.263056
 H    2.073253   -0.774008    1.226933
 H    3.809119    0.092579    2.471279
 H    3.746580    0.620320   -0.880035
 H    3.910306   -1.812351   -0.839538
 H    3.006165   -1.289749   -2.289256
 H    1.126552   -1.654751   -0.742256
