22 
2aa9_ligand_xtb.xyz
 O   -3.053064   -0.333263   -0.328312
 C   -1.684791   -0.112511   -0.578554
 C   -1.132145    1.008228    0.308957
 O   -1.963997    2.136264    0.115932
 C    0.319914    1.276851   -0.077910
 C    1.107266    0.000513   -0.107049
 C    2.576547    0.163500    0.003562
 O    3.261308   -0.968172   -0.207379
 O    3.125647    1.207184    0.257229
 C    0.544651   -1.204036   -0.195433
 C   -0.936728   -1.421791   -0.276146
 O   -1.370847   -1.961783    0.951308
 H   -3.467216    0.536828   -0.268216
 H   -1.534248    0.165734   -1.632768
 H   -1.184497    0.675309    1.357459
 H   -1.592307    2.882289    0.597514
 H    0.345099    1.746593   -1.066456
 H    0.795454    1.967555    0.623064
 H    4.211535   -0.798241   -0.107130
 H    1.149272   -2.096912   -0.161916
 H   -1.151869   -2.141319   -1.085371
 H   -2.331885   -1.844208    0.969032
