45 
2ad5_ligand_xtb.xyz
 N    1.350397   -1.884744    0.547956
 C    0.347535   -2.140828   -0.383592
 N   -0.923134   -2.206726    0.119309
 C   -1.242238   -2.115339    1.423245
 C   -0.162584   -2.046884    2.353456
 C    1.087864   -1.871004    1.872098
 O    0.603698   -2.318392   -1.551834
 N   -2.500096   -2.199087    1.802241
 C    2.715539   -1.652565    0.051238
 C    2.741426   -0.705502   -1.185609
 O    3.073067   -1.368495   -2.364808
 C    3.834647    0.313623   -0.811840
 C    3.794954    0.276521    0.721840
 O    3.505404   -1.077631    1.042926
 O    5.096138   -0.082729   -1.264058
 C    2.759927    1.235886    1.328143
 O    1.488455    1.049338    0.708633
 P    0.730465    2.299442    0.103872
 O    1.671895    2.764767   -1.085479
 O    0.396736    3.368011    1.052863
 O   -0.506954    1.653295   -0.621787
 P   -1.850515    1.385982    0.313498
 O   -2.210797    2.818483    0.837940
 O   -1.526379    0.376482    1.315937
 O   -2.930443    1.118741   -0.743793
 P   -3.650883   -0.416587   -0.935040
 O   -2.651660   -1.302393   -1.571843
 O   -4.227546   -0.794314    0.380697
 O   -4.771706    0.025445   -1.964496
 H   -1.684657   -2.019676   -0.612883
 H   -0.361263   -2.031964    3.409789
 H    1.947306   -1.715508    2.507134
 H   -2.682925   -2.029670    2.779729
 H    3.144462   -2.629997   -0.220408
 H    1.782822   -0.185395   -1.274479
 H    2.292598   -1.886695   -2.620966
 H    3.589158    1.311446   -1.195623
 H    4.780251    0.491883    1.143880
 H    4.954638   -0.634395   -2.048114
 H    2.644955    1.017482    2.393349
 H    3.092298    2.268295    1.205884
 H    1.406882    3.610863   -1.447256
 H   -1.418732    3.254208    1.197456
 H   -3.243190   -1.825834    1.167483
 H   -5.512441    0.397992   -1.487540
