45 
2ad5_ligand_dft.xyz
 N    1.415759   -1.828690    0.686361
 C    0.439591   -2.241908   -0.207836
 N   -0.849145   -2.268802    0.293869
 C   -1.177728   -2.048557    1.586949
 C   -0.113745   -1.812584    2.504878
 C    1.132398   -1.654062    2.005460
 O    0.689277   -2.543664   -1.359877
 N   -2.446538   -2.087618    1.957633
 C    2.786045   -1.597814    0.151521
 C    2.777933   -0.768753   -1.162003
 O    3.084168   -1.522557   -2.296582
 C    3.903924    0.243520   -0.918928
 C    3.880419    0.407079    0.597999
 O    3.517300   -0.885321    1.103193
 O    5.144978   -0.306980   -1.275528
 C    2.942570    1.483432    1.120667
 O    1.603527    1.210623    0.672943
 P    0.689617    2.337477    0.029545
 O    1.519149    2.693181   -1.293864
 O    0.320070    3.499304    0.867268
 O   -0.556563    1.494292   -0.495515
 P   -2.003800    1.462171    0.345658
 O   -2.384531    2.999409    0.453463
 O   -1.821487    0.709300    1.596937
 O   -3.001564    0.965781   -0.744503
 P   -3.640179   -0.610418   -0.987431
 O   -2.527565   -1.434562   -1.548213
 O   -4.330143   -1.006259    0.279409
 O   -4.681221   -0.225231   -2.144945
 H   -1.585435   -2.181084   -0.463747
 H   -0.320767   -1.644689    3.552105
 H    1.977116   -1.369276    2.617646
 H   -2.640760   -1.698959    2.870008
 H    3.253063   -2.572818   -0.014931
 H    1.822855   -0.248911   -1.269650
 H    2.319085   -2.103102   -2.439864
 H    3.712802    1.189744   -1.441572
 H    4.887359    0.620173    0.967631
 H    4.974542   -0.880579   -2.038654
 H    2.925787    1.477906    2.212926
 H    3.281266    2.465093    0.773894
 H    1.221251    3.522897   -1.693133
 H   -1.655154    3.492827    0.882344
 H   -3.203167   -1.883569    1.270621
 H   -5.526537    0.031015   -1.752957
