31 
2ada_ligand_xtb.xyz
 N   -3.661043    1.093920    0.442154
 C   -2.611607    1.931950    0.311036
 N   -1.429156    1.579566   -0.068166
 C   -1.323044    0.249965   -0.336107
 C   -2.336648   -0.706548   -0.231989
 C   -3.651051   -0.306560    0.195415
 O   -4.662823   -0.940104    0.361908
 N   -1.837698   -1.927156   -0.581844
 C   -0.591353   -1.718731   -0.883567
 N   -0.215225   -0.414289   -0.756725
 C    1.080528    0.197452   -0.965956
 C    1.484095    1.019048    0.287522
 O    1.337915    2.396409    0.110454
 C    2.959718    0.634512    0.482620
 O    3.819728    1.495449   -0.205080
 C    3.010950   -0.770290   -0.135909
 O    2.064133   -0.757753   -1.198355
 C    2.703982   -1.885262    0.870388
 O    1.514912   -1.582836    1.569048
 H   -4.556690    1.456017    0.747743
 H   -2.776413    2.974774    0.543730
 H    0.094918   -2.472143   -1.211155
 H    1.007169    0.859485   -1.844865
 H    0.904522    0.661040    1.146873
 H    0.385309    2.568629    0.023788
 H    3.221834    0.607302    1.548603
 H    3.376302    2.354257   -0.260757
 H    3.989641   -0.952736   -0.587525
 H    2.598789   -2.823946    0.312703
 H    3.549512   -1.975183    1.565791
 H    1.262623   -2.344320    2.102625
