31 
2ada_ligand_dft.xyz
 N   -3.770583    1.036277    0.381460
 C   -2.737535    1.910569    0.278583
 N   -1.527568    1.578085   -0.056232
 C   -1.407068    0.235714   -0.296562
 C   -2.377637   -0.750876   -0.206137
 C   -3.722270   -0.379261    0.165627
 O   -4.724589   -1.043335    0.308145
 N   -1.844355   -1.980544   -0.496842
 C   -0.584736   -1.733130   -0.756936
 N   -0.260003   -0.405088   -0.657079
 C    1.036005    0.241664   -0.858731
 C    1.495561    0.992233    0.411133
 O    1.247907    2.371807    0.363326
 C    3.003584    0.734991    0.393123
 O    3.639174    1.662373   -0.452093
 C    3.097251   -0.648995   -0.252048
 O    1.989825   -0.727250   -1.161781
 C    3.058367   -1.820796    0.712613
 O    1.909253   -1.704619    1.526552
 H   -4.684158    1.380381    0.649473
 H   -2.963840    2.949588    0.497446
 H    0.162019   -2.463135   -1.027640
 H    0.934607    0.946007   -1.693038
 H    1.045483    0.519692    1.290055
 H    0.284940    2.474042    0.247064
 H    3.435556    0.748159    1.402822
 H    3.131364    2.484620   -0.370501
 H    4.013542   -0.709827   -0.846789
 H    3.039138   -2.747236    0.121722
 H    3.981922   -1.815998    1.312306
 H    1.775297   -2.531895    2.000741
