65 
2aei_ligand_xtb.xyz
 C   -0.493903    1.245240   -0.202880
 N   -1.153613    0.475851    0.647738
 C    0.802868    0.950600   -0.585042
 O   -1.085305    2.363944   -0.658744
 C   -0.567804   -0.612843    1.120111
 C    1.484770   -0.174095   -0.085103
 F    1.467315    1.753402   -1.460368
 C   -2.361745    2.618427   -0.198728
 C    0.736924   -0.963063    0.803715
 O   -1.296034   -1.387292    1.955497
 N    2.771863   -0.371885   -0.456910
 C   -3.482896    1.897638   -0.623713
 C   -2.513690    3.684875    0.677135
 F    1.256897   -2.091768    1.353513
 C   -2.658290   -1.333881    1.689637
 C    3.550765   -1.584070   -0.305280
 C   -4.734287    2.250760   -0.119362
 C   -3.391665    0.776958   -1.592374
 C   -3.763527    4.025467    1.158957
 C   -3.127294   -1.880379    0.505429
 C   -3.533322   -0.756647    2.594750
 C    5.027493   -1.222184   -0.467236
 C    3.124289   -2.637508   -1.331156
 C   -4.875944    3.297731    0.768602
 O   -2.397266    0.147227   -1.859921
 O   -4.571500    0.516624   -2.163288
 C   -4.483237   -1.851276    0.209277
 C   -4.884491   -0.716563    2.293584
 C    5.515063   -0.267467    0.629344
 C   -5.360461   -1.253543    1.111890
 C   -4.964282   -2.391337   -1.090286
 C    6.944515    0.119554    0.379480
 N   -4.315945   -2.372409   -2.187733
 N   -6.247727   -2.854185   -1.102282
 C    7.985078   -0.651639    0.880849
 C    7.249581    1.227940   -0.400065
 C    9.301486   -0.320666    0.613545
 C    8.564946    1.561366   -0.669390
 C    9.594780    0.786929   -0.163411
 H    3.076945    0.226263   -1.213189
 H   -1.633866    4.234263    0.975124
 H    3.390769   -1.974310    0.702478
 H   -5.595194    1.685107   -0.438253
 H   -3.866158    4.852457    1.845397
 H   -2.423400   -2.328697   -0.181210
 H   -3.150749   -0.334099    3.509891
 H    5.182099   -0.758454   -1.445173
 H    5.622390   -2.136130   -0.438216
 H    2.071082   -2.877314   -1.208077
 H    3.701706   -3.547930   -1.198363
 H    3.281575   -2.267575   -2.342540
 H   -5.852581    3.550995    1.151880
 H   -4.515511   -0.294732   -2.707116
 H   -5.570606   -0.249909    2.984554
 H    5.423768   -0.760934    1.598836
 H    4.883390    0.622486    0.638529
 H   -6.411710   -1.186245    0.874418
 H   -3.381476   -1.979538   -2.116386
 H   -6.525973   -3.316725   -1.952631
 H   -6.639993   -3.205498   -0.246177
 H    7.760826   -1.516362    1.489572
 H    6.449176    1.838075   -0.794830
 H   10.100815   -0.928125    1.012689
 H    8.787147    2.427979   -1.275044
 H   10.622101    1.046660   -0.372208
