66 
2aez_ligand_xtb.xyz
 C    1.488544   -0.384942    0.916892
 C   -0.650782    0.223408   -0.945652
 C   -1.830312   -2.581257   -1.024893
 C    2.703527   -0.309394    1.853024
 C    0.314284    1.281545   -0.384224
 C   -2.350431   -1.326951   -0.291683
 C    3.966926   -0.387764    0.999950
 C   -0.368495    2.172530    0.685557
 C   -3.111852   -1.724806    1.000922
 C    3.942700   -1.686018    0.181639
 C   -0.918720    3.320752   -0.176524
 C   -4.581358   -1.583185    0.593556
 C    2.644249   -1.754123   -0.639092
 C    0.152700    3.440326   -1.264629
 C   -4.533535   -0.518262   -0.521708
 C    2.469625   -3.114070   -1.322458
 C    1.300996    4.389147   -0.897363
 C   -4.791710    0.917110   -0.027182
 O    1.535896    0.735522    0.088576
 O   -1.277853   -0.492437    0.104791
 O   -0.861659   -3.259043   -0.277544
 O    2.624452    0.884462    2.581532
 O    0.677815    2.117780   -1.445203
 O   -3.257184   -0.656394   -1.129025
 O    5.080736   -0.336633    1.857086
 O    0.516810    2.692192    1.631801
 O   -2.854925   -0.863353    2.080868
 O    5.090146   -1.685743   -0.627244
 O   -2.141839    3.020998   -0.781972
 O   -5.025259   -2.829429    0.128091
 O    1.499410   -1.589215    0.192985
 O    2.339445    4.294024   -1.835761
 O   -3.819076    1.418288    0.849406
 O    3.539977   -3.320852   -2.220748
 H    0.564965   -0.414070    1.505881
 H   -1.406495    0.752315   -1.534958
 H   -0.082413   -0.446232   -1.600017
 H   -2.669376   -3.265840   -1.165661
 H   -1.454390   -2.275663   -2.010652
 H    2.678214   -1.175346    2.533574
 H    3.980836    0.465366    0.304832
 H   -1.183782    1.624326    1.179023
 H   -2.882949   -2.762334    1.268271
 H    3.967199   -2.541000    0.880977
 H   -0.981784    4.235019    0.428794
 H   -5.175562   -1.246689    1.453605
 H    2.675610   -0.958052   -1.396863
 H   -0.293133    3.730921   -2.220689
 H   -5.273574   -0.744357   -1.299750
 H    2.446692   -3.894877   -0.551019
 H    1.508297   -3.122857   -1.848645
 H    1.660899    4.139497    0.109986
 H    0.951171    5.423125   -0.909804
 H   -5.785302    0.937190    0.446961
 H   -4.798335    1.587976   -0.889824
 H   -0.144797   -2.643155   -0.051409
 H    3.513337    1.079017    2.908057
 H    5.852395   -0.574534    1.328381
 H    1.240608    2.065469    1.809483
 H   -1.900562   -0.722218    2.124454
 H    4.944041   -2.306403   -1.356241
 H   -2.738803    2.617836   -0.126190
 H   -5.953260   -2.767958   -0.124970
 H    2.486549    3.350634   -1.986490
 H   -3.560213    0.719051    1.479953
 H    3.400624   -4.151765   -2.686950
