22 
2afw_ligand_xtb.xyz
 C   -3.085159   -0.010186    0.074009
 O   -4.133324   -0.618940    0.027423
 C   -2.832295    1.122669    1.042958
 N   -2.080096   -0.310110   -0.786614
 C   -0.725034    0.179211   -0.793047
 C    0.217472   -0.744808   -0.010197
 C    1.617853   -0.235970   -0.008154
 C    2.207741    0.881384   -0.532717
 N    2.636749   -0.919761    0.606790
 C    3.768273   -0.193813    0.425395
 N    3.538650    0.890004   -0.254320
 H   -2.644758    2.046623    0.500477
 H   -3.716688    1.248185    1.660869
 H   -1.978380    0.906117    1.680005
 H   -2.277653   -1.095149   -1.392572
 H   -0.697115    1.179417   -0.360972
 H   -0.382844    0.246786   -1.829464
 H    0.190385   -1.745585   -0.455054
 H   -0.143956   -0.838577    1.019750
 H    1.766083    1.679806   -1.092986
 H    4.724861   -0.493311    0.803226
 H    2.546429   -1.794650    1.096853
