29 
2ai8_ligand_dft.xyz
 C    3.391435    1.508802   -0.382026
 C    2.103153    1.170787    0.020156
 C    1.799320   -0.134476    0.409946
 C    2.807353   -1.099596    0.390059
 C    4.096697   -0.765154   -0.012012
 C    4.390336    0.539323   -0.399725
 C    0.386583   -0.511262    0.789347
 C   -0.397467   -1.005023   -0.439026
 C   -1.850612   -1.401030   -0.168964
 N   -2.817238   -0.277947   -0.434388
 O   -4.101360   -0.798631   -0.259956
 C   -2.646699    0.948125    0.417015
 O   -3.727891    1.742211    0.069407
 H    3.617181    2.529341   -0.674681
 H    1.330027    1.937421    0.042868
 H    2.586699   -2.118537    0.700496
 H    4.874027   -1.522560   -0.016321
 H    5.396990    0.801454   -0.708800
 H   -0.106892    0.350798    1.256233
 H    0.394142   -1.307416    1.543131
 H    0.108183   -1.891426   -0.833880
 H   -0.340384   -0.263997   -1.249086
 H   -2.029798   -1.704053    0.865418
 H   -2.196612   -2.200044   -0.826811
 H   -2.727396    0.005531   -1.419644
 H   -4.679913   -0.007924   -0.278688
 H   -1.685287    1.392878    0.144139
 H   -2.649060    0.608610    1.456979
 H   -4.017820    2.283947    0.815127
