59 
2ajb_ligand_dft.xyz
 N   -2.790532   -1.541382   -2.095914
 C   -2.916111   -0.697981   -0.849032
 C   -3.188936   -1.619973    0.386127
 C   -3.248548   -0.752223    1.652677
 C   -4.556603   -2.302387    0.196411
 C   -2.092165   -2.684134    0.552419
 C   -1.573646    0.049933   -0.799722
 O   -0.574057   -0.582945   -1.188812
 N   -1.522140    1.303185   -0.354899
 C   -0.256892    2.065591   -0.415788
 C    0.702913    1.724254    0.734438
 O    0.028576    1.663796    1.939270
 C   -0.727826    3.528309   -0.347559
 C   -2.047082    3.474900    0.426989
 C   -2.685003    2.173097   -0.050614
 N    1.364336    0.357315    0.510479
 C    2.860940    0.296184    0.566141
 C    3.367810    0.996828   -0.688280
 O    4.686305    1.041971   -0.710527
 C    3.351400   -1.162163    0.696485
 C    2.969188   -2.010394   -0.529098
 C    2.885314   -1.779558    2.019806
 C    3.615937   -3.395958   -0.525003
 O    2.625758    1.441070   -1.534367
 H   -1.799740   -1.837440   -2.147203
 H   -3.404025   -2.361443   -2.067095
 H   -3.004890   -1.017901   -2.950244
 H   -3.762827   -0.024797   -0.998815
 H   -4.090062   -0.052667    1.625572
 H   -3.402972   -1.399278    2.520322
 H   -2.322303   -0.192177    1.821748
 H   -4.568282   -3.057747   -0.600815
 H   -4.821145   -2.841265    1.110244
 H   -5.353231   -1.576681    0.001318
 H   -2.010478   -3.361184   -0.306311
 H   -1.108405   -2.239749    0.726261
 H   -2.335338   -3.310732    1.414635
 H    0.260543    1.848159   -1.353630
 H    1.515372    2.455481    0.728776
 H    0.545888    2.053541    2.656546
 H   -0.891183    3.893143   -1.365493
 H    0.011579    4.185467    0.115784
 H   -2.687917    4.333728    0.222194
 H   -1.866155    3.427938    1.502740
 H   -3.263940    2.329887   -0.967914
 H   -3.321644    1.719864    0.707286
 H    1.014838   -0.033907   -0.384427
 H    0.990480   -0.250189    1.246461
 H    3.176738    0.865843    1.447438
 H    4.985333    1.487465   -1.523320
 H    4.443734   -1.076751    0.727565
 H    3.269291   -1.486035   -1.445399
 H    1.875428   -2.126197   -0.579594
 H    1.818399   -2.045812    2.005255
 H    3.070918   -1.115166    2.870563
 H    3.426260   -2.707397    2.215887
 H    4.703046   -3.319181   -0.422780
 H    3.407434   -3.915580   -1.463466
 H    3.240808   -4.022150    0.289342
