50 
2am1_ligand_xtb.xyz
 C    6.911137    0.545080    0.310463
 C    3.176384    0.170742    0.137370
 C    4.356478    2.266429    0.545975
 C    6.173313   -2.328302   -0.265342
 C    0.809059   -0.102683   -0.002110
 C   -0.838859    1.840322   -0.372373
 C   -3.144015    1.529987    0.243239
 C   -5.620031   -1.095946   -0.795599
 C    5.501926    0.063127    0.175249
 C    4.343018    0.888362    0.301149
 C    5.182481   -1.233428   -0.070497
 S    3.460519   -1.500317   -0.166166
 C    7.877687   -0.485425   -0.271721
 N    1.898657    0.683531    0.195599
 N    4.342120    3.398527    0.740917
 C    7.543364   -1.881439    0.249697
 C   -0.521864    0.560889    0.091713
 O    0.916530   -1.297712   -0.210948
 C   -1.552736   -0.210429    0.623055
 C   -2.847572    0.253258    0.697495
 C   -2.135339    2.322848   -0.289151
Cl    0.336316    2.863968   -1.117986
 S   -4.075616   -0.905127    1.356442
 N   -4.700933   -1.772314    0.086549
 O   -5.155157   -0.175151    1.941408
 O   -3.349991   -1.832834    2.166395
Cl   -4.732895    2.146406    0.308398
 C   -3.803429   -2.689942   -0.571802
 C   -3.060212   -1.985313   -1.734028
 C   -4.869410   -0.532787   -2.026554
 O   -3.474446   -0.640576   -1.847332
 H    7.132047    0.704529    1.371153
 H    7.024564    1.509341   -0.190722
 H    6.239485   -2.570541   -1.331361
 H    5.843311   -3.231651    0.252034
 H   -6.090045   -0.308870   -0.207381
 H   -6.391675   -1.809126   -1.103551
 H    8.901449   -0.219380   -0.004825
 H    7.800912   -0.481081   -1.360970
 H    1.805249    1.677457    0.364646
 H    8.304081   -2.595439   -0.069021
 H    7.532991   -1.863175    1.341194
 H   -1.333504   -1.200340    0.993293
 H   -2.370027    3.310147   -0.653907
 H   -4.394732   -3.533653   -0.941597
 H   -3.115168   -3.051884    0.190179
 H   -3.250181   -2.508852   -2.682670
 H   -1.984054   -1.945157   -1.560653
 H   -5.067939    0.530865   -2.164446
 H   -5.166071   -1.072565   -2.937811
