48 
2am2_ligand_dft.xyz
 C    7.066655   -0.153548    0.402096
 C    6.400248   -2.495479   -0.166354
 C    3.271582   -0.080368    0.054624
 C    4.480585    1.979599    0.597627
 C   -0.417700    0.704247   -0.101258
 C   -1.520211   -0.002286    0.394751
 C   -2.752702    0.611642    0.519948
 C   -2.931234    1.943648    0.155425
 C   -4.498904   -1.586692   -1.137054
 C   -4.966065   -3.012021   -0.856091
 C    5.584220   -0.282581    0.194789
 C    5.233140   -1.552384   -0.117325
 C    4.456750    0.589217    0.299418
 S    3.523502   -1.763595   -0.295212
 C    7.590556   -1.493944   -0.183932
 N    2.025666    0.525565    0.078597
 N    4.438520    3.115767    0.835058
 C    0.846481   -0.107250   -0.202331
 O    0.802397   -1.298331   -0.459363
 C   -0.610793    2.036328   -0.481818
 C   -1.856170    2.652723   -0.352080
Cl    0.668721    3.001487   -1.180258
 S   -4.143804   -0.309086    1.163368
 N   -5.031512   -0.565201   -0.223356
 O   -4.920566    0.586993    2.005768
 O   -3.608220   -1.553463    1.699435
 C   -6.492883   -0.443560   -0.110148
 C   -7.127315   -0.131300   -1.459710
 H    7.299228   -0.057404    1.470200
 H    7.501388    0.716017   -0.100678
 H    6.402743   -3.150983   -1.042881
 H    6.423452   -3.138944    0.722497
 H   -1.394062   -1.040474    0.682906
 H   -3.900573    2.416680    0.270279
 H   -4.776124   -1.281157   -2.150984
 H   -3.406906   -1.535871   -1.095987
 H   -4.698578   -3.309448    0.160810
 H   -6.049431   -3.112163   -0.979812
 H   -4.486979   -3.700564   -1.559118
 H    8.457324   -1.875629    0.361486
 H    7.899325   -1.331425   -1.221199
 H    2.022391    1.514477    0.297750
 H   -1.970748    3.686816   -0.656106
 H   -6.691988    0.367398    0.590835
 H   -6.932303   -1.356645    0.313844
 H   -6.659604    0.748737   -1.911764
 H   -7.044479   -0.967502   -2.161275
 H   -8.192533    0.075254   -1.319204
