59 
2am4_ligand_dft.xyz
 C    3.680794   -0.570142   -0.731760
 O    3.367690   -0.494163    0.660814
 P    2.806040   -1.742152    1.478156
 O    4.065130   -2.726316    1.463369
 O    2.220622   -1.394940    2.776441
 O    1.821621   -2.497113    0.438155
 P    0.222603   -2.185808    0.260032
 O   -0.648383   -3.108100    0.993264
 O    0.042357   -2.122168   -1.301004
 O    0.150133   -0.639082    0.691368
 C   -0.623882   -0.195061    1.807130
 C   -1.045717    1.224352    1.474406
 O   -1.706914    1.245726    0.191227
 C   -3.091915    1.401062    0.335391
 C   -3.390161    1.380972    1.852276
 C   -2.047925    1.821760    2.451619
 O   -1.943372    3.218053    2.402052
 O   -4.381815    2.281411    2.246146
 N   -3.791787    0.328402   -0.399661
 C   -5.158968    0.488853   -0.519722
 O   -5.756969    1.424391    0.005475
 N   -5.789983   -0.470778   -1.261281
 C   -5.224582   -1.619682   -1.859211
 O   -5.927996   -2.388429   -2.478054
 C   -3.793220   -1.724865   -1.626402
 C   -3.151254   -0.772471   -0.928987
 C    4.852326    0.379902   -0.971144
 F    5.903303    0.052890   -0.136752
 C    4.428851    1.815054   -0.721088
 O    5.436987    2.738790   -1.074640
 C    3.216541    2.139575   -1.584282
 O    2.708959    3.416104   -1.286955
 C    2.104916    1.120569   -1.334534
 C    0.963321    1.294384   -2.322521
 O   -0.131152    0.435141   -2.056993
 O    2.594145   -0.212357   -1.514764
 H    3.935645   -1.596091   -1.004113
 H    3.926176   -3.502301    2.024223
 H    0.160724   -1.203483   -1.674297
 H    0.002589   -0.221389    2.703006
 H   -1.482825   -0.859663    1.947720
 H   -0.167375    1.867603    1.383537
 H   -3.408648    2.353460   -0.099544
 H   -3.627889    0.350219    2.154608
 H   -1.907924    1.436838    3.471924
 H   -2.841863    3.552170    2.557515
 H   -5.115664    2.180810    1.611120
 H   -6.792204   -0.362019   -1.356192
 H   -3.258920   -2.577637   -2.020759
 H   -2.088869   -0.816519   -0.748150
 H    5.190714    0.264195   -2.006675
 H    4.150027    1.924923    0.336083
 H    6.179407    2.613900   -0.470735
 H    3.527158    2.074431   -2.641202
 H    3.462268    4.022275   -1.308568
 H    1.734792    1.237379   -0.308620
 H    1.319639    1.045398   -3.326051
 H    0.645177    2.342039   -2.313722
 H   -0.632215    0.792316   -1.300823
