51 
2am9_ligand_xtb.xyz
 C    2.578883   -1.488200   -0.157457
 C    4.075735   -1.305556    0.065365
 C    4.543237    0.029599   -0.516894
 O    4.680235   -0.020848   -1.928577
 C    3.607707    1.128781   -0.100586
 C    2.375304    0.951715    0.359612
 C    1.544123    2.129839    0.777177
 C    0.188538    2.111486    0.078286
 C   -0.540075    0.803297    0.372610
 C    0.315452   -0.388508   -0.096264
 C    1.732951   -0.409126    0.546113
 C   -0.429315   -1.718278    0.094963
 C   -1.815840   -1.728184   -0.555171
 C   -2.649431   -0.550339   -0.059290
 C   -1.872931    0.738152   -0.364631
 C   -2.901984    1.847925   -0.136249
 C   -4.233026    1.216554   -0.589151
 C   -3.941935   -0.281476   -0.854193
 O   -4.986151   -1.139436   -0.461916
 C   -3.015850   -0.733359    1.414265
 C    1.682923   -0.710366    2.053046
 H    2.376720   -1.459640   -1.232106
 H    2.287589   -2.475542    0.202912
 H    4.625113   -2.116700   -0.416659
 H    4.303610   -1.327279    1.131099
 H    5.556136    0.255599   -0.162950
 H    3.804732   -0.160181   -2.306745
 H    3.995706    2.131206   -0.223439
 H    2.073808    3.056106    0.547514
 H    1.388365    2.096202    1.858705
 H   -0.410923    2.958042    0.417175
 H    0.335121    2.213374   -1.000018
 H   -0.720993    0.740677    1.448056
 H    0.468104   -0.249217   -1.175526
 H   -0.533165   -1.929701    1.157801
 H    0.154875   -2.527198   -0.345177
 H   -2.319136   -2.669817   -0.330229
 H   -1.706376   -1.659033   -1.640826
 H   -1.648081    0.725086   -1.439404
 H   -2.667347    2.741946   -0.712407
 H   -2.937059    2.128425    0.916358
 H   -4.619627    1.700461   -1.486484
 H   -4.993707    1.296954    0.188052
 H   -3.733601   -0.429064   -1.927070
 H   -5.778245   -0.902528   -0.954388
 H   -2.137897   -0.879503    2.034155
 H   -3.654823   -1.607895    1.504096
 H   -3.565511    0.122679    1.791226
 H    2.650401   -0.500761    2.503755
 H    1.445781   -1.756101    2.230933
 H    0.940955   -0.098069    2.556235
