51 
2ama_ligand_dft.xyz
 C    2.522217   -1.522510   -0.435578
 C    4.026774   -1.484589   -0.125060
 C    4.640185   -0.118297   -0.362804
 O    5.694441    0.029045   -0.943284
 C    3.844244    1.050543    0.184626
 C    2.349861    0.951911   -0.161063
 C    1.571119    2.155797    0.369041
 C    0.123020    2.124998   -0.114119
 C   -0.574822    0.807742    0.232645
 C    0.243646   -0.411819   -0.268794
 C    1.712828   -0.403922    0.257461
 C   -0.498155   -1.742684   -0.029331
 C   -1.942442   -1.741755   -0.555577
 C   -2.732267   -0.552891   -0.005693
 C   -1.974585    0.736900   -0.369323
 C   -2.979645    1.863040   -0.078690
 C   -4.358748    1.219264   -0.384537
 C   -4.071357   -0.271421   -0.702783
 O   -5.074655   -1.166274   -0.268046
 C   -2.970118   -0.715019    1.504953
 C    1.754336   -0.616762    1.782037
 H    2.380649   -1.436578   -1.521792
 H    2.138068   -2.506172   -0.147045
 H    4.190532   -1.735835    0.932332
 H    4.575983   -2.218639   -0.720459
 H    4.276023    1.974047   -0.212343
 H    3.977745    1.075081    1.275686
 H    2.279191    0.989369   -1.260539
 H    1.603180    2.165991    1.467234
 H    2.058636    3.080735    0.037463
 H    0.106020    2.259162   -1.206412
 H   -0.435662    2.966290    0.312647
 H   -0.668192    0.756608    1.326580
 H    0.318661   -0.288074   -1.363232
 H    0.043987   -2.559811   -0.516315
 H   -0.504667   -1.977457    1.041362
 H   -1.923125   -1.676694   -1.653255
 H   -2.434793   -2.687921   -0.302346
 H   -1.837650    0.711424   -1.464410
 H   -2.916345    2.176477    0.970025
 H   -2.788424    2.751876   -0.686708
 H   -5.026198    1.268251    0.482026
 H   -4.869680    1.715218   -1.216421
 H   -3.917003   -0.389268   -1.788593
 H   -5.886127   -0.953368   -0.742469
 H   -3.583234   -1.601847    1.684962
 H   -3.499251    0.140620    1.935390
 H   -2.033353   -0.830661    2.056340
 H    1.093259    0.069436    2.318004
 H    2.759191   -0.475387    2.191052
 H    1.447736   -1.636189    2.037410
