71 
2ank_ligand_xtb.xyz
 C    1.082312   -2.309370    2.681710
 C    1.399076   -0.934759    2.138797
 N    1.121783   -0.897585    0.705345
 C    1.012273    0.437932    0.105553
 C   -0.291322    1.108297    0.552714
 C    2.195590    1.381113    0.395678
 C    3.560991    0.837159   -0.047426
 C    4.665392    1.778363    0.441947
 C    6.043450    1.259413    0.042911
 C    6.135675    1.099199   -1.470602
 C    5.039647    0.163896   -1.969356
 C    3.661151    0.683493   -1.566616
 O   -0.872148    0.799679    1.581636
 N   -0.753027    2.059019   -0.276059
 C   -2.140811    2.531134   -0.201498
 C   -2.966758    1.253307   -0.409812
 O   -2.778585    0.576808   -1.406517
 N   -3.826408    0.877315    0.555053
 C   -4.499809   -0.414333    0.476693
 C   -3.513505   -1.453225    0.011499
 C   -3.730906   -2.315684   -1.061065
 C   -2.681222   -3.069560   -1.560199
 C   -1.405802   -2.910730   -1.028099
 N   -1.247853   -2.131538    0.047265
 C   -2.254790   -1.466849    0.595452
 O    1.605433   -2.510923    3.876279
 O    0.414644   -3.124164    2.090172
 C   -0.180641   -3.578830   -1.576119
 N    0.804421   -3.959001   -0.875920
 N   -0.197257   -3.802300   -2.913170
 C   -2.369594    3.358261    1.065355
 C   -2.405707    3.540363   -1.329822
 C   -1.689809    4.682007    0.717987
 C   -2.064771    4.925019   -0.750064
 H    2.429475   -0.679308    2.411134
 H    0.726435   -0.229077    2.636351
 H   -0.270354   -1.914122    0.420915
 H    1.844858   -1.416355    0.211408
 H    0.938181    0.274638   -0.975614
 H    2.012240    2.328880   -0.114992
 H    2.222502    1.591484    1.467211
 H    3.730288   -0.144502    0.410696
 H    4.610366    1.880669    1.528088
 H    4.511720    2.767926    0.006043
 H    6.222943    0.294258    0.522218
 H    6.809692    1.952327    0.392545
 H    6.025558    2.075554   -1.947206
 H    7.113966    0.702108   -1.743954
 H    5.092151    0.072993   -3.055533
 H    5.190945   -0.831285   -1.544250
 H    2.899288   -0.008116   -1.936439
 H    3.491020    1.654845   -2.037016
 H   -0.271482    2.230732   -1.145353
 H   -3.885763    1.404527    1.409820
 H   -5.333029   -0.358420   -0.231494
 H   -4.890228   -0.658031    1.466177
 H   -4.701977   -2.366108   -1.529428
 H   -2.835820   -3.745501   -2.386010
 H   -2.023623   -0.863293    1.461368
 H    1.384829   -3.389656    4.227888
 H    0.709980   -3.867770    0.129012
 H    0.636765   -4.211477   -3.301156
 H   -0.782666   -3.259862   -3.522718
 H   -3.438595    3.525438    1.204043
 H   -1.950197    2.888884    1.951822
 H   -1.824663    3.297603   -2.218286
 H   -3.457488    3.485089   -1.610238
 H   -2.016156    5.491753    1.366177
 H   -0.609819    4.576652    0.824133
 H   -1.248976    5.397411   -1.293477
 H   -2.929396    5.582852   -0.817752
