34 
2ans_ligand_dft.xyz
 C    0.051450    1.153411    0.394192
 C   -0.250486    2.502247    0.356523
 C    0.734054    3.474018    0.123890
 C    2.043431    3.099921   -0.017033
 C    2.401728    1.730726    0.005841
 C    3.768362    1.370085   -0.127135
 C    4.156286    0.062446   -0.152633
 C    3.179085   -0.951789   -0.103352
 N   -0.937894    0.225877    0.711702
 S    0.704430   -2.032569   -0.062488
 C    1.845212   -0.643991    0.026025
 C    1.399519    0.719102    0.150064
 C   -2.271848    0.251645    0.298478
 C   -3.221065   -0.444296    1.056089
 C   -4.549746   -0.481416    0.653884
 C   -4.960521    0.182110   -0.499080
 C   -4.015032    0.869120   -1.255364
 C   -2.679724    0.901356   -0.871972
 O    0.182706   -2.328729    1.258887
 O   -0.153129   -1.898769   -1.223412
 O    1.702359   -3.271691   -0.395886
 H   -1.274488    2.805727    0.546476
 H    0.454121    4.522624    0.103606
 H    2.825677    3.841158   -0.150528
 H    4.503931    2.165679   -0.207385
 H    5.202772   -0.209006   -0.241854
 H    3.485490   -1.986082   -0.182727
 H   -0.707662   -0.478164    1.399136
 H   -2.907766   -0.962220    1.958752
 H   -5.270143   -1.030384    1.253442
 H   -6.000898    0.158511   -0.807289
 H   -4.314159    1.378032   -2.167307
 H   -1.948494    1.413059   -1.488785
 H    1.606287   -3.453629   -1.344852
