125 
2aoc_ligand_xtb.xyz
 C    4.014363   -1.823144   -2.180704
 O    2.986002   -1.831076   -1.516930
 C    4.024009   -1.938244   -3.683836
 N    5.229168   -1.668519   -1.623845
 C    5.459055   -1.755115   -0.195845
 C    4.810459   -0.612862    0.585016
 O    4.573203   -0.705828    1.776040
 C    6.982695   -1.721617    0.077478
 O    7.592371   -2.459762   -0.967609
 C    7.281022   -2.279437    1.465814
 C    8.999019   -2.368482   -1.008731
 N    4.600289    0.516690   -0.106735
 C    3.981424    1.678098    0.510657
 C    2.476186    1.384284    0.538096
 O    1.743382    1.693248   -0.399040
 C    4.300603    2.962867   -0.258745
 C    5.804973    3.122869   -0.523947
 C    3.726796    4.158139    0.501229
 C    6.684593    3.051763    0.719851
 N    2.068144    0.724853    1.619441
 C    0.738840    0.154940    1.802886
 C   -0.302411    1.247555    2.092588
 C    0.776908   -0.861107    2.946417
 C    1.745304   -2.027553    2.736515
 C    1.475860   -2.830138    1.464155
 C    2.255968   -4.139398    1.471926
 N   -0.803829    1.868416    0.868685
 C   -1.783477    2.926166    1.139795
 C   -3.033012    2.240830    1.712332
 O   -3.272998    2.217972    2.900281
 C   -2.049008    3.744175   -0.126150
 C   -0.875607    4.661515   -0.476135
 C   -1.160810    5.500406   -1.719898
 C    0.021610    6.393741   -2.073103
 N   -3.804579    1.613268    0.803320
 C   -4.872324    0.708209    1.173705
 C   -4.826241   -0.448789    0.176716
 O   -4.361759   -0.275509   -0.948137
 C   -6.238770    1.417538    1.193603
 C   -6.642721    1.973222   -0.169757
 C   -7.123161    0.877033   -1.103161
 O   -7.458129   -0.225148   -0.710054
 N   -7.178457    1.219873   -2.400198
 N   -5.228550   -1.638634    0.619253
 C   -5.191794   -2.831635   -0.206143
 C   -6.463063   -3.686364    0.002249
 O   -6.409114   -4.889288    0.111197
 C   -3.955922   -3.693320    0.087493
 C   -2.614551   -3.009598   -0.170198
 C   -2.384424   -2.671527   -1.649150
 N   -1.069481   -2.098677   -1.879548
 C   -0.697441   -0.873352   -1.481839
 N    0.573049   -0.511519   -1.609356
 N   -1.580010    0.003615   -1.028833
 N   -7.593225   -2.968387    0.069363
 H    4.797566   -1.314573   -4.122593
 H    4.223356   -2.974290   -3.953578
 H    3.054193   -1.659240   -4.087261
 H    6.059381   -1.860127   -2.171489
 H    5.045428   -2.694193    0.194457
 H    7.330029   -0.673986    0.016187
 H    8.303877   -2.062926    1.760725
 H    7.133133   -3.356776    1.464938
 H    6.608006   -1.830570    2.190455
 H    9.323961   -1.321825   -1.022182
 H    9.305879   -2.857670   -1.931011
 H    9.463499   -2.877856   -0.161187
 H    4.703225    0.519422   -1.109219
 H    4.356643    1.740758    1.536829
 H    3.789430    2.902167   -1.227064
 H    5.955227    4.089030   -1.008921
 H    6.133227    2.355637   -1.229407
 H    4.138473    4.219158    1.505037
 H    3.957427    5.081149   -0.023510
 H    2.645745    4.073524    0.579406
 H    6.629692    2.072273    1.189328
 H    7.720368    3.234357    0.444358
 H    6.396507    3.804482    1.447683
 H    2.774767    0.420817    2.278075
 H    0.452653   -0.354504    0.878457
 H    0.138230    1.991925    2.772237
 H   -1.154425    0.800319    2.609703
 H    1.037054   -0.340300    3.870368
 H   -0.231664   -1.261247    3.066967
 H    1.649133   -2.690806    3.598418
 H    2.777398   -1.676473    2.714865
 H    0.406416   -3.043914    1.383865
 H    1.778915   -2.251214    0.590284
 H    2.124503   -4.672695    0.533349
 H    3.315943   -3.939959    1.609415
 H    1.923663   -4.782455    2.283357
 H   -1.269466    0.796395   -0.432388
 H   -0.011319    2.269463    0.367393
 H   -1.422248    3.601548    1.933194
 H   -2.940249    4.354054    0.034423
 H   -2.235341    3.076789   -0.971023
 H   -0.672448    5.327046    0.365660
 H    0.022588    4.066514   -0.658908
 H   -1.378375    4.837686   -2.560787
 H   -2.043831    6.118595   -1.545680
 H   -0.195920    6.981636   -2.960789
 H    0.908164    5.793776   -2.266758
 H    0.241438    7.076717   -1.255946
 H   -3.568515    1.619679   -0.177700
 H   -4.662188    0.349664    2.188244
 H   -7.001571    0.712791    1.528030
 H   -6.171177    2.228987    1.918627
 H   -7.475360    2.668995   -0.039453
 H   -5.817591    2.518746   -0.628557
 H   -7.529622    0.554152   -3.069507
 H   -6.934108    2.138539   -2.723908
 H   -5.619735   -1.727383    1.544443
 H   -5.184349   -2.496023   -1.248694
 H   -4.041441   -4.596096   -0.517387
 H   -3.999970   -4.003792    1.132970
 H   -2.545586   -2.097254    0.426789
 H   -1.820443   -3.682066    0.161109
 H   -3.142385   -1.967269   -1.997763
 H   -2.459276   -3.577754   -2.250590
 H   -0.329353   -2.727803   -2.148557
 H    1.326927   -1.180472   -1.751594
 H    0.863275    0.409241   -1.280179
 H   -2.571800   -0.208448   -1.064221
 H   -8.464055   -3.469718    0.141324
 H   -7.622522   -1.988091   -0.177031
