125 
2aod_ligand_xtb.xyz
 C    4.014909   -1.825724   -2.179313
 O    2.986609   -1.833420   -1.515445
 C    4.024770   -1.941761   -3.682374
 N    5.229734   -1.670208   -1.622799
 C    5.460434   -1.755132   -0.194856
 C    4.810406   -0.613317    0.585303
 O    4.572514   -0.706081    1.776214
 C    6.984171   -1.718461    0.077464
 O    7.594514   -2.457031   -0.966887
 C    7.284252   -2.273747    1.466414
 C    9.000977   -2.363258   -1.008717
 N    4.599589    0.515828   -0.106887
 C    3.980508    1.677177    0.510364
 C    2.475229    1.383499    0.537425
 O    1.742607    1.692792   -0.399783
 C    4.300373    2.962026   -0.258593
 C    5.804896    3.121556   -0.523350
 C    3.726858    4.157224    0.501710
 C    6.684164    3.049752    0.720654
 N    2.067012    0.723925    1.618601
 C    0.737543    0.154603    1.802628
 C   -0.303110    1.247779    2.092186
 C    0.775569   -0.860965    2.946551
 C    1.742904   -2.028220    2.736303
 C    1.471893   -2.830752    1.464208
 C    2.250434   -4.140946    1.471744
 N   -0.804380    1.868502    0.868150
 C   -1.783679    2.926584    1.139335
 C   -3.033112    2.241853    1.712450
 O   -3.273755    2.220544    2.900252
 C   -2.049760    3.744199   -0.126701
 C   -0.876212    4.660903   -0.477506
 C   -1.162187    5.500009   -1.720906
 C    0.019935    6.393485   -2.074808
 N   -3.803909    1.612872    0.803769
 C   -4.871415    0.707730    1.174419
 C   -4.825480   -0.449137    0.177334
 O   -4.360750   -0.275867   -0.947392
 C   -6.237923    1.416999    1.194753
 C   -6.641287    1.974439   -0.168024
 C   -7.119391    0.879110   -1.103639
 O   -7.455358   -0.223434   -0.712280
 N   -7.171422    1.222840   -2.400548
 N   -5.228440   -1.638915    0.619536
 C   -5.192164   -2.831716   -0.206252
 C   -6.464255   -3.685427    0.001638
 O   -6.411277   -4.888353    0.111222
 C   -3.956839   -3.694206    0.087246
 C   -2.615219   -3.010926   -0.170251
 C   -2.384851   -2.672288   -1.649049
 N   -1.069607   -2.099977   -1.879042
 C   -0.697137   -0.874518   -1.481998
 N    0.573534   -0.513353   -1.609433
 N   -1.579421    0.003196   -1.029968
 N   -7.593833   -2.966414    0.067619
 H    4.795710   -1.314998   -4.121382
 H    4.228583   -2.977052   -3.951633
 H    3.053814   -1.666888   -4.085860
 H    6.059847   -1.862121   -2.170482
 H    5.048835   -2.694583    0.196655
 H    7.329543   -0.670280    0.014327
 H    8.306570   -2.054247    1.760894
 H    7.139171   -3.351453    1.466777
 H    6.610227   -1.825781    2.190662
 H    9.323951   -1.316003   -1.024344
 H    9.308445   -2.853709   -1.930116
 H    9.466653   -2.870083   -0.160288
 H    4.703653    0.518742   -1.109246
 H    4.355455    1.739551    1.536642
 H    3.789397    2.901859   -1.227043
 H    5.955547    4.087846   -1.007934
 H    6.133094    2.354436   -1.228963
 H    4.138464    4.217712    1.505568
 H    3.957890    5.080355   -0.022633
 H    2.645781    4.072844    0.579818
 H    6.629469    2.069891    1.189404
 H    7.719953    3.232911    0.445622
 H    6.395721    3.801843    1.448994
 H    2.773596    0.419796    2.277240
 H    0.450607   -0.355018    0.878543
 H    0.137849    1.992196    2.771599
 H   -1.155297    0.801123    2.609526
 H    1.036710   -0.340008    3.870152
 H   -0.233182   -1.260388    3.067919
 H    1.646682   -2.691268    3.598357
 H    2.775289   -1.677992    2.713941
 H    0.402138   -3.043285    1.384472
 H    1.775301   -2.252380    0.590091
 H    2.117743   -4.674235    0.533329
 H    3.310736   -3.942709    1.608418
 H    1.917860   -4.783431    2.283513
 H   -1.268852    0.796112   -0.433795
 H   -0.011743    2.269268    0.366800
 H   -1.421844    3.602211    1.932275
 H   -2.940572    4.354514    0.034439
 H   -2.237050    3.076784   -0.971340
 H   -0.672108    5.326297    0.364158
 H    0.021520    4.065482   -0.661030
 H   -1.380355    4.837462   -2.561777
 H   -2.045129    6.118133   -1.546017
 H   -0.198590    6.982020   -2.961859
 H    0.906197    5.793538   -2.269913
 H    0.240747    7.075799   -1.257330
 H   -3.567631    1.618720   -0.177210
 H   -4.661062    0.348964    2.188845
 H   -7.000901    0.711844    1.527923
 H   -6.170508    2.227569    1.920749
 H   -7.475056    2.668749   -0.037341
 H   -5.816570    2.521973   -0.625100
 H   -7.520920    0.557497   -3.071114
 H   -6.926260    2.141718   -2.723033
 H   -5.620009   -1.727738    1.544564
 H   -5.184316   -2.495684   -1.248665
 H   -4.042792   -4.596746   -0.517906
 H   -4.001050   -4.004894    1.132641
 H   -2.545991   -2.098778    0.426995
 H   -1.821354   -3.683821    0.160729
 H   -3.142505   -1.967576   -1.997424
 H   -2.460084   -3.578256   -2.250880
 H   -0.329687   -2.729611   -2.147357
 H    1.327362   -1.182632   -1.750408
 H    0.863660    0.407826   -1.281403
 H   -2.571295   -0.208692   -1.064663
 H   -8.465199   -3.466912    0.139179
 H   -7.621909   -1.986163   -0.179200
