29 
2aox_ligand_xtb.xyz
 C   -3.484847   -0.936240   -0.417448
 C   -2.262831   -1.714618    0.048868
 C   -1.012163   -0.880839    0.026969
 C   -1.073111    0.524082    0.023678
 C   -2.389214    1.260673    0.032626
 C   -3.571510    0.359904    0.376620
 N    0.110963   -1.557784    0.011817
 C    1.278915   -0.894135    0.012084
 C    1.352885    0.524518   -0.005564
 C    0.118964    1.239280   -0.029335
 C    2.471149   -1.648210    0.021050
 C    3.687591   -1.027271    0.018860
 C    3.764054    0.372345    0.009833
 C    2.624756    1.130091   -0.002599
 N    0.112082    2.614011   -0.045615
 H   -4.385836   -1.535362   -0.273121
 H   -3.397210   -0.708782   -1.482327
 H   -2.093602   -2.600868   -0.564226
 H   -2.419012   -2.059841    1.075476
 H   -2.554602    1.700868   -0.959529
 H   -2.341054    2.080419    0.755958
 H   -3.556294    0.127003    1.443569
 H   -4.504230    0.885711    0.160876
 H    2.381193   -2.723044    0.033418
 H    4.598645   -1.607932    0.027132
 H    4.731896    0.852642    0.014540
 H    2.715212    2.207819    0.005528
 H   -0.728240    3.061608   -0.368752
 H    0.963985    3.068687   -0.325815
