45 
2arm_ligand_xtb.xyz
 C   -4.233086    1.308589    1.328780
 N   -4.282735    0.157418    0.419170
 C   -3.696314   -1.130909    0.908332
 C   -3.884582   -2.037796   -0.313984
 C   -3.830783   -1.082459   -1.524408
 C   -3.614423    0.307243   -0.914544
 C   -2.142033    0.635023   -0.725876
 C   -1.406174   -0.454717    0.072403
 C   -2.229720   -0.936615    1.270062
 O   -0.189885    0.073174    0.585536
 C    0.793748    0.274469   -0.317055
 O    0.672391   -0.024729   -1.472774
 C    1.987893    0.928866    0.329627
 C    2.201513    2.276017   -0.378602
 O    1.013025    3.029736   -0.234933
 C    3.216477    0.052486    0.237676
 C    3.937766   -0.242261    1.386773
 C    5.077013   -1.025310    1.316429
 C    5.501800   -1.524862    0.097488
 C    4.782521   -1.238963   -1.050502
 C    3.645887   -0.452193   -0.983101
 H   -3.207623    1.574265    1.566986
 H   -4.716321    2.164282    0.859980
 H   -4.758711    1.067836    2.251436
 H   -5.270704   -0.032564    0.225607
 H   -4.251467   -1.478707    1.782454
 H   -4.843360   -2.553756   -0.268489
 H   -3.109407   -2.798055   -0.356891
 H   -3.025449   -1.332591   -2.210016
 H   -4.762159   -1.117793   -2.088981
 H   -4.103993    1.100604   -1.483451
 H   -2.005592    1.594970   -0.225155
 H   -1.670546    0.727026   -1.705287
 H   -1.159189   -1.290019   -0.594719
 H   -2.114495   -0.222027    2.085324
 H   -1.828166   -1.884750    1.628074
 H    1.737045    1.121563    1.375588
 H    2.419975    2.098697   -1.438953
 H    3.054176    2.790299    0.081063
 H    1.162882    3.910062   -0.595748
 H    3.610943    0.144922    2.341098
 H    5.632513   -1.244401    2.215646
 H    6.389523   -2.136105    0.042701
 H    5.107887   -1.627970   -2.003324
 H    3.082118   -0.242799   -1.878772
