55 
2asu_ligand_xtb.xyz
 N    2.322569   -1.171254   -0.530532
 C    3.536236   -0.376878   -0.301405
 C    3.095948    0.854810    0.495670
 O    3.017583    1.967961    0.021003
 C    4.227534    0.058637   -1.590292
 S    4.734214   -1.438113   -2.530293
 N    2.751739    0.569820    1.768619
 C    2.027062    1.534867    2.575613
 C    0.623048    1.649868    1.981571
 O   -0.278284    0.876473    2.296436
 N    0.480664    2.591595    1.052175
 C   -0.745203    2.674417    0.285382
 C   -1.044878    1.316457   -0.370079
 O   -0.174367    0.526173   -0.688851
 C   -0.609281    3.739377   -0.795971
 N   -2.352256    1.098516   -0.570220
 C   -2.882060    0.012256   -1.361844
 C   -4.339065    0.345771   -1.662663
 O   -4.902675    1.296522   -1.191301
 C   -2.766341   -1.358566   -0.672337
 C   -3.461273   -1.428424    0.696657
 C   -2.473531   -1.491692    1.868248
 N   -1.627437   -2.668117    1.754590
 C   -0.369576   -2.694227    1.307005
 N    0.431535   -1.652327    1.366401
 N    0.112967   -3.855063    0.828191
 O   -4.896644   -0.527385   -2.484222
 H    1.633485   -0.584521   -1.003447
 H    1.254678   -1.572925    0.723989
 H    2.552547   -1.934157   -1.163948
 H    4.228815   -0.983926    0.294816
 H    5.115501    0.645720   -1.362829
 H    3.545718    0.647608   -2.204203
 H    5.328987   -0.787736   -3.520759
 H    2.766625   -0.386345    2.083148
 H    1.973331    1.176592    3.602358
 H    2.543230    2.496220    2.537390
 H    1.314064    3.020781    0.664270
 H   -1.562762    2.920099    0.973901
 H   -0.397907    4.704689   -0.343334
 H   -1.528845    3.819942   -1.369427
 H    0.203778    3.481084   -1.471106
 H   -3.043226    1.791410   -0.305319
 H   -2.339487   -0.048743   -2.314910
 H   -1.702043   -1.572141   -0.570505
 H   -3.193545   -2.093420   -1.354693
 H   -4.104514   -2.309598    0.733749
 H   -4.098767   -0.557086    0.843776
 H   -1.862189   -0.591943    1.900275
 H   -3.025670   -1.559778    2.808129
 H   -2.137087   -3.540669    1.733315
 H    0.070700   -0.767509    1.726323
 H   -0.429975   -4.700044    0.851723
 H    1.093773   -3.937042    0.623459
 H   -5.821743   -0.296898   -2.673859
