50 
2auz_ligand_dft.xyz
 C    6.167964    1.012400    0.614169
 C    5.323663    0.320434   -0.454271
 C    4.101879   -0.389688    0.128362
 C    3.259233   -1.081222   -0.941965
 C    1.963942   -1.715212   -0.396840
 N    1.082789   -0.768402    0.233625
 C    0.303230    0.061335   -0.508262
 O    0.375485    0.159173   -1.722171
 O   -0.530511    0.738335    0.296372
 C   -1.496071    1.672807   -0.252742
 C   -2.483651    0.968904   -1.197024
 C   -3.090152   -0.287725   -0.619640
 C   -2.506876   -1.532875   -0.867415
 C   -3.032887   -2.691729   -0.305235
 C   -4.157966   -2.624752    0.511697
 C   -4.755606   -1.391471    0.756154
 C   -4.224715   -0.234864    0.193409
 C   -0.773159    2.870684   -0.879088
 C   -0.175125    3.633741    0.316706
 C   -1.056050    3.257082    1.539880
 C   -2.125989    2.289920    0.999433
 C    2.294106   -2.803265    0.598831
 O    1.873695   -2.837716    1.730469
 H    5.580292    1.765057    1.151927
 H    6.537161    0.290570    1.351769
 H    7.035154    1.514695    0.173709
 H    4.989571    1.058126   -1.195516
 H    5.942136   -0.404749   -0.999973
 H    4.433809   -1.121553    0.879476
 H    3.476444    0.336326    0.662740
 H    2.961059   -0.364801   -1.713933
 H    3.846639   -1.863084   -1.442999
 H    1.452339   -2.198259   -1.244243
 H    0.845228   -0.931703    1.202980
 H   -3.271546    1.694950   -1.429943
 H   -1.965178    0.739582   -2.130833
 H   -1.634800   -1.587902   -1.514294
 H   -2.564347   -3.650632   -0.507842
 H   -4.571120   -3.528443    0.949840
 H   -5.640078   -1.329841    1.383845
 H   -4.699939    0.724550    0.384485
 H   -1.526632    3.482364   -1.390333
 H   -0.038076    2.560433   -1.622932
 H    0.860192    3.322200    0.484381
 H   -0.156705    4.712058    0.134603
 H   -0.452889    2.760110    2.304501
 H   -1.511256    4.134117    2.008683
 H   -2.428337    1.525580    1.719505
 H   -3.025296    2.837940    0.693761
 H    2.982681   -3.584223    0.216946
