50 
2auz_ligand_xtb.xyz
 C    6.335661    0.723226    1.804608
 C    5.735708    0.671918    0.405042
 C    4.363743    0.001354    0.402537
 C    3.752983   -0.026378   -0.996846
 C    2.388740   -0.740828   -1.024034
 N    1.407744   -0.081168   -0.197918
 C    0.312486    0.501067   -0.758517
 O    0.204176    0.712618   -1.943769
 O   -0.565596    0.824899    0.199651
 C   -1.831878    1.417514   -0.148264
 C   -2.657338    0.448932   -1.022268
 C   -2.849779   -0.893162   -0.375739
 C   -1.856466   -1.863040   -0.439664
 C   -2.008512   -3.078570    0.202490
 C   -3.169174   -3.351542    0.905747
 C   -4.179423   -2.406649    0.951022
 C   -4.018865   -1.187221    0.316846
 C   -1.652382    2.785189   -0.844371
 C   -1.915068    3.833934    0.234400
 C   -2.992408    3.179150    1.092050
 C   -2.511925    1.734262    1.199537
 C    2.543463   -2.185175   -0.620051
 O    1.942780   -2.717232    0.269989
 H    5.695194    1.293526    2.473628
 H    6.445563   -0.280354    2.209616
 H    7.315458    1.194027    1.783629
 H    5.640747    1.686737    0.012818
 H    6.407788    0.122391   -0.258055
 H    4.459863   -1.020064    0.780057
 H    3.697877    0.544526    1.075390
 H    3.610925    0.993714   -1.356060
 H    4.427812   -0.537319   -1.686403
 H    2.008604   -0.711886   -2.056333
 H    1.319437   -0.405357    0.754250
 H   -3.626045    0.917261   -1.203746
 H   -2.137321    0.334862   -1.975264
 H   -0.957496   -1.672398   -1.006974
 H   -1.217068   -3.811694    0.152595
 H   -3.290435   -4.300342    1.407394
 H   -5.096198   -2.618673    1.482341
 H   -4.820217   -0.461313    0.348253
 H   -2.384793    2.879671   -1.646035
 H   -0.662688    2.873000   -1.286323
 H   -1.016071    3.994420    0.831257
 H   -2.227404    4.788509   -0.186203
 H   -3.104442    3.650205    2.067187
 H   -3.953110    3.220392    0.575881
 H   -1.755798    1.646232    1.980160
 H   -3.312024    1.034035    1.425953
 H    3.289364   -2.732111   -1.227699
