122 
2avm_ligand_dft.xyz
 C    3.198062   -3.214475    0.290258
 O    3.792463   -2.537282    1.128577
 C    2.276722   -4.343318    0.673082
 N    3.407790   -3.024913   -1.041107
 C    4.301223   -1.974013   -1.459772
 C    3.794501   -0.607814   -0.984806
 O    2.618254   -0.260613   -1.109426
 C    4.511506   -2.005660   -2.979939
 O    3.225281   -1.951830   -3.571077
 C    5.285454   -3.244474   -3.418533
 N    4.726910    0.167696   -0.401209
 C    4.457461    1.495088    0.139170
 C    3.302452    1.427453    1.169882
 O    2.566292    2.390097    1.364223
 C    4.213868    2.573464   -0.946128
 C    5.062630    2.315319   -2.200933
 C    4.477496    3.966264   -0.364802
 C    4.875189    3.375314   -3.286336
 N    3.150673    0.243549    1.803813
 C    2.063752   -0.083109    2.724911
 C    0.709156    0.485169    2.280327
 C    2.395571    0.356199    4.156724
 C    1.362954   -0.085600    5.196373
 C    1.777866    0.217028    6.641116
 C    3.003282   -0.563927    7.116780
 N    0.482329    0.330775    0.820267
 C   -0.538994    1.251741    0.255502
 C   -1.903742    0.833445    0.798697
 O   -2.096932   -0.319852    1.180650
 C   -0.507194    1.128398   -1.279514
 C   -1.225870    2.243975   -2.044575
 C   -0.728437    3.666114   -1.754119
 C    0.789745    3.828070   -1.822074
 N   -2.878507    1.752323    0.750464
 C   -4.250460    1.306937    0.872193
 C   -4.537380    0.291657   -0.250905
 O   -4.171283    0.491084   -1.406164
 C   -5.242713    2.480866    0.818600
 C   -5.286378    3.287312   -0.490401
 C   -4.296595    4.438289   -0.532835
 O   -3.243530    4.435358    0.103428
 N   -4.625663    5.472078   -1.336119
 N   -5.251771   -0.787310    0.117006
 C   -5.570474   -1.860889   -0.797121
 C   -6.538457   -2.780753   -0.044260
 O   -6.621110   -2.754000    1.173651
 C   -4.323197   -2.645178   -1.264287
 C   -3.472729   -3.167981   -0.108171
 C   -2.327761   -4.069820   -0.573637
 N   -1.383524   -3.427117   -1.480890
 C   -0.340932   -2.653403   -1.045143
 N   -0.144454   -2.257653    0.171591
 N    0.582118   -2.331192   -2.018769
 N   -7.233556   -3.651477   -0.814327
 H    2.878692   -5.136615    1.126961
 H    1.562336   -3.981682    1.413035
 H    1.733050   -4.753049   -0.181052
 H    2.693106   -3.313015   -1.700978
 H    5.273920   -2.158695   -0.990150
 H    5.089551   -1.105589   -3.243406
 H    3.332926   -2.021754   -4.527111
 H    4.752926   -4.156122   -3.133642
 H    6.281264   -3.266073   -2.965490
 H    5.417693   -3.244611   -4.506006
 H    5.655844   -0.208950   -0.294507
 H    5.360328    1.771473    0.697866
 H    3.162248    2.508272   -1.240619
 H    6.125928    2.256168   -1.925357
 H    4.794187    1.340555   -2.623315
 H    4.139476    4.742655   -1.056332
 H    3.945772    4.106454    0.576615
 H    5.551751    4.115192   -0.192908
 H    3.811411    3.524020   -3.506132
 H    5.294552    4.341466   -2.992256
 H    5.370843    3.070495   -4.213034
 H    3.714406   -0.552665    1.523156
 H    2.003483   -1.176900    2.694177
 H   -0.099999   -0.044641    2.783838
 H    0.651213    1.548058    2.514145
 H    2.508736    1.447747    4.171367
 H    3.375018   -0.069134    4.398684
 H    0.403590    0.410647    5.002284
 H    1.182796   -1.165670    5.091877
 H    0.931170   -0.015179    7.297571
 H    1.961490    1.294146    6.746647
 H    3.192390   -0.379404    8.178533
 H    3.909970   -0.281930    6.571360
 H    2.854975   -1.642233    6.986237
 H    0.220074   -0.686254    0.587296
 H    1.360089    0.478615    0.307272
 H   -0.268212    2.265486    0.566897
 H    0.545917    1.103169   -1.583804
 H   -0.944781    0.161623   -1.553268
 H   -2.303808    2.170532   -1.867222
 H   -1.080051    2.030673   -3.111150
 H   -1.203886    4.337260   -2.479291
 H   -1.086623    4.007165   -0.776704
 H    1.201122    3.389976   -2.740427
 H    1.072284    4.885094   -1.798984
 H    1.282560    3.349700   -0.968089
 H   -2.722949    2.725094    0.476162
 H   -4.372908    0.809008    1.840555
 H   -6.235243    2.053954    0.994040
 H   -5.029233    3.146855    1.660798
 H   -6.298199    3.678193   -0.641409
 H   -5.068626    2.633398   -1.343962
 H   -5.498362    5.516303   -1.836530
 H   -3.982712    6.246115   -1.413437
 H   -5.444194   -0.992060    1.091097
 H   -6.063654   -1.438129   -1.680295
 H   -4.658473   -3.476565   -1.899358
 H   -3.726942   -1.975868   -1.889836
 H   -4.087326   -3.752623    0.587582
 H   -3.078499   -2.315838    0.454922
 H   -1.791129   -4.472229    0.296550
 H   -2.736991   -4.932135   -1.109100
 H   -1.247449   -3.877604   -2.372609
 H   -0.875549   -2.567122    0.802324
 H    1.241263   -1.596767   -1.759688
 H    0.230238   -2.221229   -2.959511
 H   -7.254709   -3.582095   -1.819046
 H   -7.897443   -4.262284   -0.361702
