122 
2avq_ligand_dft.xyz
 C    3.198064   -3.214471    0.290242
 O    3.792464   -2.537281    1.128564
 C    2.276726   -4.343317    0.673061
 N    3.407792   -3.024902   -1.041123
 C    4.301225   -1.973999   -1.459781
 C    3.794502   -0.607803   -0.984809
 O    2.618254   -0.260604   -1.109427
 C    4.511509   -2.005639   -2.979949
 O    3.225285   -1.951806   -3.571088
 C    5.285458   -3.244450   -3.418549
 N    4.726910    0.167705   -0.401209
 C    4.457458    1.495094    0.139176
 C    3.302450    1.427452    1.169889
 O    2.566288    2.390093    1.364233
 C    4.213862    2.573473   -0.946117
 C    5.062622    2.315336   -2.200924
 C    4.477488    3.966272   -0.364787
 C    4.875177    3.375333   -3.286324
 N    3.150675    0.243544    1.803815
 C    2.063753   -0.083123    2.724909
 C    0.709157    0.485158    2.280331
 C    2.395571    0.356168    4.156727
 C    1.362955   -0.085646    5.196372
 C    1.777867    0.216968    6.641117
 C    3.003283   -0.563990    7.116773
 N    0.482328    0.330773    0.820269
 C   -0.538996    1.251741    0.255511
 C   -1.903744    0.833441    0.798702
 O   -2.096932   -0.319859    1.180648
 C   -0.507196    1.128409   -1.279506
 C   -1.225873    2.243989   -2.044560
 C   -0.728442    3.666128   -1.754094
 C    0.789739    3.828086   -1.822046
 N   -2.878510    1.752317    0.750474
 C   -4.250462    1.306929    0.872199
 C   -4.537380    0.291656   -0.250904
 O   -4.171283    0.491090   -1.406163
 C   -5.242715    2.480858    0.818611
 C   -5.286376    3.287312   -0.490385
 C   -4.296597    4.438294   -0.532805
 O   -3.243534    4.435360    0.103462
 N   -4.625665    5.472088   -1.336081
 N   -5.251770   -0.787315    0.117001
 C   -5.570470   -1.860889   -0.797134
 C   -6.538453   -2.780759   -0.044278
 O   -6.621104   -2.754016    1.173633
 C   -4.323192   -2.645175   -1.264303
 C   -3.472724   -3.167984   -0.108189
 C   -2.327755   -4.069819   -0.573660
 N   -1.383518   -3.427109   -1.480910
 C   -0.340928   -2.653395   -1.045158
 N   -0.144451   -2.257652    0.171578
 N    0.582121   -2.331177   -2.018782
 N   -7.233552   -3.651477   -0.814352
 H    2.878696   -5.136616    1.126936
 H    1.562339   -3.981685    1.413015
 H    1.733053   -4.753044   -0.181075
 H    2.693109   -3.313003   -1.700995
 H    5.273922   -2.158683   -0.990160
 H    5.089554   -1.105567   -3.243410
 H    3.332931   -2.021727   -4.527122
 H    4.752929   -4.156100   -3.133664
 H    6.281267   -3.266052   -2.965504
 H    5.417699   -3.244580   -4.506022
 H    5.655844   -0.208940   -0.294508
 H    5.360325    1.771479    0.697872
 H    3.162241    2.508281   -1.240607
 H    6.125921    2.256187   -1.925350
 H    4.794182    1.340573   -2.623309
 H    4.139464    4.742664   -1.056313
 H    3.945765    4.106458    0.576633
 H    5.551743    4.115202   -0.192894
 H    3.811399    3.524037   -3.506118
 H    5.294538    4.341486   -2.992240
 H    5.370831    3.070519   -4.213023
 H    3.714411   -0.552666    1.523157
 H    2.003484   -1.176915    2.694162
 H   -0.099998   -0.044654    2.783839
 H    0.651215    1.548047    2.514154
 H    2.508733    1.447716    4.171384
 H    3.375018   -0.069166    4.398682
 H    0.403590    0.410601    5.002288
 H    1.182800   -1.165715    5.091863
 H    0.931170   -0.015247    7.297570
 H    1.961489    1.294086    6.746660
 H    3.192394   -0.379474    8.178527
 H    3.909970   -0.281990    6.571353
 H    2.854976   -1.642296    6.986223
 H    0.220075   -0.686255    0.587293
 H    1.360087    0.478617    0.307275
 H   -0.268215    2.265485    0.566912
 H    0.545916    1.103184   -1.583796
 H   -0.944781    0.161635   -1.553266
 H   -2.303810    2.170543   -1.867208
 H   -1.080053    2.030695   -3.111136
 H   -1.203892    4.337277   -2.479263
 H   -1.086630    4.007172   -0.776678
 H    1.201118    3.389999   -2.740403
 H    1.072277    4.885111   -1.798949
 H    1.282555    3.349712   -0.968065
 H   -2.722952    2.725092    0.476182
 H   -4.372910    0.808995    1.840559
 H   -6.235246    2.053944    0.994046
 H   -5.029239    3.146841    1.660814
 H   -6.298197    3.678192   -0.641395
 H   -5.068618    2.633405   -1.343949
 H   -5.498363    5.516316   -1.836494
 H   -3.982716    6.246128   -1.413390
 H   -5.444191   -0.992071    1.091090
 H   -6.063650   -1.438125   -1.680305
 H   -4.658468   -3.476557   -1.899379
 H   -3.726937   -1.975860   -1.889847
 H   -4.087322   -3.752630    0.587560
 H   -3.078495   -2.315844    0.454909
 H   -1.791123   -4.472232    0.296525
 H   -2.736983   -4.932131   -1.109128
 H   -1.247443   -3.877590   -2.372631
 H   -0.875545   -2.567127    0.802310
 H    1.241266   -1.596754   -1.759696
 H    0.230241   -2.221208   -2.959523
 H   -7.254706   -3.582087   -1.819070
 H   -7.897439   -4.262288   -0.361731
