94 
2avv_ligand_xtb.xyz
 N    3.775593   -0.417252   -1.283016
 C    2.904832   -1.491861   -1.832270
 C    1.499169   -1.513993   -1.227390
 C    1.569332   -2.115822    0.224960
 O    2.517649   -2.831383    0.467860
 N    0.594182   -1.783694    1.063261
 C    0.484598   -2.288257    2.454977
 C   -0.721455   -1.578157    3.061824
 C    1.755208   -1.934065    3.226285
 C    0.267867   -3.799141    2.426821
 N    0.838594   -0.200344   -1.337570
 C    1.696429    0.825025   -0.719710
 C    3.079743    0.891443   -1.360078
 C    0.371255    0.182245   -2.691465
 C   -0.531422   -0.862309   -3.370073
 O    0.339179   -1.877085   -3.838309
 C   -1.651128   -1.470988   -2.507849
 C   -2.761050   -0.513297   -2.059243
 C   -4.051011   -1.315610   -1.725288
 C   -3.904359   -2.133247   -0.466311
 C   -3.345398   -3.405503   -0.499481
 C   -3.207210   -4.147469    0.661268
 C   -3.628260   -3.626392    1.873076
 C   -4.199582   -2.364984    1.914596
 C   -4.337649   -1.624357    0.753066
 C   -2.398630    0.285019   -0.821667
 O   -1.350296    0.069496   -0.154983
 N   -3.249252    1.208948   -0.456313
 C   -3.190335    1.992747    0.772344
 C   -4.517619    2.787025    0.885322
 O   -5.534764    2.071757    0.221702
 C   -4.218611    4.169853    0.260999
 C   -2.730843    4.298474    0.374849
 C   -1.946840    5.427783    0.234491
 C   -0.576233    5.317376    0.419985
 C   -0.000205    4.101607    0.753239
 C   -0.785249    2.965683    0.895110
 C   -2.146293    3.075795    0.692116
 C    4.352973   -0.679637    0.081126
 C    5.503705    0.251039    0.335357
 C    5.354187    1.387109    1.127566
 N    6.326159    2.244996    1.356194
 C    7.514743    2.014698    0.831088
 C    7.787943    0.903112    0.039349
 C    6.761455    0.012079   -0.218113
 H    4.601605   -0.366069   -1.891344
 H    2.831135   -1.369706   -2.914749
 H    3.359222   -2.463158   -1.617420
 H    0.942092   -2.242019   -1.826921
 H   -0.236256   -1.294974    0.759388
 H   -1.627701   -1.810481    2.505353
 H   -0.861859   -1.906920    4.086511
 H   -0.574223   -0.499813    3.069934
 H    1.651094   -2.256720    4.256911
 H    1.923389   -0.858322    3.224053
 H    2.617730   -2.437726    2.800274
 H   -0.632358   -4.042798    1.867166
 H    1.118658   -4.295646    1.968841
 H    0.157885   -4.173012    3.439478
 H   -0.173059   -0.188139   -0.772481
 H    1.778608    0.588068    0.343495
 H    1.217227    1.803010   -0.806585
 H    3.682189    1.642509   -0.841761
 H    3.002458    1.186021   -2.408673
 H    1.211077    0.343351   -3.369297
 H   -0.177683    1.120210   -2.586366
 H   -0.992206   -0.347259   -4.226504
 H   -0.107223   -2.434588   -4.485161
 H   -2.115899   -2.237521   -3.131690
 H   -1.242577   -1.986140   -1.636673
 H   -2.995275    0.180666   -2.873095
 H   -4.280610   -1.967520   -2.568943
 H   -4.887789   -0.626132   -1.607598
 H   -3.045581   -3.839622   -1.442235
 H   -2.789256   -5.141676    0.614220
 H   -3.530846   -4.207478    2.776640
 H   -4.553776   -1.963530    2.851704
 H   -4.817021   -0.656908    0.792820
 H   -4.140894    1.308921   -0.933569
 H   -3.027021    1.309855    1.611514
 H   -4.757722    2.905661    1.948628
 H   -6.382888    2.499005    0.381322
 H   -4.527408    4.181607   -0.788165
 H   -4.741901    4.975700    0.773227
 H   -2.392023    6.381129   -0.001595
 H    0.046347    6.192771    0.322908
 H    1.064546    4.047764    0.927924
 H   -0.356808    2.019285    1.189746
 H    4.679527   -1.720892    0.114427
 H    3.582669   -0.549270    0.838856
 H    4.411899    1.612021    1.613590
 H    8.277281    2.745662    1.057037
 H    8.775918    0.740484   -0.358197
 H    6.939889   -0.868657   -0.820270
