31 
2ax6_ligand_dft.xyz
 F   -1.569947   -2.568890   -0.486877
 C   -2.371985   -1.572576   -0.073030
 F   -2.855180   -1.933223    1.117570
 F   -3.384565   -1.503799   -0.946542
 C   -1.601296   -0.262855   -0.008183
 C   -0.213958   -0.341680   -0.021278
 C   -2.205337    0.998286    0.014662
 N   -3.657733    1.190877    0.082388
 O   -4.112864    2.173379   -0.484817
 O   -4.309411    0.390289    0.728944
 C   -1.436391    2.154189    0.001357
 C   -0.056595    2.068816    0.005881
 C    0.569319    0.818820    0.002302
 N    1.964262    0.792254    0.005765
 C    2.795606   -0.294951    0.014079
 O    2.432975   -1.457309    0.015303
 C    4.294589    0.054040    0.018198
 C    4.924115   -0.543715    1.277915
 C    4.921705   -0.517021   -1.255416
 O    4.398694    1.475974    0.033288
 H    0.274714   -1.303804   -0.060822
 H   -1.934825    3.115660   -0.005830
 H    0.537945    2.977786    0.010984
 H    2.446881    1.682401    0.007312
 H    4.491722   -0.085780    2.172319
 H    4.752334   -1.621816    1.313609
 H    6.005090   -0.361339    1.279290
 H    4.751056   -1.594419   -1.312599
 H    4.486791   -0.041538   -2.139482
 H    6.002720   -0.334308   -1.255693
 H    5.333301    1.711665    0.015815
