31 
2ax6_ligand_xtb.xyz
 F   -1.623751   -2.565316   -0.497356
 C   -2.384271   -1.541490   -0.075201
 F   -2.872987   -1.912505    1.111277
 F   -3.402401   -1.469726   -0.942624
 C   -1.586691   -0.255098   -0.012448
 C   -0.205567   -0.346966   -0.030882
 C   -2.196557    1.002898    0.008115
 N   -3.627423    1.192336    0.098238
 O   -4.070836    2.208239   -0.389867
 O   -4.272229    0.355735    0.683434
 C   -1.409974    2.150825   -0.022411
 C   -0.037891    2.059840   -0.036542
 C    0.584103    0.807077   -0.026649
 N    1.961123    0.761988   -0.025323
 C    2.788443   -0.323635    0.018130
 O    2.428754   -1.474111    0.072664
 C    4.277811    0.058881    0.012977
 C    4.867321   -0.369939    1.362472
 C    4.956991   -0.686814   -1.139548
 O    4.383406    1.465570   -0.157524
 H    0.276093   -1.311747   -0.056522
 H   -1.905350    3.109895   -0.024694
 H    0.563345    2.956265   -0.049847
 H    2.447400    1.652163   -0.067297
 H    4.426171    0.217909    2.164799
 H    4.653924   -1.420177    1.536348
 H    5.945395   -0.220647    1.368402
 H    4.721117   -1.744715   -1.074922
 H    4.597450   -0.303771   -2.092264
 H    6.036683   -0.559016   -1.091452
 H    5.319078    1.694584   -0.182362
