23 
2ay1_ligand_xtb.xyz
 C   -2.284750    0.952985    0.386302
 C   -2.385865   -0.553443    0.531535
 O   -2.004622   -1.167042    1.483779
 O   -2.960385   -1.185517   -0.510329
 C   -1.341143    1.341572   -0.767431
 C    0.038230    0.793110   -0.521403
 C    0.937201    1.482190    0.282207
 C    0.421863   -0.436705   -1.039655
 C    2.183381    0.962359    0.562927
 C    1.665739   -0.965766   -0.764301
 C    2.566600   -0.275207    0.045910
 N    3.835877   -0.770289    0.269327
 H   -1.897657    1.353065    1.323508
 H   -3.283664    1.363894    0.212058
 H   -3.214299   -0.571334   -1.211958
 H   -1.305652    2.431197   -0.830977
 H   -1.725720    0.963627   -1.719348
 H    0.655935    2.440157    0.696782
 H   -0.260218   -0.995976   -1.664635
 H    2.871450    1.510233    1.191025
 H    1.947863   -1.925837   -1.171928
 H    4.320063   -0.401526    1.072040
 H    3.953274   -1.761582    0.133990
