29 
2ay3_ligand_dft.xyz
 C   -2.946275    1.130812   -0.131943
 C   -3.383536   -0.099508    0.649018
 O   -3.275667   -0.223043    1.836980
 O   -3.948609   -1.090656   -0.086483
 C   -1.969635    0.834397   -1.287136
 C   -0.676397    0.209265   -0.817647
 C    0.397852    1.031214   -0.457372
 C   -0.549902   -1.168907   -0.689069
 C    1.584863    0.487184    0.024484
 O    2.666732    1.210591    0.408453
 C    2.568570    2.615955    0.375871
 C    0.640633   -1.720460   -0.218442
 C    1.707857   -0.912099    0.136335
 O    2.843551   -1.481449    0.639166
 C    3.970555   -1.420670   -0.220615
 H   -2.480590    1.807202    0.587456
 H   -3.844024    1.626286   -0.526134
 H   -3.988267   -0.834257   -1.017064
 H   -1.764437    1.778497   -1.803254
 H   -2.442462    0.185039   -2.036466
 H    0.289204    2.106948   -0.553163
 H   -1.380421   -1.820678   -0.944926
 H    2.412119    2.986991   -0.645571
 H    1.756424    2.975432    1.020399
 H    3.520362    2.991809    0.752688
 H    0.756897   -2.793749   -0.108756
 H    3.759633   -1.922598   -1.174212
 H    4.273866   -0.386128   -0.410936
 H    4.776135   -1.947441    0.294114
