28 
2ay6_ligand_xtb.xyz
 N    2.387185    1.692636    0.405906
 C    1.214827    2.295234    0.032588
 C    0.336123    1.368068   -0.446638
 C    0.647788   -1.200629   -0.711054
 C    1.556699   -2.210973   -0.493200
 C    2.818567   -1.951555    0.050353
 C    3.203885   -0.671714    0.385607
 C    2.290163    0.352572    0.170518
 C    1.004316    0.105436   -0.370639
 C   -1.064339    1.611678   -0.905465
 C   -2.052933    1.649182    0.268711
 C   -2.085289    0.324254    1.028228
 C   -2.745189   -0.775936    0.218165
 O   -2.438698   -2.029597    0.609189
 O   -3.508930   -0.592520   -0.683297
 H    1.090598    3.356850    0.132426
 H   -0.319310   -1.412965   -1.142611
 H    1.296591   -3.227538   -0.749211
 H    3.503763   -2.771933    0.204441
 H    4.181360   -0.468563    0.798346
 H   -1.367909    0.826621   -1.598630
 H   -1.115039    2.567202   -1.431301
 H   -3.052413    1.857204   -0.115383
 H   -1.768154    2.449140    0.954888
 H   -2.673841    0.436437    1.944534
 H   -1.071219    0.027142    1.307948
 H   -1.777376   -2.050507    1.312818
 H    3.195983    2.165695    0.770211
