28 
2ay6_ligand_dft.xyz
 N  100.269946   42.352763   10.675102
 C  100.779758   43.458258   10.025997
 C  100.601816   44.578493   10.788220
 C   99.476235   44.804991   13.137665
 C   98.857653   44.070764   14.133950
 C   98.681229   42.679394   14.008645
 C   99.116887   41.998062   12.885287
 C   99.742437   42.744132   11.882479
 C   99.933892   44.140781   11.988784
 C  101.060207   45.973491   10.477451
 C  102.530378   46.238083   10.852169
 C  102.879189   45.948076   12.310048
 C  102.238745   46.892858   13.294827
 O  102.598728   46.605324   14.560681
 O  101.492328   47.809122   13.033778
 H  100.255951   41.417007   10.307195
 H  101.235501   43.356462    9.050228
 H   99.602071   45.879736   13.236840
 H   98.497853   44.572312   15.027362
 H   98.191288   42.130469   14.807394
 H   98.977344   40.925104   12.788213
 H  100.940777   46.174196    9.406259
 H  100.425877   46.694982   11.001161
 H  103.172551   45.608289   10.224842
 H  102.773871   47.281041   10.620508
 H  102.582180   44.930355   12.590418
 H  103.962799   45.999557   12.469602
 H  102.138511   47.246899   15.124896
