24 
2ay7_ligand_dft.xyz
 C   -1.728102   -0.639008   -0.952065
 C   -1.345886   -1.631422    0.157727
 C   -0.382883   -1.057766    1.211202
 C    0.880261   -0.463610    0.625827
 C    1.728296   -1.230599   -0.180177
 C    1.218028    0.873217    0.856192
 C    2.871259   -0.676598   -0.745694
 C    2.362721    1.433235    0.289489
 C    3.190914    0.660405   -0.516628
 C   -2.436742    0.577214   -0.377136
 O   -1.680073    1.679833   -0.183491
 O   -3.597200    0.576676   -0.061229
 H   -2.427461   -1.120265   -1.640130
 H   -0.836840   -0.354106   -1.522869
 H   -0.898781   -2.513408   -0.314777
 H   -2.259604   -1.967744    0.658942
 H   -0.121524   -1.859791    1.912319
 H   -0.902025   -0.293443    1.801193
 H    1.491844   -2.275661   -0.365754
 H    0.582696    1.480581    1.497197
 H    3.516274   -1.290341   -1.367689
 H    2.605467    2.473791    0.483897
 H    4.082123    1.093193   -0.960572
 H   -0.761193    1.504725   -0.436415
