69 
2ayr_ligand_dft.xyz
 C   -2.049660   -2.102274    0.341781
 C   -4.223389   -1.272586    1.315598
 C   -5.227761    0.814935    0.604886
 C   -4.139714    2.184179   -1.105824
 C   -1.337450   -2.412650    1.504658
 C   -6.256901    1.779343    0.685347
 C    0.142875    0.054490   -1.854005
 C   -0.202604   -3.211058    1.448593
 C    1.494244    0.062266   -1.519842
 C    0.908946    0.664963    0.741005
 C    0.206398   -3.710038    0.216985
 C    1.874206    0.347744   -0.211176
 C   -3.128584    0.034207   -0.374704
 C   -3.148706   -1.106786    0.401092
 C   -4.151856    1.015388   -0.304691
 O   -2.123120    0.268454   -1.302687
 C   -0.823708    0.336133   -0.894842
 C   -1.660848   -2.678100   -0.872180
 C   -5.229847   -0.353048    1.414015
 C   -5.148906    3.104618   -1.010680
 C   -0.436534    0.666753    0.404022
 C   -0.530709   -3.480585   -0.941142
 C   -6.222775    2.902608   -0.106897
 O   -7.233018    3.796833    0.008001
 S    1.762096   -4.573775    0.101995
 O    3.179322    0.335430    0.256470
 C    2.896152   -3.235026   -0.300383
 O    1.717774   -5.460127   -1.054514
 O    2.119458   -5.061626    1.428491
 C    4.234378    0.235342   -0.659346
 C    4.474705    1.513776   -1.459719
 N    4.658095    2.750329   -0.613946
 C    5.649510    2.580420    0.510629
 C    3.365118    3.351824   -0.102238
 C    5.950699    3.929383    1.151441
 C    3.642120    4.711374    0.523526
 C    4.672143    4.606561    1.650898
 H   -4.242118   -2.169918    1.927196
 H   -3.326575    2.336911   -1.806314
 H   -1.650997   -1.985904    2.453102
 H   -7.086216    1.637830    1.370705
 H   -0.174873   -0.203747   -2.858144
 H    0.369774   -3.439638    2.341765
 H    2.215208   -0.197011   -2.288219
 H    1.221092    0.877769    1.758824
 H   -2.233784   -2.468273   -1.769581
 H   -6.048932   -0.510461    2.109147
 H   -5.133202    3.995298   -1.634993
 H   -1.187271    0.887287    1.155000
 H   -0.217409   -3.927363   -1.879415
 H   -7.110017    4.516411   -0.622396
 H    3.887294   -3.685812   -0.391788
 H    2.584969   -2.791483   -1.248609
 H    2.878714   -2.494766    0.502158
 H    4.091532   -0.582277   -1.376890
 H    5.115147   -0.020837   -0.066335
 H    3.642263    1.726119   -2.133802
 H    5.385871    1.396789   -2.053460
 H    5.057806    3.454544   -1.242153
 H    6.543078    2.112916    0.088938
 H    5.186311    1.894261    1.223623
 H    2.962109    2.641151    0.618915
 H    2.681236    3.411810   -0.951630
 H    6.467950    4.574177    0.428094
 H    6.652130    3.760315    1.973292
 H    2.692641    5.106036    0.896133
 H    3.989557    5.412950   -0.247380
 H    4.903946    5.600121    2.042378
 H    4.250008    4.026241    2.480612
