69 
2ayr_ligand_xtb.xyz
 C   -1.639382   -1.488758   -0.082467
 C   -3.832886   -2.116408    0.909600
 C   -5.791570   -0.730606    0.683854
 C   -5.653202    1.405573   -0.480059
 C   -0.788906   -1.799410    0.978884
 C   -7.154896   -0.486316    0.908584
 C   -0.832588    1.612027   -1.702955
 C    0.569977   -1.925594    0.768178
 C    0.493854    1.912498   -1.453729
 C    0.097705    1.619943    0.895876
 C    1.070772   -1.757402   -0.508339
 C    0.972736    1.897615   -0.151410
 C   -3.647235   -0.020708   -0.267460
 C   -3.057377   -1.194275    0.173570
 C   -5.023618    0.227868   -0.028433
 O   -2.976086    0.941954   -0.987558
 C   -1.690950    1.272734   -0.664645
 C   -1.118045   -1.409434   -1.375713
 C   -5.155598   -1.901322    1.153176
 C   -6.981730    1.619632   -0.250250
 C   -1.222158    1.311801    0.645970
 C    0.240252   -1.535511   -1.590090
 C   -7.750015    0.666585    0.448401
 O   -9.067370    0.857001    0.684752
 S    2.827372   -1.797035   -0.750416
 O    2.275789    2.153698    0.210393
 C    3.201816   -3.374864   -1.544884
 O    3.487480   -1.752838    0.537075
 O    3.234126   -0.723716   -1.640548
 C    3.223404    2.343588   -0.818568
 C    4.530432    2.803817   -0.180480
 N    5.300833    1.745595    0.518231
 C    5.862713    0.704546   -0.378489
 C    4.576610    1.094933    1.639647
 C    6.897131   -0.101861    0.398022
 C    5.584635    0.331146    2.486637
 C    6.261536   -0.737137    1.632151
 H   -3.353265   -3.022044    1.250261
 H   -5.066174    2.133567   -1.017872
 H   -1.193469   -1.892513    1.975012
 H   -7.751299   -1.207062    1.444666
 H   -1.210032    1.616060   -2.712880
 H    1.255250   -2.117225    1.578600
 H    1.136520    2.133574   -2.289482
 H    0.472419    1.643783    1.906462
 H   -1.783110   -1.225680   -2.205529
 H   -5.736837   -2.624225    1.704233
 H   -7.458131    2.524550   -0.603123
 H   -1.892449    1.090356    1.462727
 H    0.663939   -1.427921   -2.576177
 H   -9.362729    1.695677    0.308731
 H    4.272134   -3.440568   -1.696662
 H    2.861268   -4.161415   -0.884367
 H    2.680864   -3.404416   -2.492619
 H    2.896812    3.146238   -1.492875
 H    3.347354    1.420185   -1.397677
 H    4.289279    3.580815    0.550169
 H    5.170556    3.229742   -0.955874
 H    6.110538    2.213207    0.945376
 H    6.319836    1.191501   -1.242476
 H    5.049747    0.061116   -0.722391
 H    3.841451    0.401738    1.227321
 H    4.059140    1.861017    2.217906
 H    7.726435    0.548391    0.693607
 H    7.303620   -0.874428   -0.253143
 H    5.062593   -0.138572    3.318399
 H    6.326594    1.018883    2.903711
 H    7.019472   -1.259884    2.213359
 H    5.505887   -1.458041    1.321266
