24 
2azr_ligand_xtb.xyz
 C   -1.355696   -1.640077   -0.003037
 C   -1.335853   -3.017432   -0.016599
 C   -0.110080   -3.689592   -0.009094
 N    1.052319   -3.075248   -0.007971
 C    1.041150   -1.755787    0.000881
 C   -0.131400   -0.957691    0.019381
 S    2.496600   -0.814267   -0.034224
 C    1.562152    0.649190   -0.003826
 C    0.205756    0.429434    0.025927
 C    2.317721    1.921136   -0.002617
 O    3.516639    1.943975    0.024629
 O   -0.674163    1.494733    0.012180
 C   -1.826198    1.421327    0.843587
 C   -3.101302    1.163933    0.020857
 O   -4.135285    0.846633    0.527389
 O    1.585956    3.042743   -0.027289
 O   -2.946798    1.342256   -1.286605
 H   -2.299224   -1.116386   -0.019904
 H   -2.257997   -3.574833   -0.035760
 H   -0.066072   -4.769385   -0.011376
 H   -1.937234    2.400515    1.323993
 H   -1.724672    0.665372    1.625068
 H    0.632739    2.855279   -0.034178
 H   -2.027663    1.585088   -1.499666
