30 
2b17_ligand_xtb.xyz
 C   -2.855430    1.396017    1.254898
 C   -1.591294    0.960869    0.897480
Cl   -0.206096    1.724939    1.605304
 C   -1.415291   -0.103134    0.002359
 C   -2.573170   -0.735673   -0.467417
Cl   -2.404245   -2.092324   -1.542146
 C   -3.838285   -0.319530   -0.100424
 C   -3.977533    0.760362    0.753992
 N   -0.157316   -0.592053   -0.326084
 C    2.200507   -0.232906   -0.760225
 C    0.883762    0.238136   -0.818397
 C    0.616277    1.490133   -1.358083
 C    1.647954    2.293389   -1.805424
 C    2.954620    1.843675   -1.733547
 C    3.221276    0.586778   -1.221445
 C    2.532295   -1.582898   -0.184714
 C    2.611262   -1.526151    1.344065
 O    3.601955   -1.806132    1.953759
 O    1.488484   -1.153139    1.956043
 H   -2.952238    2.222736    1.939779
 H   -4.704120   -0.833406   -0.486473
 H   -4.960910    1.097929    1.037991
 H   -0.222381   -1.482371   -0.814095
 H   -0.406756    1.830180   -1.423602
 H    1.427345    3.267587   -2.214070
 H    3.764378    2.467377   -2.079214
 H    4.239612    0.231958   -1.167443
 H    3.503142   -1.917663   -0.549957
 H    1.780975   -2.329588   -0.455272
 H    0.782755   -0.905048    1.324123
