39 
2b1v_ligand_xtb.xyz
 C    2.163642    0.010766    1.210374
 C    0.667450    0.291374    1.076478
 C    0.469644    1.641119    0.442169
 C   -0.737959    2.422651    0.857695
 C    1.355965    2.098895   -0.431034
 C    2.625177    1.402062   -0.815748
 C    2.772159    0.007357   -0.194476
 C    4.257540   -0.375037   -0.135762
 O    4.398037   -1.669495    0.407881
 C    2.023838   -1.044643   -1.030998
 O    0.640859   -0.815943   -1.091488
 C    0.048910   -0.823878    0.187082
 C   -1.441882   -0.669708    0.053149
 C   -2.276622   -1.035164    1.103633
 C   -3.643561   -0.868197    1.013438
 C   -4.202594   -0.336682   -0.144522
 O   -5.555741   -0.185800   -0.198902
 C   -3.375155    0.020352   -1.201684
 C   -2.005853   -0.143063   -1.099644
 H    2.337255   -0.958449    1.681193
 H    2.636742    0.783512    1.820500
 H    0.178872    0.257986    2.054522
 H   -0.670649    2.669385    1.917924
 H   -1.645570    1.840806    0.709875
 H   -0.814172    3.347119    0.290991
 H    1.210999    3.065472   -0.896019
 H    3.464463    2.031648   -0.495815
 H    2.682334    1.327890   -1.905407
 H    4.791507    0.357936    0.487144
 H    4.680086   -0.338656   -1.151128
 H    5.333657   -1.891885    0.443098
 H    2.227861   -2.037690   -0.602896
 H    2.371490   -1.029130   -2.067291
 H    0.265962   -1.790582    0.679828
 H   -1.851637   -1.455372    2.003874
 H   -4.296845   -1.146189    1.825114
 H   -5.806232    0.180556   -1.055433
 H   -3.806577    0.429890   -2.106115
 H   -1.358986    0.136433   -1.914799
