107 
2b2v_ligand_xtb.xyz
 N   -4.178737    2.510055    0.808347
 C   -3.040816    2.685418   -0.120884
 C   -1.839775    2.961403    0.825427
 O   -2.085657    2.998976    2.028749
 C   -3.290988    3.843643   -1.073389
 N   -0.682455    3.134095    0.230751
 C    0.620801    3.388874    0.819163
 C    1.585134    3.154299   -0.360622
 O    1.157888    3.245285   -1.503781
 C    0.905147    2.527911    2.054743
 C    0.959756    1.029793    1.755857
 C    1.337219    0.243730    3.017928
 N    1.271200   -1.187601    2.815651
 C    2.191778   -1.919189    2.185183
 N    1.891746   -3.200134    1.921908
 N    3.371796   -1.464376    1.815612
 N    2.830863    2.794968   -0.068444
 C    3.802943    2.322565   -1.036792
 C    3.499669    0.851435   -1.428816
 O    4.333780   -0.025984   -1.328225
 C    5.192319    2.420798   -0.387289
 O    5.050667    1.894612    0.929981
 C    5.703863    3.856394   -0.367194
 N    2.239870    0.677730   -1.845643
 C    1.549692   -0.565897   -2.129997
 C    1.858723   -1.686535   -1.106588
 C    2.190349   -3.041716   -1.735580
 C    3.673961   -3.204086   -2.079351
 C    4.565287   -3.659553   -0.921595
 N    4.942286   -2.587404    0.007556
 C    6.139523   -2.932171    0.771639
 C    0.059293   -0.270267   -1.980270
 O   -0.354121    0.698496   -1.364055
 N   -0.779823   -1.178107   -2.520077
 C   -2.160402   -1.153000   -2.080220
 C   -2.199957   -1.685335   -0.640449
 O   -1.318366   -2.425838   -0.222135
 C   -3.064440   -1.937029   -3.033792
 C   -4.558693   -1.826067   -2.689986
 C   -5.016216   -0.383118   -2.578353
 O   -4.745286    0.315075   -1.602594
 N   -5.707235    0.092587   -3.612676
 N   -3.216067   -1.233553    0.099227
 C   -3.512679   -1.674949    1.453241
 C   -4.839239   -1.061413    1.857691
 O   -5.167092    0.062657    1.542434
 C   -2.396905   -1.250975    2.460139
 O   -1.328208   -2.163430    2.405584
 C   -2.896490   -1.198594    3.899164
 O   -5.573474   -1.868485    2.577155
 H   -3.702007    2.729137    1.746633
 H   -4.569402    1.546331    0.853340
 H   -4.935849    3.170264    0.627611
 H   -2.858427    1.764863   -0.677562
 H   -3.446819    4.769770   -0.524213
 H   -2.444879    3.984529   -1.739104
 H   -4.166166    3.639687   -1.685283
 H   -0.602546    3.013028   -0.781207
 H    0.679317    4.447964    1.108750
 H    1.842103    2.855680    2.507819
 H    0.113225    2.719936    2.780385
 H    1.682013    0.818888    0.966371
 H   -0.013636    0.694197    1.394509
 H    2.340322    0.523068    3.350632
 H    0.642872    0.488359    3.823738
 H    0.341704   -1.605403    2.902769
 H    1.048512   -3.609928    2.284840
 H    2.610520   -3.810165    1.573699
 H    3.601629   -0.494484    1.952915
 H    3.162011    2.728674    0.884376
 H    3.752386    2.936888   -1.941394
 H    5.878452    1.785065   -0.961835
 H    5.909056    1.956879    1.362619
 H    5.819289    4.226240   -1.381233
 H    6.673347    3.904065    0.123425
 H    5.012034    4.503691    0.167260
 H    1.662323    1.504625   -1.973653
 H    1.780920   -0.900605   -3.148795
 H    0.998614   -1.799358   -0.443261
 H    2.707158   -1.368789   -0.511576
 H    1.891468   -3.833344   -1.046736
 H    1.604832   -3.179692   -2.646912
 H    3.763015   -3.957279   -2.863084
 H    4.061375   -2.264951   -2.476171
 H    4.069409   -4.452625   -0.349990
 H    5.473848   -4.096601   -1.357275
 H    5.131727   -1.750040   -0.544083
 H    3.997892   -2.009380    1.118715
 H    5.928933   -3.796219    1.402616
 H    6.413608   -2.093143    1.407398
 H    6.990846   -3.178849    0.130596
 H   -0.413492   -2.057134   -2.852505
 H   -2.458432   -0.099806   -2.069596
 H   -2.781800   -2.991451   -3.017892
 H   -2.893451   -1.555069   -4.042285
 H   -4.753063   -2.321824   -1.737248
 H   -5.130418   -2.341511   -3.460806
 H   -5.951110   -0.476144   -4.405666
 H   -6.052050    1.040395   -3.593336
 H   -3.887535   -0.597865   -0.352633
 H   -3.596401   -2.768287    1.499229
 H   -2.049438   -0.248496    2.152119
 H   -1.205721   -2.428491    1.462032
 H   -3.587395   -0.373721    4.045541
 H   -2.045745   -1.058737    4.560373
 H   -3.381141   -2.134072    4.164087
 H   -6.416142   -1.475718    2.866481
