24 
2b4m_ligand_xtb.xyz
 N   -0.782589   -0.628723   -0.067356
 C   -2.038719    0.122439   -0.334695
 C    0.260535    0.366419   -0.458812
 C   -0.235619    1.701633    0.107080
 C   -1.768608    1.559097    0.124435
 C   -0.707124   -0.979853    1.365009
 C   -0.692910   -1.862507   -0.864116
 C    1.690908   -0.009739   -0.055900
 O    2.020592   -1.098580    0.320655
 O    2.491444    1.020947   -0.218913
 H   -2.235630    0.092069   -1.407535
 H   -2.875911   -0.341660    0.184412
 H    0.260574    0.418711   -1.554199
 H    0.097072    2.526207   -0.518606
 H    0.162634    1.875022    1.106072
 H   -2.244247    2.268308   -0.548921
 H   -2.168290    1.740591    1.120326
 H    0.231534   -1.489379    1.572832
 H   -1.529507   -1.646730    1.615745
 H   -0.775856   -0.088391    1.981671
 H   -0.753941   -1.636731   -1.927352
 H   -1.509338   -2.532063   -0.600293
 H    0.254515   -2.359116   -0.659184
 H    3.417451    0.810355   -0.005408
