54 
2b52_ligand_dft.xyz
 C   76.537029   64.116119   13.207728
 C   76.933090   62.894941   14.028690
 N   77.530157   63.352456   15.278856
 C   78.679124   64.231915   15.094539
 C   78.245345   65.423079   14.249093
 N   77.690576   64.973033   12.981610
 C   77.363807   66.088160   12.117565
 N   77.631718   62.422670   16.301415
 C   78.328740   61.232720   16.352552
 N   79.190976   61.015914   15.296485
 C   80.003646   59.907611   15.090962
 C   80.110862   58.804068   15.963784
 C   80.958335   57.752566   15.648810
 C   81.735337   57.724878   14.479520
 C   81.629711   58.802845   13.629574
 C   80.775320   59.883958   13.928906
 C   82.260064   59.134769   12.338378
 C   81.791498   60.383012   11.882207
 C   80.835533   60.921457   12.855651
 N   83.125496   58.579792   11.519607
 N   83.216537   59.492933   10.513713
 C   82.434823   60.601737   10.675495
 C   82.364618   61.701310    9.735752
 S   81.283839   63.034700   10.018519
 C   81.834608   63.756131    8.540784
 N   82.738312   63.069359    7.901485
 C   83.050139   61.907433    8.560691
 C   84.082396   61.005406    7.949532
 C   81.299511   65.068001    8.059569
 O   78.172998   60.470072   17.292534
 O   80.209870   61.974869   12.828209
 H   76.148563   63.786009   12.237905
 H   75.725540   64.658189   13.733292
 H   76.046784   62.302658   14.273196
 H   77.614677   62.274863   13.426520
 H   79.006731   64.568681   16.081583
 H   79.525104   63.738191   14.592053
 H   77.511876   66.025518   14.821515
 H   79.116485   66.055928   14.046604
 H   78.262815   66.684303   11.929034
 H   76.995096   65.714541   11.156553
 H   76.591575   66.756558   12.546050
 H   76.965471   62.522575   17.053947
 H   79.260202   61.714254   14.563081
 H   79.525986   58.794331   16.872400
 H   81.018624   56.917787   16.341045
 H   82.389425   56.889178   14.257158
 H   83.826834   59.284578    9.740853
 H   84.469486   61.474809    7.043748
 H   84.927306   60.835541    8.628128
 H   83.657740   60.034038    7.666133
 H   81.793151   65.318842    7.118959
 H   80.218830   65.019085    7.891370
 H   81.490681   65.865628    8.784657
