55 
2b52_ligand_xtb.xyz
 C    1.273525   -3.379479   -1.153496
 C    2.447441   -2.415161   -1.244125
 N    3.242605   -2.444569   -0.017375
 C    2.508511   -2.389174    1.245952
 C    1.330212   -3.352270    1.233215
 N    0.476764   -3.083168    0.056205
 C   -0.771640   -3.852328    0.095331
 N    4.343269   -1.590453   -0.053478
 C    4.372290   -0.210442   -0.047641
 N    3.117350    0.357477   -0.025864
 C    2.722213    1.675019   -0.011201
 C    3.584141    2.785573   -0.014181
 C    3.064859    4.059518    0.001102
 C    1.683363    4.305275    0.017692
 C    0.836150    3.225448    0.019563
 C    1.349752    1.905612    0.007227
 C   -0.605688    3.065062    0.026813
 C   -0.950353    1.702842    0.018749
 C    0.252605    0.912980    0.012254
 N   -1.743836    3.753331    0.031152
 N   -2.814226    2.948838    0.024173
 C   -2.368515    1.689829    0.015993
 C   -3.253252    0.573188   -0.000968
 S   -2.663406   -1.063052   -0.016343
 C   -4.339204   -1.617092   -0.039103
 N   -5.187858   -0.660247   -0.034416
 C   -4.633272    0.572316   -0.013991
 C   -5.493992    1.777237   -0.009434
 C   -4.684246   -3.054464   -0.065950
 O    5.412781    0.393217   -0.062050
 O    0.400764   -0.321579    0.012938
 H    1.624515   -4.411768   -1.089393
 H    0.646736   -3.269655   -2.039530
 H    2.057402   -1.422291   -1.506025
 H    3.111054   -2.728039   -2.054600
 H    2.133859   -1.390029    1.506424
 H    3.210928   -2.687526    2.028889
 H    0.746856   -3.220966    2.145635
 H    1.676479   -4.386581    1.176323
 H    0.244766   -2.058274    0.047885
 H   -0.551963   -4.919134    0.106139
 H   -1.338219   -3.592624    0.986506
 H   -1.377926   -3.618190   -0.776495
 H    5.250319   -2.037209   -0.063990
 H    2.310171   -0.253543   -0.023628
 H    4.648280    2.615000   -0.029224
 H    3.740991    4.900445   -0.000799
 H    1.311409    5.317593    0.027840
 H   -5.295398    2.383231   -0.891267
 H   -6.535590    1.472040    0.003528
 H   -5.273139    2.394038    0.859139
 H   -4.310855   -3.523885   -0.975325
 H   -4.256024   -3.573710    0.790111
 H   -5.765938   -3.151160   -0.037579
 H   -1.890456    4.752562    0.038248
