45 
2b53_ligand_xtb.xyz
 C    4.111369    0.371628   -0.584297
 C    5.464511    0.699325   -0.522265
 C    6.303354   -0.056784    0.298263
 C    5.795314   -1.116011    1.023409
 C    4.454382   -1.446249    0.946638
 C    3.600416   -0.698490    0.138924
 N    5.977760    1.706167   -1.310795
 C    2.171302   -1.036634    0.057559
 C    1.771212   -2.381154   -0.058799
 C    0.448902   -2.720071   -0.135757
 C   -0.540624   -1.723268   -0.091432
 C   -0.155602   -0.364126    0.028598
 C    1.207530   -0.049377    0.097960
 N   -1.844184   -2.092588   -0.164315
 C   -2.711240   -1.128494   -0.112294
 N   -2.495408    0.178985    0.003522
 C   -1.235237    0.591410    0.072549
 N   -0.994545    1.901207    0.178300
 C   -1.991207    2.969326    0.241785
 C   -2.838399    2.959818   -1.032321
 C   -2.876907    2.774081    1.474182
 C   -1.218370    4.284065    0.350214
 C   -4.176071   -1.496071   -0.176173
 F   -4.827391   -0.788191   -1.115535
 F   -4.390549   -2.783898   -0.446946
 F   -4.802370   -1.234899    0.986535
 H    3.461887    0.942345   -1.233845
 H    7.353024    0.192626    0.355839
 H    6.453471   -1.691149    1.658065
 H    4.062361   -2.264897    1.530439
 H    5.325320    2.382572   -1.670630
 H    6.874056    2.078222   -1.044385
 H    2.530954   -3.147110   -0.106056
 H    0.126853   -3.744329   -0.232443
 H    1.528431    0.977621    0.206814
 H   -0.031449    2.186668    0.246448
 H   -2.205280    3.068154   -1.910308
 H   -3.384161    2.024537   -1.105915
 H   -3.548816    3.780939   -1.010109
 H   -3.412997    1.833504    1.396405
 H   -2.272627    2.761624    2.378792
 H   -3.596653    3.584184    1.545434
 H   -0.603304    4.297636    1.248284
 H   -0.579067    4.427974   -0.518988
 H   -1.912393    5.117842    0.402239
