45 
2b53_ligand_dft.xyz
 C    4.110958    0.351132   -0.603512
 C    5.463090    0.706637   -0.549386
 C    6.321152   -0.033338    0.274137
 C    5.828297   -1.099578    1.014306
 C    4.484059   -1.450994    0.956347
 C    3.613666   -0.717488    0.144213
 N    5.935245    1.804247   -1.267022
 C    2.171784   -1.064789    0.078955
 C    1.760821   -2.417324   -0.006416
 C    0.432604   -2.753938   -0.074366
 C   -0.562953   -1.752556   -0.055649
 C   -0.168383   -0.399801    0.040973
 C    1.202449   -0.080366    0.103539
 N   -1.877910   -2.133214   -0.135619
 C   -2.730648   -1.151595   -0.112573
 N   -2.506698    0.169481   -0.010901
 C   -1.247671    0.567997    0.074329
 N   -0.990360    1.886385    0.187007
 C   -1.975620    2.984857    0.259159
 C   -2.810254    3.041264   -1.027339
 C   -2.878804    2.821896    1.489505
 C   -1.149507    4.268889    0.392559
 C   -4.211883   -1.489788   -0.203615
 F   -4.763618   -0.889582   -1.271652
 F   -4.432329   -2.798319   -0.307003
 F   -4.860908   -1.043649    0.885126
 H    3.441670    0.902332   -1.260563
 H    7.373627    0.232375    0.331446
 H    6.504636   -1.661915    1.651470
 H    4.105511   -2.270696    1.559028
 H    5.392765    2.043967   -2.085029
 H    6.924381    1.784921   -1.472012
 H    2.518628   -3.194559   -0.041977
 H    0.108421   -3.785995   -0.153917
 H    1.531687    0.951505    0.191596
 H   -0.027638    2.154554    0.306649
 H   -2.159311    3.152756   -1.901058
 H   -3.405284    2.133773   -1.143937
 H   -3.486239    3.902235   -0.988559
 H   -3.475457    1.910952    1.414697
 H   -2.276985    2.777187    2.403597
 H   -3.556180    3.679375    1.564882
 H   -0.541133    4.255968    1.305054
 H   -0.488242    4.404763   -0.471458
 H   -1.814034    5.135464    0.446600
