45 
2b54_ligand_dft.xyz
 N   -2.042204    1.218228   -0.601652
 C   -1.401545    0.052647   -0.911218
 N   -0.144403   -0.169063   -0.659714
 C    0.466402    0.886113   -0.054785
 C   -0.079444    2.112135    0.300575
 C   -1.469894    2.351859    0.027453
 N    1.763176    0.921395    0.330089
 N    2.087162    2.114538    0.921322
 C    0.983879    2.836886    0.910624
 O   -2.151021    3.334491    0.258026
 C    2.728022   -0.094072    0.176980
 C    3.615177   -0.079352   -0.902600
 C    2.822256   -1.138957    1.100041
 C    4.576621   -1.068986   -1.061852
 C    3.771294   -2.143531    0.960067
 C    4.638930   -2.090643   -0.123050
Cl    5.835812   -3.341225   -0.311015
 C    0.954928    4.226308    1.463241
 C    0.685925    5.275834    0.379073
 C   -2.213434   -1.002701   -1.625724
Cl    3.514380    1.189889   -2.079208
Cl    1.738860   -1.191915    2.452579
 C   -3.633653   -1.119188   -1.122255
 C   -3.881844   -1.727892    0.113609
 C   -5.170606   -1.806011    0.614529
 C   -6.235774   -1.262142   -0.123618
 C   -5.999569   -0.655135   -1.344254
 C   -4.696410   -0.583283   -1.843604
 O   -5.400773   -2.400272    1.807061
 O   -7.463653   -1.393896    0.463093
 H   -3.037600    1.285942   -0.783921
 H    5.257871   -1.042818   -1.903184
 H    3.831857   -2.946671    1.683904
 H    1.913698    4.413277    1.956017
 H    0.169768    4.287311    2.225410
 H    1.449981    5.230940   -0.403796
 H   -0.295311    5.109379   -0.074808
 H    0.696177    6.281338    0.811252
 H   -1.667889   -1.943242   -1.517758
 H   -2.214820   -0.754789   -2.694678
 H   -3.070793   -2.146269    0.702414
 H   -6.827182   -0.239137   -1.913830
 H   -4.520266   -0.114321   -2.807811
 H   -6.349959   -2.345691    1.989173
 H   -8.139537   -0.977589   -0.083583
