63 
2b55_ligand_xtb.xyz
 N    0.492581   -2.589230    0.528853
 C    0.027458   -3.726046   -0.306520
 C   -1.483092   -4.046677   -0.237732
 C   -2.278311   -3.526057   -1.442117
 C   -2.638625   -2.046329   -1.313415
 N   -3.401233   -1.869641   -0.100256
 C   -2.652702   -2.162409    1.093964
 C   -2.193526   -3.629815    1.059673
 C   -4.464649   -0.906981   -0.049211
 C   -4.161243    0.592481    0.086383
 N   -2.829500    0.905655   -0.023285
 C   -2.204160    2.129521    0.031350
 C   -2.872387    3.366819    0.140515
 C   -2.160304    4.541505    0.176277
 C   -0.756697    4.572580    0.111164
 C   -0.094044    3.377706    0.008175
 C   -0.813543    2.154623   -0.031509
 C    1.305979    2.994272   -0.068905
 C    1.425405    1.595098   -0.138644
 C    0.110740    1.016435   -0.116490
 N    3.458638    2.503006   -0.188891
 C    2.816225    1.348685   -0.218596
 C    3.491234    0.023731   -0.291539
 C    4.930408    0.126542   -0.793622
 C    5.569404   -1.257728   -0.853843
 C    5.527873   -1.939550    0.511237
 C    4.091810   -2.029436    1.023315
 C    3.480772   -0.633020    1.098201
 O   -5.034270    1.403419    0.265568
 O   -0.236677   -0.180533   -0.140830
 N    2.541990    3.482856   -0.099643
 H    1.517997   -2.598261    0.601169
 H    0.216131   -1.616013    0.146715
 H    0.091025   -2.677988    1.467134
 H    0.581100   -4.608077    0.023116
 H    0.306896   -3.520136   -1.340718
 H   -1.532166   -5.139083   -0.287435
 H   -3.208828   -4.090908   -1.497253
 H   -1.725800   -3.701134   -2.365460
 H   -3.254420   -1.752464   -2.164003
 H   -1.714356   -1.446607   -1.345156
 H   -3.309521   -2.029103    1.956217
 H   -1.793422   -1.482275    1.234904
 H   -1.584773   -3.860405    1.938182
 H   -3.093642   -4.241035    1.131804
 H   -5.127584   -1.159111    0.785515
 H   -5.066519   -1.009473   -0.958842
 H   -2.187321    0.133828   -0.153996
 H   -3.948697    3.371207    0.194651
 H   -2.695397    5.474915    0.257266
 H   -0.231114    5.513663    0.145236
 H    2.913880   -0.605778   -0.982868
 H    5.492845    0.773004   -0.120448
 H    4.940711    0.588810   -1.780852
 H    6.603470   -1.167874   -1.186004
 H    5.039622   -1.873392   -1.585943
 H    6.124846   -1.366230    1.221779
 H    5.959361   -2.939228    0.441544
 H    4.077351   -2.499841    2.008849
 H    3.517065   -2.661109    0.332606
 H    2.461411   -0.659248    1.497814
 H    4.077862   -0.019506    1.774404
 H    2.858100    4.441549   -0.073924
