39 
2b7a_ligand_xtb.xyz
 O    4.029027    1.526554    0.001544
 C    2.854822    1.855636    0.000940
 N    2.590963    3.221747    0.000787
 C    1.366536    3.796730    0.000220
 C    0.262944    3.021353   -0.002842
 C    0.410228    1.602578   -0.004478
 C   -0.713407    0.752857   -0.009649
 C    1.676745    0.994338   -0.000584
 C    1.805060   -0.443223   -0.000414
 C    3.055296   -1.088384    0.008994
 C    3.121282   -2.457007    0.004862
 F    4.335881   -3.050442    0.014774
 C    1.991963   -3.275206   -0.009593
 C    0.762395   -2.671478   -0.016027
 C    0.651388   -1.274359   -0.010104
 C   -0.614486   -0.638795   -0.014101
 N   -1.861207   -1.191129   -0.022740
 C   -2.700562   -0.190910   -0.025383
 N   -2.059650    1.015241   -0.014603
 C   -4.192918   -0.318547    0.001173
 C   -4.572265   -1.740096   -0.416204
 C   -4.833569    0.693952   -0.955849
 C   -4.672513   -0.054756    1.436344
 H    3.423501    3.797853    0.001521
 H    1.331664    4.875736    0.002436
 H   -0.718574    3.464369   -0.003861
 H    3.965336   -0.513136    0.018942
 H    2.105747   -4.347632   -0.015162
 H   -0.149123   -3.247865   -0.026415
 H   -4.259942   -1.927527   -1.439778
 H   -4.072220   -2.458982    0.225002
 H   -5.647918   -1.879938   -0.343094
 H   -4.692304    1.717113   -0.612088
 H   -4.410236    0.598458   -1.953468
 H   -5.903385    0.509981   -1.019233
 H   -4.225780   -0.774234    2.118040
 H   -4.397881    0.946493    1.763877
 H   -5.754482   -0.150060    1.489775
 H   -2.493919    1.921802   -0.019735
