80 
2b8l_ligand_dft.xyz
 C    3.829663    0.945172    3.567535
 C    2.913942   -0.216960    3.344849
 C    2.394769    1.006649    4.029798
 N    2.459988   -0.476346    1.963109
 C    3.427434   -1.283413    1.141797
 C    3.089986   -2.801295    1.166156
 C    2.312365   -3.303425   -0.086592
 N    1.333248   -2.331721   -0.567872
 C    0.356075   -1.807354    0.190315
 O    0.101286   -2.223439    1.330164
 O    2.454944   -3.146429    2.373657
 C    3.242298   -3.686407   -1.261365
 C   -0.276390   -0.550083   -0.306914
 C   -1.606612   -0.249271   -0.008196
 C   -2.104259    1.020290   -0.285411
 C   -1.243998    2.016005   -0.758132
 C    0.088289    1.724024   -1.018478
 C    0.556912    0.423307   -0.848676
 C   -3.520375    1.450797    0.021545
 N    1.040676    2.722847   -1.386214
 O   -3.769622    2.633377    0.210917
 C    0.656834    3.735914   -2.376958
 S    2.070833    3.237183   -0.166760
 C    1.098750    4.316902    0.871467
 O    2.391360    2.057806    0.645155
 O    3.135124    3.994897   -0.784401
 C    5.378641   -2.335287   -1.202932
 C    6.121408   -1.206722   -1.537558
 C    5.604245   -0.266501   -2.424739
 C    4.357374   -0.481451   -3.005215
 C    3.622330   -1.617912   -2.675708
 C    4.106749   -2.543635   -1.744547
 N   -4.445499    0.466838    0.078236
 C   -5.867441    0.756200    0.316449
 C   -6.109760    1.137036    1.779181
 C   -6.683860   -0.444159   -0.116510
 C   -7.644233   -0.323074   -1.120041
 C   -8.403179   -1.423051   -1.510954
 C   -8.202253   -2.660115   -0.906856
 C   -7.241985   -2.792683    0.093336
 C   -6.491013   -1.690454    0.487696
 H    4.615730    0.825740    4.304740
 H    4.094027    1.553777    2.707069
 H    3.045418   -1.146839    3.884836
 H    2.172495    0.927087    5.087938
 H    1.726706    1.655983    3.470978
 H    2.301071    0.426778    1.485650
 H    1.552698   -0.961860    2.012822
 H    3.427718   -0.869034    0.133230
 H    4.411531   -1.104114    1.575370
 H    4.047001   -3.330703    1.172283
 H    1.781702   -4.209163    0.226819
 H    1.474133   -1.943747   -1.489397
 H    1.493042   -3.136712    2.217275
 H    3.866310   -4.521509   -0.929172
 H    2.616052   -4.068383   -2.075693
 H   -2.219272   -1.000960    0.479981
 H   -1.647093    3.017639   -0.872813
 H    1.600216    0.224110   -1.070849
 H    0.234755    3.213980   -3.237170
 H    1.551611    4.270978   -2.695129
 H   -0.083553    4.451555   -1.997520
 H    1.730759    4.621698    1.707984
 H    0.222345    3.772914    1.229803
 H    0.803788    5.194706    0.293822
 H    5.793828   -3.065246   -0.511791
 H    7.107720   -1.063862   -1.107236
 H    6.178851    0.617568   -2.680877
 H    3.964372    0.226601   -3.728104
 H    2.675765   -1.800031   -3.183962
 H   -4.225455   -0.439120   -0.308462
 H   -6.131978    1.615731   -0.309932
 H   -5.530171    2.026697    2.037040
 H   -5.825048    0.319110    2.448299
 H   -7.171091    1.351997    1.932248
 H   -7.803018    0.640240   -1.597827
 H   -9.151605   -1.312560   -2.289558
 H   -8.793636   -3.518050   -1.211232
 H   -7.085216   -3.753808    0.573527
 H   -5.755712   -1.799391    1.282361
