72 
2b8v_ligand_xtb.xyz
 C    2.590842    4.937533    0.420735
 C    3.499093    3.767025    0.218585
 C    3.795607    4.763371    1.296678
 N    3.015903    2.445890    0.600753
 C    4.072379    1.495721    0.982860
 C    3.451415    0.174887    1.459870
 C    2.905914   -0.799526    0.362396
 N    1.485185   -0.619070    0.090184
 C    0.898547    0.317904   -0.670108
 O    1.480802    1.324527   -1.095483
 O    2.429679    0.545581    2.361737
 C    3.716179   -0.800200   -0.944841
 C   -0.545506    0.092703   -0.881938
 C   -1.421025    1.171946   -0.884270
 C   -2.791874    0.946977   -0.923571
 C   -3.287878   -0.353403   -0.939490
 C   -2.410938   -1.433969   -0.950470
 C   -1.040789   -1.201519   -0.984284
 C   -3.699635    2.137694   -0.932214
 N   -2.806107   -2.777511   -0.849563
 O   -3.354064    3.168112   -1.469913
 C   -4.192610   -3.105425   -1.117410
 C   -5.181330    1.171700    0.859888
 C   -6.418358    1.094428    1.472407
 C   -7.488852    1.825518    0.980558
 C   -7.317899    2.655535   -0.116559
 C   -6.081120    2.748466   -0.724674
 C   -5.006294    1.992869   -0.254853
 S   -2.307967   -3.431881    0.656218
 C   -2.294236   -5.203529    0.327145
 O   -0.958139   -3.004100    0.912348
 O   -3.287317   -3.114416    1.647723
 C    5.676060   -2.088413   -0.010329
 C    7.036269   -2.275186    0.159521
 C    7.937636   -1.388483   -0.404995
 C    7.470979   -0.320261   -1.150371
 C    6.109396   -0.132693   -1.315500
 C    5.195332   -1.008041   -0.740626
 H    2.595303    5.718470   -0.321790
 H    1.616038    4.759034    0.847438
 H    4.127451    3.730019   -0.660792
 H    3.638652    4.466012    2.322488
 H    4.634305    5.427467    1.165638
 H    2.381825    2.520352    1.404892
 H    2.417897    1.989432   -0.208816
 H    4.751733    1.328288    0.148904
 H    4.640236    1.920768    1.814656
 H    4.254289   -0.367982    1.979295
 H    2.975160   -1.799010    0.802757
 H    0.871323   -1.349960    0.428345
 H    2.101321   -0.225698    2.834713
 H    3.327687   -1.616808   -1.560501
 H    3.542265    0.124425   -1.495864
 H   -1.048088    2.183622   -0.839007
 H   -4.353960   -0.512924   -0.947142
 H   -0.381054   -2.046778   -1.084408
 H   -4.845073   -2.824035   -0.286176
 H   -4.509696   -2.601217   -2.028131
 H   -4.261989   -4.179532   -1.275564
 H   -4.346588    0.617357    1.265008
 H   -6.547144    0.462660    2.338330
 H   -8.453796    1.754872    1.459189
 H   -8.148096    3.233515   -0.492626
 H   -5.926130    3.394317   -1.575781
 H   -3.296003   -5.593037    0.446957
 H   -1.920119   -5.350098   -0.677282
 H   -1.627304   -5.655692    1.051049
 H    4.986808   -2.801417    0.417798
 H    7.393630   -3.120555    0.727194
 H    8.997959   -1.537024   -0.274708
 H    8.166007    0.365867   -1.609381
 H    5.756243    0.690836   -1.921920
