47 
2baj_ligand_xtb.xyz
 O   -0.425344   -2.077120    0.318020
 C   -0.593639   -0.904067    0.093443
 N   -1.824869   -0.292022   -0.045021
 C   -3.081386   -0.868072    0.044832
 C   -4.198015   -0.034650   -0.110388
Cl   -3.972389    1.661569   -0.403597
 C   -5.482076   -0.552842   -0.031548
Cl   -6.845830    0.487774   -0.225405
 C   -5.676676   -1.905245    0.203088
 C   -4.575755   -2.728806    0.356892
 C   -3.291650   -2.224844    0.280006
 N    0.428309    0.004318   -0.044595
 C    1.775933   -0.325817    0.008544
 C    2.416511   -1.539184   -0.055248
 C    3.792478   -1.221052   -0.047001
 C    4.940147   -2.185391   -0.104557
 C    4.884302   -2.934308   -1.442154
 C    4.812393   -3.184101    1.051258
 C    6.264052   -1.429391    0.009241
 N    3.966590    0.082558    0.002769
 N    2.742801    0.638046    0.056010
 C    2.610032    2.029015    0.124046
 C    1.613151    2.631324    0.887938
 C    3.525632    2.819447   -0.565825
 C    3.421940    4.195763   -0.518728
 C    2.406737    4.795714    0.209648
 C    1.512354    4.011415    0.917561
 H   -1.855887    0.704554   -0.226673
 H   -6.679423   -2.295490    0.262495
 H   -4.721523   -3.781612    0.539753
 H   -2.435195   -2.866163    0.400863
 H    0.221064    0.970952   -0.253568
 H    1.950529   -2.499248   -0.098148
 H    3.947090   -3.476551   -1.540222
 H    4.965886   -2.233990   -2.270680
 H    5.705247   -3.645063   -1.507561
 H    4.832181   -2.661896    2.005254
 H    3.879817   -3.737922    0.981838
 H    5.638416   -3.891690    1.026602
 H    6.358753   -0.713046   -0.801552
 H    6.304956   -0.882733    0.947036
 H    7.099057   -2.125226   -0.032570
 H    0.948701    2.031696    1.492907
 H    4.311717    2.331765   -1.119706
 H    4.133666    4.804313   -1.055725
 H    2.321835    5.871247    0.238278
 H    0.736986    4.474466    1.509836
