47 
2baj_ligand_dft.xyz
 O   -0.402330   -2.083729    0.217509
 C   -0.576892   -0.888752    0.084749
 N   -1.813171   -0.271196   -0.011942
 C   -3.071954   -0.877233    0.000943
 C   -4.207967   -0.046978   -0.063272
Cl   -4.000775    1.685889   -0.147213
 C   -5.488379   -0.600017   -0.060610
Cl   -6.897945    0.415395   -0.140079
 C   -5.660830   -1.977171    0.005728
 C   -4.539294   -2.792255    0.069142
 C   -3.257110   -2.262219    0.067450
 N    0.456531    0.027312    0.021460
 C    1.803967   -0.324737    0.052470
 C    2.451724   -1.534270    0.005697
 C    3.829369   -1.195123   -0.007855
 C    4.996630   -2.156719   -0.045106
 C    4.859973   -3.063534   -1.280874
 C    4.967004   -3.021235    1.228157
 C    6.324281   -1.393450   -0.115050
 N    4.013283    0.113513    0.026787
 N    2.763127    0.648656    0.086210
 C    2.597434    2.054471    0.088732
 C    1.697804    2.659801    0.967740
 C    3.355030    2.828314   -0.789970
 C    3.196123    4.208102   -0.796436
 C    2.276397    4.818249    0.055140
 C    1.530744    4.042035    0.936076
 H   -1.833613    0.737235   -0.053115
 H   -6.662263   -2.390922    0.007206
 H   -4.663877   -3.868850    0.121722
 H   -2.388050   -2.901283    0.120985
 H    0.257326    0.992235   -0.202579
 H    1.988800   -2.505835   -0.023549
 H    3.926824   -3.636720   -1.256284
 H    4.869442   -2.471393   -2.202279
 H    5.692341   -3.775764   -1.322103
 H    5.060077   -2.397441    2.123493
 H    4.031539   -3.586071    1.304595
 H    5.796801   -3.737759    1.220362
 H    6.374693   -0.769995   -1.012947
 H    6.449319   -0.737267    0.751071
 H    7.158578   -2.103822   -0.138364
 H    1.161468    2.056334    1.693942
 H    4.064533    2.335055   -1.444510
 H    3.788678    4.810830   -1.477727
 H    2.150565    5.896214    0.038686
 H    0.830989    4.511548    1.620578
