81 
2bak_ligand_xtb.xyz
 C   -7.278588    0.671099    2.358244
 O   -6.360620    0.989394    1.327601
 C   -5.316786    0.112594    1.103841
 C   -5.202692   -1.126941    1.670847
 C   -4.099985   -1.949571    1.365215
 N   -4.041011   -3.169425    1.935142
 C   -3.005012   -3.903387    1.631925
 N   -1.986453   -3.577640    0.845797
 C   -1.993088   -2.386269    0.268997
 N   -0.954893   -2.031338   -0.511376
 C    0.220582   -2.787469   -0.723899
 C    1.424586   -2.144467   -0.462744
 C    2.631546   -2.799410   -0.659846
 N    3.860022   -2.194603   -0.401837
 C    4.120781   -0.876106   -0.153445
 O    3.277952   -0.000435   -0.153573
 C    5.563823   -0.596656    0.100803
 C    6.407289   -1.504287    0.749762
 C    7.719936   -1.116427    0.944206
 N    8.215422    0.040747    0.555973
 C    7.420626    0.927245   -0.058597
 C    6.064806    0.628378   -0.296689
 N    8.016167    2.073455   -0.480125
 C    9.368348    2.381564   -0.053768
 C    9.320997    3.379127    1.109089
 O    8.610807    4.546615    0.752565
 C    7.298469    4.244661    0.344826
 C    7.302710    3.275741   -0.847382
 C    2.612207   -4.116893   -1.117260
 C    1.412017   -4.731358   -1.403745
 C    0.191162   -4.084943   -1.235432
 C   -1.079413   -4.765650   -1.628763
 C   -3.096813   -1.482880    0.477109
 C   -3.239780   -0.214150   -0.100315
 C   -4.324375    0.569707    0.201308
 O   -4.459414    1.862009   -0.306074
 C   -4.685266    1.983579   -1.688766
 C   -6.187596    1.815272   -1.998668
 N   -6.980598    2.454826   -0.936301
 C   -8.438942    2.218800   -1.034014
 C   -9.091077    3.324766   -0.191073
 C   -7.942748    4.282535    0.167633
 C   -6.842190    3.922512   -0.821279
 H   -7.876929   -0.206152    2.098687
 H   -6.759913    0.491909    3.301024
 H   -7.926275    1.539824    2.464314
 H   -5.928736   -1.526087    2.358105
 H   -2.955869   -4.887896    2.078977
 H   -0.843701   -1.044093   -0.695028
 H    1.427311   -1.130537   -0.096997
 H    4.660622   -2.807626   -0.473789
 H    6.053235   -2.450158    1.128381
 H    8.424052   -1.768020    1.445524
 H    5.395527    1.316538   -0.785710
 H    9.899397    2.829199   -0.899389
 H    9.856743    1.458537    0.252116
 H   10.324086    3.707236    1.383238
 H    8.843197    2.898928    1.976582
 H    6.836514    5.195239    0.073209
 H    6.737293    3.789538    1.176825
 H    6.284246    3.058608   -1.159472
 H    7.836764    3.742028   -1.682644
 H    3.540670   -4.649379   -1.263118
 H    1.416112   -5.741792   -1.783960
 H   -1.569172   -5.177584   -0.747296
 H   -1.768667   -4.061851   -2.092700
 H   -0.875620   -5.573763   -2.326194
 H   -2.499908    0.175466   -0.784547
 H   -4.112807    1.251796   -2.267791
 H   -4.345375    2.985632   -1.961991
 H   -6.446541    0.753611   -2.017026
 H   -6.429197    2.258452   -2.966293
 H   -6.639200    2.042589   -0.031134
 H   -8.681749    1.216364   -0.683957
 H   -8.732297    2.302614   -2.082195
 H   -9.562424    2.923447    0.703048
 H   -9.861124    3.834378   -0.766001
 H   -7.597004    4.109252    1.186453
 H   -8.235531    5.325627    0.086172
 H   -7.023421    4.371519   -1.800235
 H   -5.847906    4.189494   -0.468968
