50 
2bal_ligand_xtb.xyz
 N    2.551765   -1.730271    0.838008
 C    2.453034   -0.503370    0.294682
 C    1.263567    0.227337    0.075462
 C    1.712768    1.424492   -0.542997
 N    3.007696    1.437998   -0.666011
 N    3.468645    0.263747   -0.160890
 C    4.847926    0.003932   -0.165418
 C    5.723101    1.075082   -0.005273
 C    7.086552    0.860621   -0.006406
 C    7.559685   -0.431140   -0.167819
 F    8.884923   -0.649052   -0.157137
 C    6.705319   -1.504198   -0.351504
 C    5.340148   -1.283519   -0.357411
 C   -0.030203   -0.240437    0.463078
 O   -0.224391   -1.373224    0.906435
 C   -1.185000    0.697108    0.320698
 C   -1.121206    2.033954    0.688352
 C   -2.250942    2.827807    0.581998
 C   -3.442484    2.295426    0.128243
 C   -3.510102    0.949153   -0.217563
 O   -4.761956    0.506777   -0.632548
 C   -4.978785   -0.877101   -0.898553
 C   -5.087353   -1.685135    0.404097
 C   -6.134188   -1.042672    1.326387
 N   -6.980629   -0.123431    0.524748
 C   -7.484861   -0.801663   -0.692445
 C   -6.307754   -0.956053   -1.663318
 C   -2.387174    0.150814   -0.121196
 H    1.672244   -2.078873    1.204365
 H    3.409301   -2.016071    1.280645
 H    1.129824    2.243486   -0.913466
 H    5.316894    2.067308    0.106521
 H    7.782201    1.674873    0.116399
 H    7.110836   -2.492183   -0.499481
 H    4.667566   -2.104973   -0.547800
 H   -0.203828    2.445889    1.076502
 H   -2.206916    3.869122    0.860182
 H   -4.323941    2.911205    0.034593
 H   -4.173117   -1.269125   -1.526470
 H   -4.124570   -1.718823    0.911761
 H   -5.361817   -2.707103    0.146482
 H   -5.650839   -0.463674    2.114941
 H   -6.766004   -1.800926    1.791654
 H   -6.321953    0.621458    0.187305
 H   -7.735353    0.272508    1.088431
 H   -8.282448   -0.208830   -1.140569
 H   -7.896567   -1.770285   -0.402944
 H   -6.373713   -1.905322   -2.190654
 H   -6.315893   -0.158696   -2.406560
 H   -2.390065   -0.896844   -0.378274
