80 
2bdl_ligand_dft.xyz
 C    3.373118    4.962558   -1.725142
 C    1.899212    5.083987   -1.343288
 C    1.414213    3.910003   -0.492822
 C   -0.063444    4.024815   -0.117639
 C   -0.561993    2.882034    0.768576
 N   -0.369433    1.617568    0.064810
 C   -0.550230    0.417760    0.656535
 O   -0.735281    0.237805    1.857567
 O   -0.478239   -0.567229   -0.248122
 C   -0.514443   -1.917243    0.235701
 C    0.857586   -2.268403    0.798494
 N    1.648655   -2.554242   -0.399835
 C    0.786590   -2.742497   -1.574125
 C   -0.641623   -2.821729   -1.000763
 C   -1.701629   -2.343363   -1.992669
 C   -0.968848   -4.253388   -0.550085
 C    2.890283   -2.001749   -0.620348
 O    3.324842   -1.763757   -1.735256
 N    3.613568   -1.732018    0.532031
 C    4.822099   -1.023839    0.486021
 C    5.005539    0.327592    0.063207
 C    3.970601    1.248842   -0.486356
 N    6.253772    0.691129    0.198185
 O    6.917879   -0.408844    0.726159
 C    6.059672   -1.426956    0.876270
 C    6.582689   -2.706610    1.419724
 C   -2.028831    3.067782    1.233153
 O   -2.262489    2.495147    2.502493
 C   -2.972450    2.511209    0.152003
 O   -2.857096    2.823081   -1.027927
 N   -3.874578    1.628229    0.628893
 C   -4.829143    0.928836   -0.203435
 C   -6.250390    1.434148    0.081210
 C   -4.737788   -0.583297   -0.036586
 C   -4.009748   -1.186242    0.988673
 C   -4.022513   -2.571392    1.148751
 C   -4.746702   -3.375941    0.276357
 C   -5.453403   -2.784817   -0.769178
 C   -5.449383   -1.403183   -0.918589
 H    3.699424    5.810743   -2.335292
 H    3.555803    4.046820   -2.299085
 H    4.009134    4.927807   -0.832807
 H    1.735664    6.022379   -0.797050
 H    1.286659    5.146772   -2.252303
 H    1.591644    2.974914   -1.039567
 H    2.020160    3.844775    0.422207
 H   -0.691793    4.069738   -1.015307
 H   -0.227513    4.963790    0.425041
 H    0.047072    2.844961    1.679476
 H   -0.462726    1.633862   -0.941740
 H   -1.325437   -2.025811    0.956453
 H    1.269172   -1.432411    1.368228
 H    0.791042   -3.136032    1.467294
 H    0.901398   -1.893979   -2.256353
 H    1.064072   -3.650409   -2.118726
 H   -1.706271   -2.991861   -2.876002
 H   -2.698174   -2.380325   -1.540762
 H   -1.510935   -1.319358   -2.320789
 H   -1.933284   -4.286163   -0.032442
 H   -0.202536   -4.669953    0.111891
 H   -1.035388   -4.907874   -1.425420
 H    3.332169   -2.146331    1.406091
 H    4.382226    2.251786   -0.617348
 H    3.107864    1.301949    0.186922
 H    3.615016    0.869102   -1.449382
 H    6.846818   -2.613106    2.478529
 H    5.824218   -3.486651    1.313863
 H    7.479078   -3.014879    0.874121
 H   -2.237897    4.138592    1.331611
 H   -1.734094    1.674474    2.543598
 H   -3.914906    1.554786    1.637559
 H   -4.559243    1.189786   -1.231735
 H   -6.304752    2.512319   -0.094185
 H   -6.526094    1.232043    1.122213
 H   -6.982481    0.938366   -0.562707
 H   -3.404729   -0.584440    1.659841
 H   -3.461760   -3.020206    1.964375
 H   -4.756823   -4.454257    0.404514
 H   -6.011593   -3.401370   -1.467380
 H   -6.005271   -0.952143   -1.737236
