80 
2bdl_ligand_xtb.xyz
 C   -0.765638    6.962706   -1.374283
 C   -1.966338    6.104666   -0.995133
 C   -1.550786    4.868616   -0.200381
 C   -2.758042    4.014743    0.183677
 C   -2.363546    2.752816    0.945851
 N   -1.555621    1.915859    0.070870
 C   -1.064534    0.721759    0.442497
 O   -1.083447    0.271119    1.573198
 O   -0.499205    0.093633   -0.604032
 C    0.142757   -1.147204   -0.326875
 C    1.530796   -0.902626    0.281604
 N    2.421725   -0.889785   -0.857903
 C    1.717220   -1.141095   -2.101760
 C    0.439684   -1.861908   -1.660106
 C   -0.701223   -1.728062   -2.661052
 C    0.732547   -3.339192   -1.398956
 C    3.751393   -0.606942   -0.863824
 O    4.403501   -0.587518   -1.887316
 N    4.278945   -0.342072    0.386063
 C    5.635603   -0.098481    0.612963
 C    6.522701    0.792461   -0.065409
 C    6.239983    1.676710   -1.217973
 N    7.697949    0.753127    0.502864
 O    7.640098   -0.116652    1.540825
 C    6.403722   -0.640498    1.613291
 C    6.093715   -1.613110    2.693052
 C   -3.597068    1.984731    1.483649
 O   -3.329193    1.341258    2.702906
 C   -4.109029    1.005637    0.408807
 O   -4.154799    1.297236   -0.772025
 N   -4.485402   -0.170419    0.921279
 C   -4.978450   -1.276762    0.135688
 C   -6.308018   -1.770175    0.713623
 C   -3.997098   -2.427557    0.075313
 C   -3.126117   -2.705917    1.120361
 C   -2.300946   -3.816887    1.067886
 C   -2.338525   -4.664611   -0.026010
 C   -3.191000   -4.383172   -1.080915
 C   -4.011684   -3.270958   -1.029486
 H   -1.083216    7.838000   -1.935566
 H   -0.069175    6.395871   -1.988182
 H   -0.239932    7.299019   -0.483294
 H   -2.663297    6.698634   -0.400047
 H   -2.489593    5.790809   -1.900749
 H   -0.850450    4.279202   -0.794946
 H   -1.029318    5.182098    0.707101
 H   -3.312435    3.716450   -0.708465
 H   -3.425959    4.606805    0.811487
 H   -1.746854    3.016334    1.815863
 H   -1.680776    2.057631   -0.920589
 H   -0.498531   -1.731567    0.341000
 H    1.544794    0.049693    0.822833
 H    1.781396   -1.709221    0.982560
 H    1.477757   -0.195541   -2.601890
 H    2.347217   -1.736458   -2.763745
 H   -0.421386   -2.193016   -3.602842
 H   -1.591764   -2.220648   -2.276876
 H   -0.935350   -0.683474   -2.841740
 H   -0.127571   -3.818559   -0.938671
 H    1.593823   -3.459348   -0.747528
 H    0.945237   -3.840914   -2.339622
 H    3.769705   -0.670956    1.191507
 H    7.149363    2.193249   -1.508539
 H    5.474732    2.403763   -0.948699
 H    5.860747    1.079434   -2.044971
 H    5.418081   -1.172898    3.427123
 H    5.624050   -2.504221    2.279207
 H    7.016126   -1.893774    3.193133
 H   -4.406134    2.695581    1.691411
 H   -2.476870    0.871722    2.597302
 H   -4.419936   -0.269271    1.926376
 H   -5.134902   -0.881178   -0.874643
 H   -7.029735   -0.957596    0.743766
 H   -6.158620   -2.148021    1.723296
 H   -6.706578   -2.573478    0.100111
 H   -3.080100   -2.057490    1.982257
 H   -1.631547   -4.024301    1.890248
 H   -1.710490   -5.543213   -0.055380
 H   -3.217054   -5.032295   -1.943656
 H   -4.676747   -3.054559   -1.853189
