62 
2bdy_ligand_dft.xyz
 C    4.491472   -1.566726   -0.235854
 C    3.948582   -0.916501    0.915911
 C    5.842945   -1.264225   -0.573682
 C    3.774136   -2.475133   -1.059254
 S    2.252579   -1.151781    1.422604
 C    4.692031   -0.053493    1.680162
 C    6.588380   -0.365750    0.234818
 C    6.427281   -1.868226   -1.716869
 C    4.370904   -3.039054   -2.157482
 N    1.416285   -0.540407    0.082780
 O    1.907589   -2.566019    1.441363
 O    2.037494   -0.332911    2.605508
 C    6.033303    0.222273    1.338587
 C    5.708339   -2.735314   -2.495379
 C    1.308006    0.874138   -0.039090
 C    0.112709    1.505602    0.323682
 C    2.352967    1.633856   -0.545432
 C   -0.020489    2.895074    0.233780
 O   -0.890562    0.692519    0.767681
 C    2.210484    3.010173   -0.673926
 C    1.033438    3.655587   -0.298227
 C   -1.302319    3.541364    0.725213
 C    0.897868    5.147259   -0.480930
 C   -2.414342    3.329785   -0.293537
 N   -3.314012    2.333133    0.047438
 O   -2.443233    3.893489   -1.368681
 C   -4.416451    2.009215   -0.851641
 C   -4.944554    0.620737   -0.579982
 C   -6.298500    0.412403   -0.322207
 C   -4.085497   -0.481595   -0.592032
 C   -6.787020   -0.867137   -0.082213
 C   -4.569414   -1.760247   -0.351406
 C   -5.927969   -1.966043   -0.089775
 C   -6.462091   -3.335105    0.190248
 N   -5.845908   -4.349249   -0.518855
 N   -7.377460   -3.622674    1.036927
 H    2.753858   -2.732576   -0.807420
 H    4.231226    0.421046    2.538982
 H    7.617717   -0.152713   -0.041883
 H    7.458736   -1.628891   -1.961636
 H    3.807692   -3.733213   -2.773668
 H    0.502041   -0.990857    0.092639
 H    6.610908    0.906336    1.951422
 H    6.162576   -3.193198   -3.368641
 H    3.264490    1.137574   -0.861328
 H   -1.751325    1.067126    0.515696
 H    3.027206    3.593042   -1.089179
 H   -1.166069    4.615738    0.852598
 H   -1.571866    3.122306    1.702366
 H   -0.001749    5.389852   -1.055907
 H    0.834159    5.670890    0.481081
 H    1.762113    5.550390   -1.015283
 H   -3.505587    2.211986    1.035243
 H   -4.019314    2.090779   -1.867225
 H   -5.220551    2.750569   -0.765543
 H   -6.981860    1.257783   -0.315432
 H   -3.025119   -0.338562   -0.783663
 H   -7.847836   -1.016910    0.098159
 H   -3.890857   -2.607650   -0.345037
 H   -6.298332   -5.246456   -0.400786
 H   -5.579741   -4.141590   -1.470778
 H   -7.641627   -2.794047    1.567680
