22 
2bet_ligand_dft.xyz
 O   -3.485754   -0.659428   -1.152215
 C   -3.091339   -0.402584   -0.038573
 O   -3.392496   -1.115988    1.049221
 C   -2.161224    0.757302    0.256616
 O   -2.006554    1.549127   -0.890263
 C   -0.773919    0.275421    0.730499
 O    0.052739    1.417631    0.865450
 C   -0.159449   -0.738705   -0.236969
 O    1.146786   -1.108708    0.181996
 P    2.382061   -0.120497   -0.162288
 O    2.160085    0.667056   -1.391363
 O    3.628371   -1.118853   -0.182791
 O    2.678744    0.654168    1.194657
 H   -3.969331   -1.845936    0.769332
 H   -2.595028    1.366313    1.058242
 H   -2.388721    1.054537   -1.633217
 H   -0.850679   -0.168166    1.726383
 H    0.030919    1.879322    0.009547
 H   -0.127726   -0.323511   -1.249741
 H   -0.746056   -1.661764   -0.243990
 H    3.914487   -1.262531   -1.094326
 H    1.861429    1.140556    1.425108
