25 
2bjm_ligand_dft.xyz
 C   -2.488772    1.173061    0.000150
 C   -3.659114    0.474656    0.000102
 C   -3.646783   -0.949486   -0.000069
 C   -2.463556   -1.623154   -0.000108
 C    2.471934   -1.623392    0.000062
 C    3.649100   -0.936150    0.000048
 C    3.653842    0.488164   -0.000015
 C    2.480088    1.182612   -0.000031
 C    0.007030    1.186445   -0.000014
 O    0.092802    2.541727   -0.000046
 C    0.000354   -1.621651   -0.000021
 C    1.217192   -0.937218    0.000031
 C    1.229117    0.493319    0.000008
 C   -1.222970    0.504778    0.000028
 C   -1.210273   -0.931556   -0.000034
 H   -2.545680    2.259852    0.000387
 H   -4.607348    1.003070    0.000229
 H   -4.587002   -1.492428   -0.000139
 H   -2.446746   -2.709873   -0.000193
 H    2.464570   -2.710224    0.000104
 H    4.593228   -1.472999    0.000080
 H    4.600856    1.019236   -0.000051
 H    2.475144    2.266668   -0.000063
 H   -0.788694    2.929000   -0.000780
 H   -0.003871   -2.708695   -0.000039
