87 
2bks_ligand_xtb.xyz
 C   12.288966   -1.630040   -0.543153
 O   11.083990   -0.915368   -0.396620
 C   10.296078   -1.181017    0.686123
 C    9.116744   -0.425495    0.777333
 C    8.840789    0.586990   -0.298254
 O    7.593481    1.212345   -0.104579
 C   10.583497   -2.121213    1.665841
 C    9.709312   -2.308837    2.725330
 C    8.549084   -1.566146    2.817347
 C    8.258727   -0.625830    1.840998
 C   -2.411466    0.357548   -0.239255
 C   -3.109510   -0.746628    0.565667
 N   -3.456205   -1.933437   -0.269240
 C   -2.890449   -1.901297   -1.638360
 C   -1.459492   -1.324505   -1.705580
 N   -1.290428   -0.207782   -0.963619
 O   -0.628200   -1.869557   -2.387283
 C   -3.371139    1.202167   -1.124458
 O   -4.049000    2.146724   -0.341070
 C    0.058196    1.834027   -0.850876
 C   -0.018878    0.443934   -0.882282
 C    1.148992   -0.302165   -0.820412
 C    2.381547    0.320526   -0.760249
 C    2.468628    1.711965   -0.743632
 C    1.283533    2.455756   -0.775952
 O    3.609063    2.420662   -0.698045
 C    4.853141    1.744785   -0.795427
 C    5.954058    2.799629   -0.807537
 C    7.311255    2.169023   -1.095679
 C   -6.609238   -2.349736   -1.751967
 C   -5.370583    2.408987    1.590722
 C   -6.449369    2.040621    2.368566
 C   -7.344553    1.059522    1.970548
 C   -7.184700    0.460852    0.714360
 C   -6.073762    0.812970   -0.058209
 C   -5.164906    1.767043    0.375458
 C   -8.448541    0.624069    2.889574
 C   -8.790609   -0.830924    2.597096
 C   -9.147004   -0.948382    1.125460
 N   -8.028096   -0.569999    0.268397
 C   -8.385750   -0.648480   -1.147769
 C   -8.099375   -2.039192   -1.730561
 O   -6.053807   -2.345163   -0.436043
 H   12.966863   -1.451619    0.297147
 H   12.743682   -1.253005   -1.457869
 H   12.109551   -2.704893   -0.645478
 H    9.647802    1.338516   -0.302059
 H    8.867354    0.086755   -1.280919
 H   11.484378   -2.711867    1.616807
 H    9.947499   -3.042825    3.480537
 H    7.872535   -1.713130    3.645415
 H    7.361212   -0.030854    1.895013
 H   -2.001078    1.064922    0.491470
 H   -4.016190   -0.343626    1.022272
 H   -2.429728   -1.060239    1.360161
 H   -3.104942   -2.772776    0.196036
 H   -4.532125   -2.062882   -0.333322
 H   -2.846517   -2.913133   -2.044658
 H   -3.528137   -1.307990   -2.293814
 H   -2.771305    1.780268   -1.832061
 H   -4.062392    0.583263   -1.701087
 H   -0.829544    2.444755   -0.894018
 H    1.108082   -1.378476   -0.835192
 H    3.268853   -0.289381   -0.722124
 H    1.354534    3.530992   -0.755384
 H    4.999098    1.072159    0.056886
 H    4.884460    1.157353   -1.722560
 H    5.731433    3.542819   -1.573497
 H    5.981963    3.296248    0.162012
 H    7.303654    1.689710   -2.088944
 H    8.088548    2.948737   -1.104356
 H   -6.088354   -1.606133   -2.371223
 H   -6.423802   -3.340121   -2.175410
 H   -4.680190    3.171740    1.907528
 H   -6.600282    2.519785    3.323580
 H   -5.932871    0.351134   -1.022241
 H   -9.332807    1.248475    2.734473
 H   -8.137060    0.750118    3.926983
 H   -9.634789   -1.161763    3.200609
 H   -7.933889   -1.468351    2.827787
 H   -9.417088   -1.980102    0.880275
 H  -10.019967   -0.314324    0.915398
 H   -9.454963   -0.435358   -1.263802
 H   -7.847608    0.112135   -1.715658
 H   -8.613867   -2.799819   -1.141477
 H   -8.482858   -2.085868   -2.749088
 H   -6.659616   -1.783125    0.101320
