39 
2bkz_ligand_xtb.xyz
 C   -2.633756   -1.401470    0.522069
 C   -1.256299   -1.493430    0.572680
 C   -0.475212   -0.509924   -0.033968
 C   -1.076106    0.543154   -0.721636
 C   -2.455350    0.631037   -0.760131
 C   -3.217090   -0.334091   -0.132129
 N    0.913271   -0.626704    0.021678
 C    1.863828    0.351821    0.032315
 C    3.097750   -0.281132    0.025471
 C    2.792211   -1.656131    0.021373
 N    1.475435   -1.840787    0.025319
 C    1.797772    1.779786    0.128073
 C    4.394512    0.450446    0.076551
 C    4.256548    1.835433   -0.575131
 C    3.002526    2.498854   -0.121396
 C    0.888269    2.742508    0.511907
 N    2.821427    3.784908    0.078318
 N    1.549203    3.920435    0.461168
 C    3.741727   -2.787009   -0.006022
 N    3.134297   -3.993436   -0.040718
 O    4.948201   -2.643674   -0.000047
 S   -4.991121   -0.189287   -0.156943
 O   -5.388980    0.637933   -1.257420
 O   -5.581075   -1.484280    0.010232
 N   -5.243511    0.687881    1.262378
 H   -3.268913   -2.147201    0.971880
 H   -0.763997   -2.315083    1.067727
 H   -0.466267    1.267816   -1.237021
 H   -2.957101    1.423698   -1.291267
 H    5.170754   -0.137159   -0.412969
 H    4.685742    0.564928    1.126231
 H    4.211161    1.720421   -1.663368
 H    5.116212    2.461941   -0.340999
 H   -0.134728    2.678289    0.822306
 H    3.691052   -4.829791   -0.079038
 H    2.131380   -4.043516   -0.068593
 H   -5.691808    1.570403    1.076282
 H   -5.760738    0.152778    1.941098
 H    1.191195    4.836061    0.679542
