64 
2bmg_ligand_xtb.xyz
 C    4.339548   -3.090784   -0.233762
 C    3.430759   -2.005615   -0.236079
 C    2.070921   -2.250377   -0.255536
 C    1.583902   -3.560491   -0.260191
 C    2.480639   -4.615453   -0.231829
 C    3.846535   -4.385081   -0.227808
 O    5.653180   -2.748012   -0.229510
 O    4.007501   -0.772892   -0.217924
 C    3.182696    0.368314   -0.201726
 C    4.108512    1.586137   -0.110970
 C    3.335641    2.866458   -0.214068
 C    3.278397    3.567621   -1.412885
 C    2.561805    4.743425   -1.538779
 C    1.878812    5.238732   -0.439358
 C    1.909334    4.566470    0.771597
 C    2.632945    3.389224    0.870093
Cl    2.653198    2.574842    2.394347
Cl    0.981484    6.705479   -0.570089
 C    0.130811   -3.886542   -0.258503
 N   -0.672192   -2.977905   -0.868150
 C   -2.104057   -3.145553   -0.920667
 C   -2.826711   -2.424062    0.226607
 C   -2.644206   -0.906384    0.147622
 C   -3.453549   -0.209419    1.248680
 N   -4.855136   -0.551009    1.138854
 C   -5.038319   -1.976231    1.308539
 C   -4.318767   -2.762218    0.209365
 C   -5.705748    0.186537    0.350768
 C   -5.560864    1.577204    0.212285
 C   -6.472010    2.289861   -0.538467
 N   -7.509547    1.752873   -1.162205
 C   -7.660723    0.445199   -1.030820
 C   -6.814028   -0.370881   -0.307184
 O   -0.307532   -4.911518    0.228492
 C    6.613052   -3.775728   -0.193998
 H    1.382443   -1.419808   -0.227723
 H    2.095476   -5.622730   -0.215786
 H    4.519798   -5.226815   -0.215661
 H    2.504218    0.347359    0.661371
 H    2.582118    0.424923   -1.122386
 H    4.836327    1.518314   -0.919537
 H    4.644808    1.536866    0.837453
 H    3.814680    3.182956   -2.267208
 H    2.533953    5.273250   -2.477316
 H    1.379082    4.953515    1.626825
 H   -0.272211   -2.153720   -1.281878
 H   -2.297331   -4.218814   -0.840051
 H   -2.472240   -2.784565   -1.885085
 H   -2.394569   -2.782155    1.167526
 H   -2.990390   -0.545180   -0.824930
 H   -1.590409   -0.644342    0.258092
 H   -3.313015    0.867777    1.186712
 H   -3.099689   -0.541289    2.230677
 H   -6.100620   -2.215650    1.339876
 H   -4.611282   -2.244728    2.281146
 H   -4.461479   -3.832338    0.362811
 H   -4.741476   -2.494649   -0.762066
 H   -4.759862    2.110912    0.698052
 H   -6.367439    3.362038   -0.647540
 H   -8.511909    0.020818   -1.548528
 H   -7.019809   -1.428100   -0.278058
 H    6.516674   -4.386139    0.709700
 H    6.546411   -4.420217   -1.076676
 H    7.579118   -3.273472   -0.187702
