23 
2boj_ligand_xtb.xyz
 C    1.062674    0.034951    0.656732
 C   -0.190406    0.923037    0.593842
 C   -1.045240    0.492819   -0.606013
 C   -1.377202   -1.000786   -0.479255
 C   -0.081739   -1.797821   -0.310451
 O    1.837171    0.362987   -0.472043
 O    0.143808    2.283973    0.508251
 O   -2.254588    1.216027   -0.637045
 O   -2.221093   -1.228154    0.617358
 O    0.744981   -1.319491    0.734511
 C    3.136708   -0.193096   -0.448599
 H    1.632436    0.243825    1.577518
 H   -0.769395    0.792397    1.513843
 H   -0.471678    0.666110   -1.530598
 H   -1.872516   -1.332099   -1.407540
 H    0.464627   -1.785000   -1.262923
 H   -0.319166   -2.824166   -0.030341
 H    0.849814    2.365116   -0.147573
 H   -2.050105    2.125762   -0.383232
 H   -2.907427   -0.546946    0.584810
 H    3.604773    0.088753   -1.389116
 H    3.712114    0.210622    0.391596
 H    3.095511   -1.281734   -0.362246
