23 
2boj_ligand_dft.xyz
 C    1.062503    0.054463    0.666300
 C   -0.190519    0.923421    0.571686
 C   -1.056139    0.481126   -0.605331
 C   -1.366173   -1.009180   -0.487891
 C   -0.066512   -1.784666   -0.321436
 O    1.844163    0.383597   -0.456658
 O    0.126488    2.297263    0.470543
 O   -2.283454    1.183560   -0.601394
 O   -2.197390   -1.244148    0.624730
 O    0.747311   -1.302962    0.740845
 C    3.131544   -0.200736   -0.440239
 H    1.620321    0.272044    1.586841
 H   -0.764075    0.794708    1.492672
 H   -0.507560    0.662848   -1.542001
 H   -1.851494   -1.351628   -1.416619
 H    0.489907   -1.756202   -1.268394
 H   -0.286504   -2.824034   -0.072039
 H    0.831852    2.353870   -0.191275
 H   -2.065571    2.098742   -0.373339
 H   -2.862930   -0.540507    0.597477
 H    3.646281    0.139019   -1.340441
 H    3.696721    0.120417    0.446039
 H    3.067898   -1.294325   -0.441976
