95 
2bpv_ligand_dft.xyz
 C   -2.010115    1.264561    1.119460
 C   -1.516708    1.487910   -0.318475
 C   -0.751180    2.809753   -0.430961
 O    0.842417   -0.140932    1.669249
 O   -4.510601    1.363931    0.329818
 C   -0.351973    5.621938   -1.645798
 C   -1.387693   -0.987790   -0.515534
 C   -2.039617   -1.102519    0.865614
 C   -0.199019    0.449545   -2.172370
 C    1.310882    0.162788   -2.322718
 C    1.648485   -1.342092   -2.481976
 C    2.870135   -1.830576   -1.677777
 C    4.167992   -1.153397   -2.149630
 C    5.463354   -1.592275   -1.493495
 C    6.455696   -0.639541   -1.243200
 C    6.929429   -3.289881   -0.574472
 C    5.717350   -2.923206   -1.149938
 C    2.511434   -1.757568   -0.193190
 C    3.113268   -1.081381    2.102453
 C    2.782676    1.318366    2.138387
 C   -6.218937   -0.853176    0.094178
 C    4.338253   -0.486243    2.811822
 C   -4.135935    0.250722    0.686082
 C   -8.545688   -1.587269   -0.335639
 C   -9.498084   -2.594050   -0.385146
 C   -9.100305   -3.896193   -0.094192
 C   -6.945198   -3.256348    0.266659
 N   -2.836197    0.077903    1.159935
 O    0.476834    2.847278   -0.525646
 N   -1.552469    3.878630   -0.378028
 C   -1.118682    5.299423   -0.358583
 C   -0.251176    5.553398    0.879153
 C   -2.403317    6.128670   -0.286831
 N   -0.662279    0.322657   -0.737331
 O    1.994249    0.689120   -1.213036
 C    7.675290   -1.005341   -0.678022
 C    7.914243   -2.333104   -0.339704
 O    1.411765   -2.217803    0.174011
 N    3.370485   -1.212124    0.669667
 C    2.053408   -0.003713    2.404437
 C    4.273538    1.017138    2.440052
 C    5.672996   -1.169103    2.536471
 C   -5.016091   -0.934293    0.684088
 C   -7.229244   -1.906676    0.013850
 N   -7.844858   -4.232076    0.218671
 H   -2.594279    2.124329    1.441123
 H   -1.154711    1.131730    1.787497
 H   -2.384160    1.497742   -0.985819
 H    0.871670   -1.053870    1.305211
 H   -0.087039    6.683506   -1.656705
 H    0.567661    5.036684   -1.711295
 H   -0.969749    5.416105   -2.526134
 H   -0.646008   -1.776695   -0.652932
 H   -2.157439   -1.043974   -1.290287
 H   -2.648889   -2.006576    0.862106
 H   -1.283906   -1.212353    1.645636
 H   -0.802438   -0.219416   -2.788844
 H   -0.405714    1.473612   -2.482144
 H    1.618157    0.686792   -3.238394
 H    1.825444   -1.544535   -3.543082
 H    0.798406   -1.962134   -2.190657
 H    2.939921   -2.906450   -1.884305
 H    4.062844   -0.070482   -2.037261
 H    4.246610   -1.344402   -3.228207
 H    6.275122    0.401072   -1.503411
 H    7.107953   -4.328740   -0.314748
 H    4.966332   -3.687635   -1.330201
 H    2.829733   -2.063373    2.495183
 H    2.638656    1.583406    1.088575
 H    2.379041    2.133923    2.743607
 H   -6.479363    0.103557   -0.356700
 H    4.128327   -0.583036    3.884270
 H   -8.815719   -0.557031   -0.552666
 H  -10.529741   -2.379981   -0.641583
 H   -9.819568   -4.710853   -0.117899
 H   -5.929000   -3.567855    0.502191
 H   -2.548568    3.708206   -0.305891
 H   -0.802786    5.313871    1.794175
 H    0.661898    4.953900    0.849114
 H    0.031368    6.609785    0.918496
 H   -3.042605    5.947151   -1.158164
 H   -2.155285    7.192981   -0.269905
 H   -2.971850    5.904144    0.622963
 H    0.185219    0.331013   -0.123030
 H    1.682122    1.599854   -1.045317
 H    8.434746   -0.250519   -0.498989
 H    8.860592   -2.622114    0.106096
 H    4.244408   -0.856980    0.309005
 H    1.813856   -0.089077    3.473238
 H    4.676383    1.637416    3.244713
 H    4.891540    1.213563    1.555560
 H    6.458966   -0.715298    3.148048
 H    5.986829   -1.075053    1.491795
 H    5.630483   -2.235820    2.778301
 H   -4.702344   -1.828622    1.211758
