108 
2bpy_ligand_xtb.xyz
 C    1.244132    0.932237   -2.317487
 C   -0.039911    0.200554   -1.889727
 C    0.018289   -0.538508   -0.561539
 O   -4.566605   -2.862765   -1.831739
 O    2.830309    3.366529   -0.179666
 N    3.542866   -0.076360   -0.973724
 C   -0.077742   -0.318070    2.394383
 C   -0.836679    2.240996   -0.916911
 C    0.439746    2.965756   -1.356102
 C   -1.901673    1.364489   -2.981492
 C   -3.109003    0.393146   -3.120871
 C   -4.424582    0.955670   -2.558972
 C   -4.412047    1.387804   -1.089103
 C   -5.783275    1.976034   -0.708109
 C   -5.910183    2.269249    0.763370
 C   -7.011540    1.808651    1.472505
 C   -5.072652    3.261200    2.791395
 C   -4.946261    3.008132    1.438101
 C   -4.034621    0.280288   -0.109120
 C   -4.382272   -2.072373    0.452387
 C   -4.651894   -4.457907    0.018496
 C    7.490619   -0.284056    2.137218
 C   -5.506655   -2.658374    1.352025
 C    2.689702    2.297845   -0.767115
 C    3.795466    1.320188   -0.791463
 C    4.641619   -0.873125   -0.606619
 C    5.889048   -0.429678   -0.441655
 C    9.128829   -0.176691    0.390105
 N    1.533177    2.021106   -1.422361
 O   -1.100742   -1.242558   -0.321245
 N    1.006937   -0.438300    0.209330
 C    1.027681   -0.980680    1.562518
 C    0.861394   -2.503403    1.560030
 C    2.389785   -0.611268    2.162634
 N   -1.174227    1.112597   -1.761782
 O   -2.747108   -0.841171   -2.541185
 C   -7.144462    2.067030    2.825684
 C   -6.170551    2.789834    3.490766
 O   -3.186777    0.438203    0.741314
 N   -4.745991   -0.862825   -0.232607
 C   -4.013613   -3.194234   -0.558119
 C   -5.944018   -3.943741    0.644097
 C   -6.651190   -1.690901    1.615051
 N    6.169130    0.955516   -0.671786
 C    5.044197    1.773569   -0.612392
 C    7.030005   -1.534632    1.361837
 N    8.259324    0.594525    1.262491
 C    8.251063   -0.959526   -0.608746
 N    6.942875   -1.276139   -0.062135
 C    8.954813    1.617617    2.009047
Cl    4.273853   -2.549274   -0.415922
 H    2.081593    0.243748   -2.379167
 H    1.066060    1.353232   -3.320413
 H   -0.287611   -0.539078   -2.660135
 H   -4.456296   -3.626772   -2.407363
 H   -0.103486   -0.751066    3.391716
 H    0.119536    0.748408    2.481703
 H   -1.049871   -0.448684    1.927393
 H   -1.668371    2.946561   -0.903168
 H   -0.700172    1.854866    0.096455
 H    0.710615    3.744075   -0.641720
 H    0.292775    3.422716   -2.345695
 H   -2.280626    2.387974   -2.995481
 H   -1.263291    1.237606   -3.866925
 H   -3.282604    0.234037   -4.201223
 H   -5.204934    0.204875   -2.723860
 H   -4.691708    1.825564   -3.165286
 H   -3.651426    2.157758   -0.956777
 H   -5.933585    2.900554   -1.275423
 H   -6.574435    1.281011   -1.001429
 H   -7.779038    1.243921    0.961068
 H   -4.308933    3.827759    3.302764
 H   -4.084368    3.384019    0.909378
 H   -3.507911   -1.813810    1.054942
 H   -3.998906   -4.873658    0.785497
 H   -4.820479   -5.218221   -0.745271
 H    6.625036    0.283352    2.493027
 H    8.082360   -0.593628    3.015834
 H   -5.055355   -2.926211    2.311262
 H    9.768204   -0.865397    0.968578
 H    9.782604    0.510927   -0.150196
 H    2.663348   -0.345940   -0.501957
 H    1.610821   -2.957692    0.914775
 H   -0.126386   -2.773602    1.197800
 H    0.986735   -2.890847    2.568440
 H    2.591995    0.445301    2.001515
 H    2.391094   -0.809864    3.231801
 H    3.182881   -1.195682    1.705295
 H   -1.762891   -1.010579   -1.004061
 H   -3.532595   -1.406410   -2.428068
 H   -8.007952    1.697655    3.359871
 H   -6.267286    2.986283    4.548290
 H   -5.434640   -0.957003   -0.960126
 H   -2.925984   -3.288153   -0.661015
 H   -6.665819   -3.710641   -0.141064
 H   -6.394906   -4.661542    1.326598
 H   -7.348121   -2.128093    2.326324
 H   -7.194991   -1.470686    0.699298
 H   -6.271717   -0.759496    2.027687
 H    5.222027    2.827134   -0.473352
 H    6.057996   -1.868484    1.725771
 H    7.743611   -2.352400    1.496515
 H    6.962974    1.264593   -0.110277
 H    8.106041   -0.387209   -1.524930
 H    8.744824   -1.904005   -0.866217
 H    8.228888    2.181777    2.593934
 H    9.448070    2.296797    1.314310
 H    9.710495    1.204546    2.694979
