108 
2bpy_ligand_dft.xyz
 C   -1.119017   -1.787355   -1.374163
 C   -0.034504   -0.730461   -1.193353
 C   -0.311502    0.503928   -0.291768
 O    4.098950    2.460696   -2.251630
 O   -2.376391   -2.791231    1.869050
 N   -3.593323   -0.660967   -0.847982
 C   -1.738813    1.858856    2.006314
 C    0.886661   -2.150357    0.631867
 C   -0.217837   -3.163356    0.372250
 C    2.060122   -2.074041   -1.578460
 C    2.870616   -1.107034   -2.496526
 C    4.392732   -1.338081   -2.438796
 C    5.075487   -1.395819   -1.052951
 C    6.604324   -1.264246   -1.196261
 C    7.323742   -1.375319    0.127316
 C    7.489202   -2.621259    0.735908
 C    8.409304   -0.344489    2.032983
 C    7.793640   -0.240171    0.788907
 C    4.445649   -0.381982   -0.103690
 C    3.877831    1.980559    0.128499
 C    4.827508    4.156399   -0.579421
 C   -8.181882    1.355237    1.231308
 C    4.397674    2.755026    1.349768
 C   -2.442390   -2.255950    0.760053
 C   -3.571254   -1.387877    0.374659
 C   -4.852994   -0.289968   -1.191366
 C   -5.906786   -0.167577   -0.364087
 C   -9.205753   -0.706608    0.535571
 N   -1.392826   -2.492391   -0.140475
 O    0.672163    0.963524    0.316523
 N   -1.538787    0.996557   -0.293832
 C   -1.929101    2.170839    0.515395
 C   -1.103382    3.394663    0.096138
 C   -3.413598    2.436007    0.236571
 N    1.211808   -1.344255   -0.598871
 O    2.495146    0.201008   -2.145862
 C    8.103786   -2.730962    1.978447
 C    8.564345   -1.590668    2.631725
 O    3.618353   -0.739023    0.729001
 N    4.778443    0.915867   -0.297181
 C    3.805968    3.059097   -0.978454
 C    5.460757    3.677646    0.739872
 C    4.868965    1.876670    2.499448
 N   -5.622828   -0.398525    1.054104
 C   -4.560573   -1.259462    1.288592
 C   -7.750523    1.400529   -0.254512
 N   -8.521089   -0.016578    1.619582
 C   -8.216297   -0.935780   -0.627741
 N   -7.225304    0.135567   -0.733914
 C   -9.249612   -0.050096    2.870020
Cl   -5.060109    0.099281   -2.913829
 H   -2.043642   -1.330560   -1.739063
 H   -0.779442   -2.517439   -2.124595
 H    0.260956   -0.332514   -2.166453
 H    3.968243    3.132495   -2.931310
 H   -2.107321    2.693300    2.613617
 H   -2.307157    0.960655    2.270902
 H   -0.683966    1.694218    2.238958
 H    1.823114   -2.592841    0.974184
 H    0.558046   -1.424550    1.378178
 H   -0.483783   -3.649588    1.310740
 H    0.110849   -3.930082   -0.344155
 H    2.728626   -2.707306   -0.995139
 H    1.415280   -2.725301   -2.170488
 H    2.569937   -1.304637   -3.536045
 H    4.853375   -0.538582   -3.036339
 H    4.621579   -2.272268   -2.967127
 H    4.871414   -2.365281   -0.587835
 H    6.947154   -2.050813   -1.880040
 H    6.858745   -0.313501   -1.682522
 H    7.132448   -3.516186    0.230393
 H    8.766939    0.550361    2.533485
 H    7.669838    0.737212    0.329400
 H    2.900675    1.530971    0.315682
 H    4.314031    5.112405   -0.435843
 H    5.567463    4.299925   -1.373870
 H   -7.368589    1.696325    1.881822
 H   -9.043018    2.034227    1.383507
 H    3.560994    3.378574    1.697639
 H  -10.091866   -0.136235    0.195147
 H   -9.575058   -1.669003    0.906309
 H   -2.365132    0.409297   -0.665978
 H   -1.254919    3.604628   -0.968512
 H   -0.039521    3.227800    0.278465
 H   -1.426504    4.271779    0.667797
 H   -4.043628    1.624997    0.611911
 H   -3.712462    3.364607    0.735114
 H   -3.600023    2.543815   -0.837458
 H    1.738218   -0.519768   -0.249457
 H    3.152024    0.871968   -2.407437
 H    8.224848   -3.707520    2.437464
 H    9.043335   -1.674607    3.602324
 H    5.361644    1.123645   -1.094749
 H    2.785783    3.456260   -1.003189
 H    6.371878    3.096988    0.542708
 H    5.740393    4.502431    1.401640
 H    5.196133    2.490343    3.345575
 H    5.708340    1.245559    2.188392
 H    4.066213    1.215831    2.838183
 H   -4.539969   -1.802890    2.225954
 H   -6.993810    2.173478   -0.407682
 H   -8.616299    1.663926   -0.877411
 H   -6.479867   -0.597399    1.568072
 H   -7.677366   -1.875018   -0.477365
 H   -8.778462   -1.025181   -1.568464
 H   -8.665525    0.457507    3.645180
 H   -9.406894   -1.087737    3.182356
 H  -10.235830    0.447570    2.805467
