65 
2bq6_ligand_xtb.xyz
 C   -1.124853    5.005337   -1.435753
 C   -1.283087    4.164277   -0.349345
 C   -0.227049    3.276692   -0.092440
 C    0.924117    3.275475   -0.919959
 C    1.048654    4.140034   -2.005686
 C    0.009821    5.003224   -2.250138
 N   -0.047523    2.322980    0.886300
 C    1.155652    1.721675    0.711292
 C    1.797324    2.274925   -0.400081
 C    1.667701    0.558829    1.458262
 N    3.035647    0.560288    1.546677
 C    3.810010   -0.663820    1.530191
 C    3.329471   -1.560713    0.375747
 C    4.272798   -2.724302    0.137900
 N    5.631545   -2.215757   -0.186135
 C    6.150057   -1.504817    1.008992
 C    5.276884   -0.293178    1.307181
 C    6.517195   -3.297098   -0.753501
 C    7.994718   -2.932578   -0.690250
 C    6.117106   -3.545058   -2.203260
 C   -1.030760    1.843076    1.823169
 C   -2.013511    0.952393    1.130284
 N   -1.800775    0.526901   -0.090429
 O   -2.840718   -0.262728   -0.429926
 C   -3.710850   -0.326682    0.593926
 C   -3.229764    0.442055    1.631913
 C   -4.898628   -1.108473    0.457437
 S   -5.193618   -2.019086   -0.994394
 C   -6.693034   -2.588683   -0.344499
 C   -6.941022   -2.102337    0.907759
 C   -5.917126   -1.258877    1.364625
Cl   -7.687641   -3.640948   -1.243006
 O    0.986465   -0.341749    1.906506
 C    2.988782    1.809061   -0.944274
 N    3.964587    1.338220   -1.343265
 C   -2.537835    4.243616    0.466506
 H   -1.919080    5.698855   -1.668225
 H    1.933933    4.121860   -2.622175
 H    0.061089    5.691008   -3.079612
 H    3.507266    1.368731    1.171146
 H    3.674006   -1.188202    2.483615
 H    3.253541   -0.951632   -0.529115
 H    2.333144   -1.937212    0.607263
 H    3.902183   -3.333676   -0.685496
 H    4.350495   -3.352270    1.027947
 H    5.516489   -1.502491   -0.919551
 H    7.166285   -1.162584    0.820027
 H    6.159967   -2.204189    1.847362
 H    5.669759    0.219580    2.185106
 H    5.329426    0.398980    0.460850
 H    6.339926   -4.193103   -0.150935
 H    8.188764   -1.977728   -1.173342
 H    8.376799   -2.913860    0.326016
 H    8.557221   -3.690730   -1.228328
 H    5.068379   -3.803728   -2.316028
 H    6.329073   -2.669317   -2.813414
 H    6.695860   -4.373896   -2.600319
 H   -1.543565    2.677627    2.304470
 H   -0.522196    1.257798    2.595005
 H   -3.667816    0.609236    2.591631
 H   -7.822881   -2.342883    1.471326
 H   -5.928870   -0.777577    2.324852
 H   -2.326892    4.578991    1.481632
 H   -3.222474    4.958478    0.017588
 H   -3.039023    3.278510    0.511439
