84 
2bqv_ligand_dft.xyz
 C    0.214093   -3.298827   -0.709794
 C   -1.010664   -3.470004   -1.361000
 C   -2.033572   -4.218366   -0.778489
 C   -1.837233   -4.818013    0.460599
 C   -0.618726   -4.656420    1.120613
 C    0.395923   -3.903781    0.540886
 C   -2.057055   -0.507189    2.043473
 C   -2.944651   -1.583634    1.964736
 C   -4.213328   -1.482473    2.524284
 C   -4.596801   -0.314428    3.181961
 C   -3.708644    0.753625    3.280668
 C   -2.443760    0.658163    2.708254
 C   -0.716096   -0.577745    1.374125
 C   -2.573088    5.557931   -0.460960
 C    0.438668   -0.114638   -0.863342
 O   -2.465787    3.056177    0.459321
 N   -3.924892    2.362198   -1.154551
 C    1.322455   -2.501670   -1.355706
 O    1.962990   -1.201170    0.623923
 O   -3.360629    4.506054   -1.031765
 C    2.763072   -0.467151   -1.546922
 O    2.986732   -0.763534   -2.703479
 N    3.510119    0.405732   -0.812472
 C    4.941175    0.459992   -1.059226
 C    5.639625    1.414088   -0.123471
 C    6.806160    0.843535    0.379183
 C    5.250076    2.695832    0.242474
 C    6.050307    3.407521    1.133930
 C    7.218836    2.838915    1.641100
 C    5.631802   -0.909904   -0.772232
 O    4.825391   -1.598304    0.195180
 C   -3.199153    3.300468   -0.496261
 C    7.606310    1.553465    1.265133
 C    7.011923   -0.535928   -0.199163
 C   -4.197591    1.046488   -0.600955
 C   -5.544870    0.482743   -1.077119
 C   -6.699415    1.290381   -0.479130
 C    1.592303   -1.115090   -0.738477
 C   -5.653084    0.376274   -2.601604
 C   -3.050820    0.056054   -0.823440
 N   -0.847906   -0.424684   -0.144248
 O   -3.170959   -1.101894   -1.169935
 N   -1.801827    0.563606   -0.495206
 H   -1.167095   -3.025766   -2.341335
 H   -2.977845   -4.332298   -1.300268
 H   -2.625206   -5.414544    0.909739
 H   -0.456914   -5.127867    2.085000
 H    1.344524   -3.787983    1.056042
 H   -2.649033   -2.494072    1.450236
 H   -4.901472   -2.318773    2.454984
 H   -5.584378   -0.241320    3.626633
 H   -3.998681    1.662006    3.798317
 H   -1.762005    1.501756    2.768626
 H   -0.048751    0.223587    1.696547
 H   -0.205571   -1.529428    1.518533
 H   -2.802583    5.673695    0.599671
 H   -2.851085    6.454090   -1.012658
 H   -1.508900    5.347236   -0.585933
 H    0.165686   -0.006355   -1.914660
 H    0.754435    0.860413   -0.482647
 H   -4.476766    2.676846   -1.939081
 H    2.265899   -3.054981   -1.286788
 H    1.132957   -2.367771   -2.423778
 H    2.873797   -1.555680    0.649983
 H    3.278605    0.426607    0.172929
 H    5.099677    0.728410   -2.107933
 H    4.340938    3.134359   -0.160008
 H    5.765584    4.411178    1.434069
 H    7.833530    3.403882    2.334918
 H    5.697209   -1.519310   -1.679015
 H    5.299811   -2.398408    0.450469
 H    8.516912    1.116236    1.664704
 H    7.754521   -0.510747   -1.006251
 H    7.365392   -1.269643    0.534247
 H   -4.237646    1.148483    0.494195
 H   -5.586563   -0.532100   -0.667756
 H   -6.704983    2.323767   -0.844400
 H   -7.657394    0.839706   -0.753637
 H   -6.640124    1.319285    0.614313
 H   -6.572982   -0.151283   -2.868968
 H   -5.707962    1.359414   -3.086245
 H   -4.813210   -0.176932   -3.030142
 H   -1.251525   -1.307049   -0.519326
 H   -1.776215    1.423494    0.071302
