41 
2brh_ligand_xtb.xyz
 C    2.205912    3.033014    0.375144
 C   -1.611241    0.963731    0.073485
 C   -3.043521    0.748774   -0.028964
 C   -3.850501    1.760232   -0.553846
 C   -5.214945    1.577790   -0.663663
 C   -5.794954    0.389859   -0.248985
 C   -5.002505   -0.612514    0.287433
 C   -3.636991   -0.438477    0.402246
 C   -1.156925   -2.040366   -0.968159
 C   -1.139213   -3.421051   -1.030956
 C   -0.543451   -4.159100   -0.020525
 C    0.031721   -3.510526    1.059136
 N    0.925430    3.308243    0.292666
 C    0.152143    2.228502    0.226123
 O   -1.174100    2.261678    0.109528
 C    0.611397    0.898578    0.268385
 N    2.607664   -0.467226    0.373826
 C    2.009588    0.736720    0.345129
 N    2.778908    1.834673    0.392081
 C    0.019043   -2.128145    1.126154
 C   -0.558124    0.083228    0.166109
 C   -0.576795   -1.380070    0.112289
 C    4.921764   -0.329595   -0.564214
 C    4.014691   -0.658616    0.643993
 O    5.619104   -1.158149   -1.077097
 O    4.874588    0.927688   -0.956777
 H    2.880525    3.876046    0.422623
 H   -3.393523    2.683202   -0.876308
 H   -5.829246    2.364860   -1.075123
 H   -6.861603    0.247607   -0.337275
 H   -5.452548   -1.534649    0.624200
 H   -3.029589   -1.215265    0.839801
 H   -1.620400   -1.462148   -1.753571
 H   -1.591230   -3.923957   -1.872557
 H   -0.530647   -5.237144   -0.072741
 H    0.489759   -4.081254    1.853442
 H    2.027251   -1.281035    0.240663
 H    0.445537   -1.622022    1.981530
 H    4.180555   -1.698385    0.925701
 H    4.313661   -0.001357    1.469692
 H    4.208187    1.454117   -0.423197
