31 
2bua_ligand_xtb.xyz
 C    1.528800    0.458048    1.149694
 C    2.998493    0.082038    0.936033
 C    0.790124   -0.081802   -0.086219
 C    2.982901   -1.166399    0.037192
 C    1.511747   -1.420070   -0.317551
 C   -0.712073   -0.205404    0.086444
 C   -1.418165    0.730845    0.847903
 C   -1.430201   -1.187120   -0.588877
 C   -2.801455    0.665208    0.945727
 C   -2.808949   -1.249153   -0.488615
 C   -3.499854   -0.320542    0.273176
 C    1.013708    0.828501   -1.311335
 N    0.294007    2.118446   -1.102567
 H    1.411613    1.529235    1.315544
 H    1.140234   -0.057701    2.027359
 H    3.490395   -0.111863    1.885838
 H    3.541662    0.897153    0.456119
 H    3.405041   -2.027742    0.548440
 H    3.575634   -1.003598   -0.862171
 H    1.403718   -1.783906   -1.337236
 H    1.086296   -2.161906    0.357060
 H   -0.895850    1.461302    1.451157
 H   -0.912261   -1.919806   -1.186250
 H   -3.326102    1.383384    1.556570
 H   -3.345458   -2.028610   -1.006132
 H   -4.573681   -0.373776    0.352006
 H    0.600552    0.345220   -2.197836
 H    2.074082    1.017352   -1.470445
 H    0.106727    2.611464   -1.979962
 H   -0.603631    1.858779   -0.612716
 H    0.832524    2.731001   -0.480809
