49 
2buc_ligand_xtb.xyz
 F   -3.459824   -0.015472    2.145768
 C   -3.296000   -0.782251    1.035520
 C   -3.082754   -2.136412    1.189515
 C   -2.903210   -2.911740    0.057101
 C   -2.951807   -2.325963   -1.196917
 C   -3.175542   -0.965793   -1.324541
 C   -3.343662   -0.158698   -0.205622
 C   -3.569706    1.326129   -0.322437
 C   -2.290663    2.148259   -0.118565
 N   -1.733689    1.917285    1.244057
 C   -1.198314    1.788018   -1.137842
 C    0.186992    2.109927   -0.575132
 O    0.306178    3.072698    0.181993
 N    1.232527    1.355218   -0.942017
 C    2.552223    1.737414   -0.426516
 C    3.300501    0.571643    0.144696
 C    3.997828    0.629009    1.339577
 C    4.702079   -0.481551    1.775445
 C    4.705255   -1.646349    1.026326
 C    3.301374   -0.601273   -0.605628
 C    3.996924   -1.712302   -0.162414
 C    2.457204   -0.556648   -1.844372
 C    1.085312    0.002341   -1.444728
 C    0.416410   -0.839521   -0.325690
 O   -0.215205   -0.299997    0.570634
 N    0.520458   -2.162837   -0.425260
 H   -3.065370   -2.562479    2.179483
 H   -2.740749   -3.973551    0.154979
 H   -2.827913   -2.931947   -2.080642
 H   -3.238999   -0.523464   -2.307926
 H   -4.312086    1.639584    0.415022
 H   -3.968140    1.553039   -1.311411
 H   -2.534621    3.212310   -0.191748
 H   -1.297923    0.970899    1.264320
 H   -0.947965    2.606113    1.329234
 H   -2.432683    2.005939    1.985374
 H   -1.329393    2.392973   -2.037502
 H   -1.299360    0.742022   -1.408091
 H    3.126201    2.167447   -1.257409
 H    2.401390    2.517739    0.320955
 H    3.997629    1.537983    1.921606
 H    5.250834   -0.437189    2.703044
 H    5.257716   -2.507108    1.369312
 H    4.000291   -2.620325   -0.748032
 H    2.363840   -1.532709   -2.319991
 H    2.902079    0.120063   -2.579312
 H    0.424221   -0.006022   -2.319640
 H    1.089766   -2.613739   -1.119379
 H    0.114121   -2.733033    0.300713
