17 
2buv_ligand_dft.xyz
 C    0.923049   -0.081738   -0.027216
 C    0.042169    1.001148    0.055331
 C   -1.325029    0.788487    0.064663
 O   -2.176414    1.834301    0.161427
 C   -1.821084   -0.522955   -0.030473
 O   -3.181741   -0.621562   -0.016531
 C   -0.952586   -1.598361   -0.136216
 C    0.423286   -1.379459   -0.131746
 C    2.388863    0.222701   -0.038762
 O    2.845210    1.281806   -0.381818
 O    3.212166   -0.771959    0.366375
 H    0.430230    2.011902    0.112038
 H   -3.080154    1.488492    0.140109
 H   -3.451414   -1.542994   -0.103766
 H   -1.346627   -2.607174   -0.231625
 H    1.085441   -2.231038   -0.261963
 H    2.696758   -1.478826    0.776100
