51 
2bvx_ligand_dft.xyz
 O    0.090364   -0.076314    2.383617
Cl   -0.401537   -4.368155    1.009691
Cl   -0.536632    3.563210   -0.954282
 C   -0.684107   -3.099106   -1.376306
 C   -1.188748   -2.120507   -2.213975
 C   -1.063770   -3.123123   -0.028036
 C   -2.073631   -1.176437   -1.690906
 C   -1.928220   -2.190546    0.507826
 C   -2.450824   -1.197236   -0.334848
 S   -2.835567    0.144954   -2.538447
 C   -3.632520    0.655462   -1.080375
 C   -3.362631   -0.122449   -0.004314
 C   -3.788917    0.203576    1.404201
 N   -2.685853    0.854779    2.105738
 C   -2.338476    2.113611    1.707492
 C   -0.840892    2.414363    1.844429
 C    0.071111    2.017170   -0.469477
 N   -0.106480    1.614593    0.853668
 C    0.723258    1.212680   -1.337588
 C    0.324859    0.373174    1.257273
 N    1.253360    0.007001   -0.982744
 C    1.089946   -0.386632    0.248103
 N    1.599184   -1.548573    0.711798
 C    2.631055   -2.277290    0.011965
 C    4.053971   -1.799983    0.376667
 C    4.637829    0.148917   -1.129708
 C    4.223342   -0.324981    0.116702
 C    4.649568    1.516462   -1.362447
 N    3.864629    0.495473    1.112110
 C    4.249749    2.371933   -0.340977
 C    3.878225    1.808951    0.874263
 O   -3.114063    2.905883    1.205066
 H    0.008520   -3.843187   -1.752972
 H   -0.891431   -2.089728   -3.256878
 H   -2.186660   -2.228243    1.560708
 H   -4.241624    1.549698   -1.087822
 H   -4.070296   -0.694333    1.961445
 H   -4.643104    0.881766    1.402489
 H   -1.916127    0.262115    2.406468
 H   -0.457811    2.125670    2.824496
 H   -0.668537    3.472777    1.665310
 H    0.855629    1.524790   -2.366532
 H    1.487866   -1.684152    1.707387
 H    2.451587   -2.149981   -1.058424
 H    2.524049   -3.339932    0.250935
 H    4.774355   -2.385034   -0.206793
 H    4.238600   -1.993935    1.437895
 H    4.924108   -0.551733   -1.908342
 H    4.958131    1.909603   -2.326640
 H    4.231019    3.447938   -0.477587
 H    3.574294    2.443170    1.704798
