45 
2bw7_ligand_dft.xyz
 C    2.488251   -1.211432   -0.320081
 C    1.618431   -0.113864   -0.264478
 C   -0.435402   -1.654133   -0.123276
 C   -1.937376   -1.798603   -0.421808
 C   -2.746469   -0.629293    0.145829
 C   -2.153927    0.683860   -0.399045
 C   -3.205312    1.747779   -0.045109
 C   -4.552664    0.980030   -0.114728
 C   -4.188650   -0.492503   -0.389973
 C   -2.781497   -0.698158    1.680297
 C    3.846614   -1.077388   -0.092668
 C    4.369530    0.187484    0.195753
 C    3.526064    1.281172    0.247208
 C    2.150959    1.150659    0.019715
 C    1.288654    2.393014    0.118004
 C   -0.103428    2.203743   -0.477997
 C   -0.699342    0.883316    0.003068
 C    0.132081   -0.289952   -0.561735
 O   -5.155905   -1.337315    0.198538
 O    5.724218    0.229732    0.404547
 O    4.660139   -2.164114   -0.152175
 H    2.124452   -2.207676   -0.544577
 H    0.091012   -2.462897   -0.640131
 H   -0.241396   -1.799105    0.946412
 H   -2.080443   -1.834257   -1.512170
 H   -2.296204   -2.757364   -0.022450
 H   -2.162209    0.589754   -1.499020
 H   -3.030744    2.150647    0.959464
 H   -3.174650    2.595751   -0.735415
 H   -5.221121    1.373286   -0.885183
 H   -5.095824    1.027439    0.833978
 H   -4.159954   -0.665120   -1.479578
 H   -3.343559   -1.582741    1.994204
 H   -3.277956    0.170024    2.123467
 H   -1.781151   -0.762620    2.116156
 H    3.938533    2.265421    0.467380
 H    1.183328    2.666730    1.177829
 H    1.798686    3.235934   -0.364034
 H   -0.050763    2.198870   -1.575855
 H   -0.744675    3.045355   -0.192084
 H   -0.627071    0.867184    1.101549
 H    0.014399   -0.240721   -1.658073
 H   -4.943268   -2.244208   -0.052449
 H    5.993295    1.133154    0.604462
 H    5.560565   -1.863657    0.034975
