43 
2byi_ligand_xtb.xyz
Cl   -1.266065    1.587673   -0.403562
 C    0.434039    1.801833   -0.131197
 C    0.907580    3.030671    0.342942
 C    2.273415    3.200639    0.504776
 C    3.173760    2.179329    0.218496
 O    4.483387    2.439450    0.363557
 O    0.021946    4.014511    0.609839
 C    1.313602    0.771706   -0.387831
 C    2.686316    0.924324   -0.191397
 C    3.605080   -0.182561   -0.424645
 N    4.873391    0.043507   -0.759130
 N    5.441513   -1.146943   -0.941511
 C    4.576698   -2.151982   -0.736252
 C    3.369170   -1.585324   -0.376256
 C    2.195034   -2.388631    0.030717
 O    1.923518   -3.452581   -0.490251
 N    1.518379   -1.891811    1.095359
 C    0.345878   -2.554623    1.629255
 C   -0.933372   -1.933049    1.126758
 C   -1.323879   -2.145828   -0.192839
 C   -2.491554   -1.581074   -0.673401
 C   -1.716513   -1.140725    1.956754
 C   -2.887386   -0.575775    1.479409
 C   -3.259262   -0.805149    0.171754
 S   -4.748021   -0.057897   -0.453786
 O   -5.512909    0.466582    0.641340
 O   -5.375986   -0.946287   -1.387229
 N   -4.126850    1.232455   -1.337019
 H    2.671693    4.147378    0.839428
 H    4.991473    1.680393    0.010556
 H    0.488623    4.805560    0.907398
 H    0.925574   -0.156823   -0.774599
 H    4.846389   -3.183100   -0.833043
 H    1.715415   -0.957248    1.416978
 H    0.387443   -2.518172    2.720951
 H    0.407764   -3.594518    1.295178
 H   -0.708923   -2.762005   -0.832139
 H   -2.826212   -1.739863   -1.685664
 H   -1.414983   -0.971422    2.980124
 H   -3.521952    0.035895    2.100482
 H   -4.317815    2.118399   -0.898314
 H   -4.439114    1.216442   -2.293852
 H    6.409737   -1.201530   -1.216553
