100 
2byr_ligand_dft.xyz
 O    6.681871   -2.539427   -0.418565
 C    5.617214   -2.525395    0.137933
 C    4.724585   -3.697435    0.492566
 C    3.456905   -3.087768    1.105007
 C    2.185400   -3.338762    0.287800
 C    3.743490   -1.595812    1.167754
 O    3.012370   -0.737805    1.622499
 N    4.979432   -1.354905    0.597137
 C    5.507997   -0.059205    0.346831
 C    6.700507    0.293866    0.964432
 C    7.259174    1.546853    0.740140
 C    6.614484    2.458576   -0.089399
 C    5.417247    2.110987   -0.701182
 C    4.857077    0.845355   -0.506610
 C    3.604314    0.468486   -1.214130
 O    3.229138   -0.660682   -1.439742
 O    2.894054    1.561184   -1.575144
 C    1.595100    1.330304   -2.123834
 C    0.521969    1.659228   -1.073026
 C    0.485317    3.201824   -0.843053
 C   -0.900666    3.789858   -1.057826
 C   -1.938936    3.044067   -0.230762
 O   -1.724910    3.182349    1.175885
 C   -1.964146    4.475730    1.702023
 C   -1.959696    1.518757   -0.574366
 C   -0.842400    1.100480   -1.571509
 C   -1.599009    0.549422    0.566377
 N   -0.280968    0.949503    1.196734
 C    0.037317    0.228104    2.483132
 C    0.958308    1.058152    3.360218
 C    0.878062    0.946226    0.245110
 C   -3.396506    1.188643   -1.072021
 C   -4.520797    1.650395   -0.086515
 C   -5.380014    0.407705    0.200286
 C   -4.835027   -0.396206    1.390538
 O   -5.943331   -1.027543    1.997790
 C   -5.670737   -1.582673    3.262142
 C   -3.765677   -1.437756    0.989516
 C   -3.728562   -0.294319   -1.346649
 C   -5.236865   -0.363643   -1.125394
 O   -5.636147   -1.711849   -1.144335
 C   -7.025171   -1.913342   -0.952256
 C   -3.027517   -1.259788   -0.371431
 O   -2.899274   -2.552288   -0.950835
 C   -1.563590   -0.802619   -0.175062
 O   -0.870710   -1.771495    0.574661
 C   -0.818511   -0.446999   -1.523630
 O   -1.303975   -0.956215   -2.731573
 C   -0.775951   -2.220096   -3.089476
 H    4.527180   -4.269475   -0.418390
 H    5.267070   -4.354871    1.177574
 H    3.299079   -3.432182    2.132322
 H    1.957567   -4.408773    0.271278
 H    1.334960   -2.803412    0.717487
 H    2.321669   -2.993327   -0.741795
 H    7.189150   -0.423071    1.614520
 H    8.197422    1.809224    1.217624
 H    7.046287    3.438238   -0.264333
 H    4.913686    2.815200   -1.353033
 H    1.533872    0.301366   -2.478479
 H    1.493221    2.004663   -2.977251
 H    1.205493    3.695237   -1.501237
 H    0.817036    3.438814    0.175207
 H   -0.910963    4.857588   -0.817999
 H   -1.194441    3.716431   -2.111405
 H   -2.924255    3.471478   -0.450055
 H   -1.944900    4.380189    2.788506
 H   -1.196993    5.193460    1.390428
 H   -2.949961    4.840825    1.388083
 H   -1.042367    1.427754   -2.596000
 H   -2.311180    0.565086    1.390730
 H   -0.474270    1.931518    1.457198
 H    0.481742   -0.729083    2.219280
 H   -0.921334    0.048578    2.974950
 H    1.063723    0.556673    4.325632
 H    1.958799    1.142067    2.931373
 H    0.548338    2.057273    3.549393
 H    1.170117   -0.093977    0.112289
 H    1.708298    1.443661    0.745731
 H   -3.512057    1.731792   -2.017540
 H   -5.131293    2.428368   -0.554127
 H   -4.123479    2.078381    0.840058
 H   -6.411507    0.678848    0.437833
 H   -4.414434    0.316908    2.122567
 H   -5.268413   -0.823483    3.950938
 H   -6.617580   -1.953610    3.657633
 H   -4.960080   -2.418795    3.207264
 H   -4.306611   -2.381119    0.903204
 H   -3.026532   -1.579364    1.784489
 H   -3.439531   -0.591778   -2.352719
 H   -5.765622    0.187540   -1.920827
 H   -7.607870   -1.313771   -1.664869
 H   -7.217682   -2.971287   -1.137073
 H   -7.317178   -1.662175    0.072614
 H   -3.800807   -2.828323   -1.181734
 H   -1.196084   -2.630016    0.256930
 H    0.200406   -0.826911   -1.391247
 H   -1.108603   -3.001209   -2.400331
 H    0.322982   -2.187126   -3.117201
 H   -1.152165   -2.439240   -4.089750
