45 
2bz5_ligand_dft.xyz
Cl   -2.095445   -0.244773    2.994466
 C   -1.941694    0.822904    1.624239
 C   -1.176868    1.972435    1.788321
 C   -0.999019    2.852425    0.729358
 C   -1.589115    2.570012   -0.495977
Cl   -1.359122    3.661748   -1.835854
 C   -2.347758    1.421933   -0.675675
 C   -2.532259    0.544653    0.389362
 S   -3.493783   -0.945761    0.046907
 O   -3.859497   -0.857643   -1.353362
 O   -4.487643   -1.127814    1.084650
 N   -2.401925   -2.198716    0.209143
 C   -1.172722   -2.109314   -0.519483
 C   -0.006646   -1.681483    0.108070
 C   -1.157301   -2.406573   -1.881538
 C    0.017148   -2.272616   -2.605504
 C    1.186563   -1.848852   -1.972899
 O    2.303503   -1.726935   -2.727752
 C    1.182489   -1.551086   -0.602602
 C    2.415780   -1.037015    0.056713
 C    2.722039    0.360471    0.030864
 C    1.888436    1.300716   -0.633062
 C    2.213705    2.632999   -0.655853
 C    3.379938    3.104630   -0.010944
 C    4.200244    2.223061    0.643152
 C    3.896669    0.837981    0.677735
 C    4.736982   -0.091737    1.340861
 C    4.436556   -1.425251    1.359980
 C    3.268804   -1.902727    0.713282
 O    2.956578   -3.223308    0.720621
 H   -0.715254    2.174468    2.748050
 H   -0.395503    3.743620    0.856362
 H   -2.798599    1.189380   -1.633306
 H   -2.311644   -2.452823    1.188067
 H   -0.015241   -1.431152    1.165542
 H   -2.073474   -2.728944   -2.363136
 H    0.048896   -2.495033   -3.666452
 H    3.028024   -1.433261   -2.156240
 H    0.985164    0.952427   -1.123887
 H    1.568145    3.332394   -1.179499
 H    3.622902    4.162343   -0.038992
 H    5.100454    2.572192    1.142707
 H    5.634142    0.268967    1.836741
 H    5.090586   -2.128159    1.871424
 H    3.637661   -3.711596    1.198041
