26 
2c3l_ligand_xtb.xyz
 C   -4.393388   -0.240539    0.004919
 C   -4.547043    1.145204    0.001645
 C   -3.452897    1.998210   -0.005120
 C   -2.147825    1.510263   -0.007633
 C   -1.986304    0.140205   -0.003301
 C   -0.863964   -0.771399   -0.002400
 C    0.474890   -0.482121   -0.000039
 N    1.475592   -1.430462   -0.002073
 C    2.580021   -0.732102   -0.000677
 C    3.938448   -1.132894   -0.004223
 C    4.880578   -0.156504   -0.002560
 C    4.545691    1.237709    0.002714
 C    3.263082    1.681424    0.006233
 C    2.234846    0.708597    0.003707
 N   -2.638453   -2.045676    0.003246
 C   -3.102880   -0.726685    0.001762
 N    0.932066    0.827100    0.003802
 N   -1.388702   -2.071042    0.000259
 H   -5.242176   -0.905336    0.010196
 H   -5.542576    1.563844    0.004280
 H   -3.616602    3.065582   -0.008170
 H   -1.289308    2.162678   -0.012699
 H    4.186003   -2.182272   -0.008443
 H    5.929018   -0.417409   -0.005647
 H    5.360858    1.946961    0.003701
 H    3.011728    2.730314    0.009975
