33 
2c4w_ligand_xtb.xyz
 O    3.233210    0.273083    1.792450
 S    3.032398    1.104517    0.647185
 O    3.668242    2.375379    0.555666
 N    3.585429    0.210096   -0.686019
 C    3.147976   -1.071411   -0.831550
 N    2.981530   -1.931713    0.205955
 N    2.550687   -3.087291   -0.324701
 N    2.474298   -2.929170   -1.570684
 N    2.827702   -1.699881   -1.941389
 C    1.293106    1.237409    0.280506
 C    0.414203    0.311209    0.783369
 C    0.874460    2.236331   -0.590468
 C   -0.447928    2.303125   -0.963239
 C   -1.359356    1.358306   -0.471625
 O   -2.633235    1.469029   -0.883245
 C   -3.558130    0.571892   -0.443707
 C   -4.860740    0.728806   -0.914522
 C   -5.844880   -0.147366   -0.508665
 C   -5.549198   -1.187645    0.367807
 C   -4.264719   -1.344485    0.836114
 C   -3.249884   -0.468638    0.439353
 C   -1.881358   -0.639721    0.946815
 C   -0.930406    0.358567    0.412389
 O   -1.551894   -1.507852    1.728867
 H    3.709759    0.712963   -1.550541
 H    0.735771   -0.451506    1.475687
 H    1.598162    2.952175   -0.946200
 H   -0.807862    3.066561   -1.634123
 H   -5.071649    1.539425   -1.593638
 H   -6.851919   -0.022961   -0.876249
 H   -6.326913   -1.868031    0.677420
 H   -4.000558   -2.139788    1.516188
 H    3.129887   -1.750771    1.188986
