42 
2c5n_ligand_xtb.xyz
 C    2.394065   -3.468402   -0.001241
 N    1.079312   -3.519207   -0.001635
 C    0.431242   -2.337928    0.003278
 N    1.022235   -1.147912    0.006750
 C    2.355498   -1.106832    0.006065
 C    3.112394   -2.281615    0.003595
 C    2.899834    0.230532    0.005558
 C    4.181315    0.735934   -0.006955
 N    4.250184    2.088691   -0.010174
 C    3.093726    2.656584   -0.000499
 S    1.754732    1.541631    0.014298
 C    5.469670   -0.013816   -0.018886
 C    2.880595    4.123304    0.001099
 N   -0.913153   -2.455743    0.004187
 C   -1.925570   -1.496502    0.002586
 C   -3.246168   -1.938859    0.000260
 C   -4.298930   -1.048849   -0.002646
 C   -4.078297    0.335430   -0.004523
 C   -2.744893    0.766623   -0.001325
 C   -1.693264   -0.125645    0.002507
 N   -5.123353    1.228268   -0.012072
 C   -4.868364    2.645412    0.003546
 C   -6.483835    0.757159   -0.006695
 H    2.898453   -4.427199   -0.005604
 H    4.185597   -2.282318    0.005266
 H    5.568477   -0.631357    0.872892
 H    5.540691   -0.651681   -0.898742
 H    6.281493    0.708174   -0.039777
 H    3.285857    4.556270    0.914983
 H    3.404310    4.574302   -0.840231
 H    1.820690    4.351420   -0.064881
 H   -1.220777   -3.419482    0.001121
 H   -3.453467   -3.000548    0.000466
 H   -5.300524   -1.445746   -0.003800
 H   -2.510082    1.817950   -0.002594
 H   -0.680827    0.237238    0.004853
 H   -4.304803    2.939195    0.895548
 H   -4.303537    2.956519   -0.881658
 H   -5.812618    3.184871    0.007986
 H   -6.694384    0.143549   -0.889041
 H   -6.697581    0.162803    0.888472
 H   -7.163370    1.606071   -0.017768
