43 
2c5y_ligand_xtb.xyz
 C   -3.499905   -1.814332   -0.700494
 N   -4.572011   -2.064590   -1.415756
 C   -5.511514   -1.285425   -0.847044
 N   -5.074442   -0.579650    0.169479
 N   -3.785007   -0.924706    0.263460
 C   -2.901752   -0.328858    1.229400
 C   -2.394769    1.005357    0.735667
 C   -1.036521    1.242130    0.628956
 C   -3.294291    1.994521    0.354453
 C   -2.827868    3.201225   -0.136648
 C   -1.469421    3.435941   -0.246128
 C   -0.556160    2.457046    0.141396
 C    0.891052    2.660455    0.015983
 N    1.638261    1.558058   -0.055236
 C    1.488153    3.922994   -0.029132
 C    2.864788    3.957417   -0.178440
 N    3.601784    2.865652   -0.268158
 C    2.946949    1.701953   -0.191632
 N    3.764992    0.609219   -0.271677
 C    3.476452   -0.733785   -0.174503
 C    2.178982   -1.216655   -0.022665
 C    4.532821   -1.652200   -0.225439
 C    4.302095   -3.011069   -0.118261
 C    3.017406   -3.495788    0.049723
 C    1.970532   -2.582225    0.096455
 N    0.629255   -3.062577    0.286542
 O    0.445914   -4.259802    0.283582
 O   -0.252493   -2.239750    0.451301
 H   -2.531464   -2.248828   -0.833791
 H   -6.525599   -1.245181   -1.187676
 H   -2.066759   -1.013039    1.391315
 H   -3.464867   -0.196273    2.158575
 H   -0.335168    0.481245    0.930919
 H   -4.354809    1.803995    0.429452
 H   -3.529283    3.962928   -0.442962
 H   -1.123792    4.371383   -0.659128
 H    0.916302    4.829857    0.061780
 H    3.407421    4.892694   -0.228692
 H    4.738960    0.861381   -0.379636
 H    1.350478   -0.529094   -0.006261
 H    5.542433   -1.288559   -0.350187
 H    5.132751   -3.698206   -0.160664
 H    2.814045   -4.549953    0.147440
