38 
2c68_ligand_dft.xyz
Br    4.337227    0.171600   -0.055143
 C    3.038827   -1.208565    0.039613
 C    1.692969   -0.868341    0.028132
 C    0.725467   -1.874616    0.094425
 C    1.132635   -3.210193    0.154916
 C    2.483400   -3.531895    0.167711
 C    3.451715   -2.532570    0.113582
 C   -0.726416   -1.546847    0.090686
 C   -1.157274   -0.273176    0.540184
 C   -2.501156    0.033050    0.497935
 N   -3.330693   -0.948211    0.038085
 N   -4.671600   -0.821989   -0.053321
 C   -5.057402   -2.014877   -0.515528
 C   -2.858788   -2.193248   -0.354323
 C   -3.997338   -2.903837   -0.723412
 N   -1.544923   -2.492150   -0.336265
 N   -3.096941    1.192340    0.851772
 C   -2.370835    2.292239    1.441767
 C   -1.359603    2.927661    0.504400
 C   -1.594812    3.028814   -0.864059
 C   -0.629784    3.626922   -1.667024
 N    0.524823    4.115987   -1.208061
 C    0.742282    4.011963    0.103649
 C   -0.157431    3.431907    0.993705
 H    1.412463    0.175467   -0.062116
 H    0.373301   -3.983299    0.188940
 H    2.791996   -4.571286    0.221756
 H    4.508164   -2.776511    0.123052
 H   -0.453423    0.454434    0.916371
 H   -6.111660   -2.188759   -0.685252
 H   -4.029399   -3.917084   -1.090434
 H   -4.107223    1.187114    0.820290
 H   -1.861064    1.966926    2.359501
 H   -3.110809    3.041301    1.739254
 H   -2.505712    2.631182   -1.300433
 H   -0.790507    3.713237   -2.739331
 H    1.690185    4.405319    0.464098
 H    0.087366    3.367766    2.050682
