37 
2c69_ligand_dft.xyz
Br    4.322946    0.168521   -0.033139
 C    3.019268   -1.207144    0.040334
 C    1.675065   -0.861347    0.033309
 C    0.704029   -1.865195    0.084205
 C    1.103828   -3.203742    0.123251
 C    2.453479   -3.530694    0.132315
 C    3.425522   -2.534422    0.094505
 C   -0.746387   -1.532863    0.086342
 C   -1.170426   -0.261998    0.540921
 C   -2.515272    0.053039    0.501606
 N   -3.333711   -0.931777    0.040819
 N   -4.683222   -0.859217   -0.066662
 C   -4.958214   -2.076906   -0.524827
 C   -2.871602   -2.175156   -0.352936
 N   -1.568180   -2.480902   -0.342478
 N   -3.107038    1.212574    0.856886
 C   -2.374425    2.315492    1.438673
 C   -1.350835    2.927024    0.499302
 C   -1.593521    3.047514   -0.866391
 C   -0.614253    3.617543   -1.672596
 N    0.560467    4.061338   -1.218812
 C    0.784532    3.940244    0.090142
 C   -0.128395    3.385394    0.983221
 N   -3.919715   -2.911488   -0.718374
 H    1.400036    0.185093   -0.042612
 H    0.341261   -3.974194    0.142657
 H    2.757607   -4.572009    0.169367
 H    4.480884   -2.783166    0.100417
 H   -0.462146    0.460560    0.917807
 H   -5.981059   -2.364201   -0.728320
 H   -4.116956    1.217980    0.827168
 H   -1.875640    1.996583    2.364265
 H   -3.111000    3.073744    1.720182
 H   -2.521137    2.686701   -1.299678
 H   -0.780073    3.718277   -2.742780
 H    1.748482    4.297073    0.445762
 H    0.122073    3.304917    2.037727
