37 
2c69_ligand_xtb.xyz
Br    4.298184    0.230492    0.013591
 C    2.978822   -1.145258    0.053135
 C    1.645384   -0.784567    0.075910
 C    0.670918   -1.778710    0.117121
 C    1.060643   -3.117063    0.108565
 C    2.400203   -3.456038    0.083512
 C    3.374810   -2.471376    0.062786
 C   -0.757664   -1.437583    0.147795
 C   -1.183904   -0.213252    0.688598
 C   -2.527176    0.121799    0.647492
 N   -3.342785   -0.808444    0.106817
 N   -4.672064   -0.752419   -0.055693
 C   -4.947825   -1.920890   -0.604997
 C   -2.868639   -2.036128   -0.371693
 N   -1.585772   -2.336880   -0.357256
 N   -3.092908    1.262970    1.091200
 C   -2.324607    2.411760    1.511001
 C   -1.299543    2.825553    0.479502
 C   -1.622127    2.862065   -0.872128
 C   -0.633281    3.202550   -1.782092
 N    0.606712    3.494500   -1.433693
 C    0.913341    3.472054   -0.149218
 C    0.002270    3.147573    0.845145
 N   -3.905423   -2.726964   -0.815745
 H    1.375866    0.259852    0.032010
 H    0.292524   -3.873456    0.119368
 H    2.695469   -4.494175    0.080720
 H    4.423012   -2.727349    0.046913
 H   -0.477965    0.458829    1.139738
 H   -5.950217   -2.196039   -0.864688
 H   -4.082156    1.349823    0.912459
 H   -1.818909    2.191224    2.459345
 H   -3.021842    3.234870    1.685905
 H   -2.618398    2.621200   -1.210964
 H   -0.842382    3.237085   -2.842864
 H    1.940247    3.711807    0.092242
 H    0.304223    3.134825    1.882116
