51 
2c6l_ligand_xtb.xyz
 O    3.696483    0.320781    0.675464
 S    3.484219    1.486310   -0.200928
 O    3.696200    1.214313   -1.587082
 N    4.478221    2.710907    0.267923
 C    1.836183    2.068800    0.077789
 C    1.191908    2.781360   -0.918078
 C   -0.173511    2.994474   -0.834269
 C   -0.890664    2.445042    0.229969
 C   -0.195950    1.867495    1.300667
 C    1.167266    1.674004    1.223960
 N   -2.277828    2.266141    0.198515
 C   -2.720233    0.966776    0.050996
 N   -4.033039    0.688158    0.040020
 N   -5.087612    1.509470    0.132670
 C   -6.112289    0.684620    0.062711
 C   -4.495570   -0.644898   -0.091681
 N   -5.810076   -0.612813   -0.068941
 N   -3.671873   -1.669510   -0.212902
 C   -2.375769   -1.412952   -0.238573
 C   -1.869281   -0.099978   -0.106836
 N   -1.536037   -2.466084   -0.442525
 C   -0.112712   -2.390086   -0.253356
 C    0.689765   -3.265040   -1.215833
 C    2.154790   -2.827936   -1.126995
 C    2.691568   -2.956200    0.299753
 N    4.025798   -2.276980    0.364836
 C    1.791842   -2.302507    1.349083
 C    0.330930   -2.712049    1.181015
 H    4.794895    2.693231    1.221382
 H    5.198479    2.952701   -0.390593
 H    1.751286    3.100247   -1.782411
 H   -0.693230    3.504398   -1.630497
 H   -0.755212    1.510083    2.150718
 H    1.707494    1.179262    2.015188
 H   -2.893628    2.989136   -0.147839
 H   -7.122695    1.036697    0.108102
 H   -0.817488    0.096733   -0.156514
 H   -1.983773   -3.369935   -0.430444
 H    0.185396   -1.362445   -0.471967
 H    0.329258   -3.129407   -2.234556
 H    0.587853   -4.319139   -0.956111
 H    2.234549   -1.785926   -1.446793
 H    2.758452   -3.438033   -1.801380
 H    2.828172   -4.016461    0.536994
 H    3.886882   -1.204365    0.402591
 H    4.532827   -2.536377    1.214766
 H    4.596852   -2.504747   -0.453446
 H    1.866532   -1.218676    1.242082
 H    2.137909   -2.569929    2.348788
 H    0.203300   -3.777018    1.378565
 H   -0.285593   -2.162306    1.892054
