50 
2c6o_ligand_xtb.xyz
 C    0.627666   -2.547148   -0.037715
 C    4.729936   -3.858185    0.003458
 C    2.035105    1.167649    0.374802
 C    2.824748    2.473035    0.417888
 C    1.891668    3.649859    0.703979
 C    2.678466    4.956786    0.751715
 C    3.424984    5.183057   -0.559290
 C    4.356776    4.010292   -0.847914
 C    3.568256    2.705455   -0.898218
 C   -4.180597   -1.574609   -0.132172
 C   -4.009543   -0.218372    0.070572
 C   -2.748920    0.325647    0.217215
 C   -1.635925   -0.489732    0.159794
 N   -5.602087    1.193169   -1.543198
 N    1.119868   -1.307303    0.105010
 C    2.428329   -1.139151    0.173142
 O    2.953513    0.080817    0.308715
 C    3.256731   -2.257692    0.098833
 N    4.604193   -2.512238    0.129947
 N    3.599774   -4.490007   -0.107117
 C    2.638796   -3.525128   -0.052251
 N    1.320691   -3.674432   -0.123159
 N   -0.722810   -2.736837   -0.117150
 C   -1.785439   -1.863687   -0.049589
 C   -3.074380   -2.395912   -0.192054
 S   -5.430388    0.842327    0.102110
 O   -5.109342    2.069718    0.772830
 O   -6.587089    0.098540    0.512119
 H    5.685453   -4.346021   -0.003622
 H    1.378421    1.136677   -0.501902
 H    1.416672    1.055488    1.273175
 H    3.559026    2.394329    1.226694
 H    1.374898    3.492813    1.652963
 H    1.136052    3.708120   -0.082723
 H    3.396189    4.916966    1.574281
 H    1.998006    5.788722    0.941992
 H    3.998466    6.110337   -0.505153
 H    2.704265    5.282103   -1.373972
 H    5.113840    3.947900   -0.062851
 H    4.871879    4.167913   -1.797521
 H    2.843820    2.751580   -1.714924
 H    4.239844    1.866967   -1.090737
 H   -5.180833   -1.965348   -0.226251
 H   -2.660012    1.386297    0.389129
 H   -0.645019   -0.089028    0.277152
 H   -5.524496    2.181969   -1.717422
 H   -6.465662    0.825953   -1.909004
 H   -0.949554   -3.715917   -0.239373
 H   -3.195062   -3.458054   -0.347407
 H    5.336012   -1.829046    0.230908
