17 
2c90_ligand_dft.xyz
Cl   -4.035767    0.020074    0.010539
 C   -2.292576    0.002297    0.001059
 C   -1.622410   -1.198119   -0.207367
 C   -0.233026   -1.209645   -0.221499
 C    0.465916   -0.025788   -0.007571
 C   -0.205678    1.175498    0.200065
 C   -1.593910    1.189810    0.197318
 N    1.885091   -0.037680    0.001975
 C    2.750319   -0.990725    0.398384
 N    3.973194   -0.548350    0.237226
 N    3.844825    0.703525   -0.265814
 N    2.609712    1.024063   -0.411334
 H   -2.179947   -2.113007   -0.372034
 H    0.296597   -2.135923   -0.419072
 H    0.358936    2.087168    0.356875
 H   -2.131406    2.117830    0.355326
 H    2.462300   -1.948201    0.803031
