30 
2c97_ligand_dft.xyz
 N    4.366980   -1.334715    0.126449
 N    4.243413    0.962723    0.249051
 C    2.921902    0.913456   -0.133315
Cl    2.172429    2.473400   -0.220530
 C    2.274090   -0.234208   -0.411091
 C    0.829193   -0.349577   -0.801772
 C    5.041274   -0.162409    0.400590
 C    3.032715   -1.485660   -0.260849
 O    6.201790   -0.103038    0.739053
 O    2.568588   -2.593398   -0.450041
 C   -0.072625   -0.627764    0.411979
 C   -1.534099   -0.897548    0.046016
 C   -2.215438    0.302737   -0.596915
 O   -3.593668    0.026339   -0.908910
 P   -4.688184    0.112682    0.263703
 O   -6.038560    0.209556   -0.601352
 O   -4.824972   -1.366914    0.859773
 O   -4.434430    1.139383    1.281826
 H    4.902560   -2.187077    0.231797
 H    4.689766    1.847192    0.444351
 H    0.738137   -1.179578   -1.510260
 H    0.516186    0.562311   -1.318608
 H   -0.014913    0.217900    1.109690
 H    0.321340   -1.503016    0.938882
 H   -2.081041   -1.170015    0.955553
 H   -1.598130   -1.753965   -0.636816
 H   -1.762708    0.555768   -1.558139
 H   -2.165233    1.178729    0.058511
 H   -6.136690    1.077617   -1.014568
 H   -4.982624   -2.029537    0.173925
