30 
2c97_ligand_xtb.xyz
 N    4.403078   -1.231301    0.183395
 N    4.096577    1.048545    0.254268
 C    2.800119    0.887882   -0.147965
Cl    1.917554    2.356232   -0.306864
 C    2.260164   -0.320677   -0.404855
 C    0.834705   -0.531430   -0.818196
 C    4.968540   -0.009561    0.443730
 C    3.102653   -1.504403   -0.232952
 O    6.106024    0.147722    0.800364
 O    2.750729   -2.643291   -0.428197
 C   -0.092414   -0.549507    0.404977
 C   -1.541041   -0.865790    0.043349
 C   -2.209853    0.237285   -0.768373
 O   -3.582446   -0.047290   -0.985736
 P   -4.555048    0.086246    0.291765
 O   -5.955524    0.370346   -0.422071
 O   -4.775467   -1.387859    0.830023
 O   -4.120343    1.055556    1.288411
 H    5.008015   -2.036082    0.309545
 H    4.459759    1.975819    0.432149
 H    0.773167   -1.495225   -1.324962
 H    0.530848    0.257316   -1.506128
 H   -0.050549    0.416066    0.911987
 H    0.267892   -1.311157    1.098158
 H   -2.121535   -0.979432    0.962433
 H   -1.591936   -1.804842   -0.511129
 H   -1.775717    0.334382   -1.765906
 H   -2.125376    1.186738   -0.230482
 H   -6.079191    1.309006   -0.550696
 H   -5.186679   -1.947203    0.170954
