55 
2cbs_ligand_dft.xyz
 C   -4.293309    1.414025    0.513676
 C   -5.545503    0.624609    0.932462
 C   -5.873712   -0.506051   -0.028945
 C   -4.765113   -1.570421   -0.090265
 C   -3.389227   -0.903859   -0.183581
 C   -2.284507   -1.686781   -0.544188
 C   -1.008820   -1.164486   -0.654762
 C   -0.778018    0.192397   -0.400699
 C   -1.877690    0.971140   -0.041761
 C   -3.171127    0.455801    0.096403
 C    0.576419    0.789292   -0.513937
 C    1.665424    0.054506   -0.202349
 C    3.051413    0.475859   -0.267121
 C    4.073722   -0.321327    0.097114
 C    5.493611    0.029000    0.039715
 C    6.393714   -0.901322    0.421670
 C    7.875471   -0.770833    0.485041
 C   -4.805319   -2.454286    1.171860
 C   -5.040481   -2.454070   -1.320180
 C   -3.871040    2.278120    1.715560
 C   -4.622600    2.342149   -0.671810
 C    0.643533    2.231645   -0.952225
 C    5.854855    1.425577   -0.406171
 O    8.492135   -0.174442   -0.566773
 O    8.528037   -1.192918    1.403751
 H   -6.392407    1.317855    1.008367
 H   -5.391487    0.217531    1.940198
 H   -6.034655   -0.098382   -1.035428
 H   -6.814902   -0.990188    0.259765
 H   -2.428079   -2.741354   -0.759753
 H   -0.193407   -1.805840   -0.975629
 H   -1.720688    2.026516    0.157095
 H    1.509501   -0.959306    0.162566
 H    3.263454    1.479655   -0.625196
 H    3.847722   -1.324736    0.456565
 H    6.038360   -1.845810    0.825009
 H   -5.775877   -2.958036    1.255542
 H   -4.026317   -3.223155    1.132437
 H   -4.641705   -1.869477    2.082491
 H   -4.390221   -3.333352   -1.360452
 H   -6.074775   -2.816396   -1.288351
 H   -4.905325   -1.888227   -2.248156
 H   -3.081521    2.993181    1.464154
 H   -4.731035    2.857156    2.072213
 H   -3.513557    1.653724    2.541239
 H   -5.412557    3.050915   -0.395572
 H   -3.740306    2.918017   -0.971523
 H   -4.957900    1.777758   -1.547693
 H    0.396591    2.905621   -0.122304
 H    1.632733    2.515149   -1.316175
 H   -0.077849    2.424848   -1.752424
 H    6.916756    1.644711   -0.287247
 H    5.575433    1.588936   -1.454143
 H    5.301623    2.157897    0.190810
 H    7.850836   -0.040423   -1.277261
