28 
2cc7_ligand_dft.xyz
 N   -2.527139   -1.434288    0.000091
 C   -3.771223   -0.837923   -0.000098
 C   -1.319746   -0.763971    0.000115
 O   -4.807159   -1.463854   -0.000211
 N   -3.731684    0.552243   -0.000053
 C   -2.622911    1.397049    0.000082
 O   -2.744187    2.598584    0.000146
 C   -1.323461    0.662951    0.000066
 N   -0.209191    1.351283    0.000020
 C    0.946622    0.647503   -0.000023
 C    2.184124    1.338277   -0.000103
 C    0.941782   -0.773804    0.000034
 C    3.375881    0.661118   -0.000053
 C    4.683441    1.408481   -0.000112
 C    3.370272   -0.775427    0.000010
 C    4.675318   -1.525942    0.000047
 C    2.178950   -1.458914    0.000026
 N   -0.219966   -1.475848    0.000092
 H   -2.508903   -2.445092    0.000007
 H   -4.637038    1.004976   -0.000176
 H    2.149555    2.423596   -0.000172
 H    4.516890    2.488479   -0.000101
 H    5.286265    1.159975    0.881174
 H    5.286174    1.159954   -0.881465
 H    5.277676   -1.274544   -0.880641
 H    5.277367   -1.274896    0.881054
 H    4.509728   -2.606001   -0.000188
 H    2.154613   -2.544411    0.000036
