31 
2ccc_ligand_dft.xyz
 N    0.299483   22.399757   -2.686177
 C   -0.443673   22.107863   -3.814844
 C    0.758225   21.432388   -1.949335
 O   -0.901231   22.956356   -4.546691
 N   -0.673446   20.748727   -4.117870
 C   -0.243250   19.642760   -3.421471
 O   -0.489576   18.506780   -3.759492
 C    0.557811   20.005075   -2.207377
 N    1.018288   19.052594   -1.469864
 C    1.750365   19.391143   -0.360548
 C    2.256927   18.361136    0.449289
 C    2.003753   20.732949   -0.017346
 C    3.001152   18.625245    1.579799
 C    3.534276   17.504455    2.433124
 C    3.253806   19.978926    1.921401
 C    4.062812   20.305950    3.148104
 C    2.760118   21.005876    1.131491
 N    1.495419   21.734514   -0.828994
 C    1.740950   23.135453   -0.498186
 H   -1.221572   20.576705   -4.951532
 H    2.035333   17.342967    0.144071
 H    3.149798   17.562321    3.458161
 H    4.628250   17.534393    2.497639
 H    3.249574   16.532169    2.023425
 H    4.169356   21.385249    3.282472
 H    5.067256   19.871582    3.085359
 H    3.594346   19.896602    4.050526
 H    2.969277   22.030109    1.417119
 H    2.816413   23.332224   -0.495526
 H    1.321280   23.362386    0.485538
 H    1.255478   23.744346   -1.257266
