33 
2ccc_ligand_xtb.xyz
 N   -2.552905   -1.215428   -0.115808
 C   -3.756536   -0.571873   -0.332345
 C   -1.378356   -0.567962    0.175700
 O   -4.771174   -1.186511   -0.563335
 N   -3.681599    0.790809   -0.264636
 C   -2.545957    1.569216   -0.018384
 O   -2.609960    2.785764   -0.025045
 C   -1.365677    0.797003    0.243787
 N   -0.172897    1.459802    0.578207
 C    1.013132    0.794301    0.293707
 C    2.210559    1.469585    0.142300
 C    0.999546   -0.605927    0.198453
 C    3.405049    0.794223   -0.094883
 C    4.684640    1.560688   -0.226553
 C    3.385792   -0.590439   -0.218825
 C    4.643659   -1.355828   -0.496900
 C    2.175145   -1.271708   -0.082554
 N   -0.230143   -1.290203    0.378370
 C   -0.258962   -2.708301    0.623025
 H   -2.574440   -2.220924   -0.204966
 H   -4.542948    1.296786   -0.433214
 H    2.211205    2.546453    0.225306
 H    5.130257    1.396906   -1.207255
 H    4.511026    2.625546   -0.098750
 H    5.405865    1.234236    0.521923
 H    5.090621   -1.031103   -1.436101
 H    5.377283   -1.189626    0.291478
 H    4.442817   -2.422016   -0.561680
 H    2.175912   -2.343767   -0.202664
 H   -1.145059   -2.963361    1.205640
 H   -0.252382   -3.296622   -0.302252
 H    0.615309   -2.977977    1.214437
 H   -0.205784    2.458731    0.423034
