35 
2ccs_ligand_dft.xyz
Cl   -2.006682   -2.893350   -0.440682
 C   -2.098063   -1.150766   -0.230536
 C   -3.314010   -0.532956    0.056662
 O   -4.430955   -1.299061    0.167611
 C   -3.336437    0.851302    0.216482
 C   -2.174859    1.622718    0.115506
 O   -2.274241    2.941857    0.273191
 C   -0.941583   -0.392695   -0.341571
 C   -0.933018    0.987178   -0.147839
 C    0.303983    1.771489   -0.174074
 N    0.263052    3.119128   -0.143654
 N    1.509515    3.618785   -0.115019
 C    2.356640    2.579595   -0.101984
 C    1.646899    1.373423   -0.146352
 N    2.114596    0.025728   -0.072396
 C    2.003307   -0.561547    1.244891
 C    2.067900   -2.075443    1.131374
 C    3.383621   -0.244643   -0.687826
 C    3.516294   -1.745327   -0.908339
 N    3.353835   -2.443660    0.422757
 H   -5.178186   -0.717797    0.351962
 H   -4.271025    1.365171    0.427789
 H   -1.351271    3.337204    0.132107
 H   -0.013821   -0.883376   -0.611584
 H    3.429466    2.743986   -0.082712
 H    1.031450   -0.296937    1.667665
 H    2.781424   -0.194495    1.944995
 H    1.246806   -2.459157    0.521494
 H    2.079993   -2.578673    2.100760
 H    4.251253    0.117131   -0.095524
 H    3.423480    0.257430   -1.657331
 H    4.490153   -2.038649   -1.308043
 H    2.714143   -2.112889   -1.550733
 H    3.411824   -3.456959    0.299901
 H    4.138452   -2.171230    1.024230
