42 
2cgf_ligand_xtb.xyz
 C    0.314753    1.549052   -1.131097
 C   -0.947187    1.174192   -0.415843
 C   -1.473892    2.056346    0.531783
 C   -2.638566    1.725623    1.209653
 C   -3.278709    0.518833    0.963335
 C   -2.736222   -0.351392    0.013498
 C   -1.581831   -0.037505   -0.691840
 C   -0.986258   -0.963066   -1.704869
 C    0.330993   -1.606301   -1.283182
 C    0.559185   -1.735479    0.204674
 C    1.574577   -2.830717    0.551139
 C    2.512548   -2.456998    1.701587
 C    3.786621   -1.735565    1.237282
 C    3.514786   -0.452748    0.516740
 C    3.814104    0.739281    1.004846
 C    3.583594    2.072629    0.353248
 C    2.583319    2.062544   -0.792763
 O    1.311603    1.684821   -0.263417
 O    0.419150    1.694791   -2.320559
 O   -0.837806    3.228608    0.745981
 O   -4.396849    0.224271    1.648378
Cl   -3.572168   -1.865159   -0.248378
 O    1.122630   -1.987806   -2.105478
 H   -3.068363    2.392816    1.941245
 H   -0.807163   -0.427423   -2.639818
 H   -1.670598   -1.786961   -1.923025
 H   -0.392913   -1.899233    0.710852
 H    0.932824   -0.762189    0.537025
 H    2.169078   -3.048002   -0.338803
 H    1.030257   -3.741815    0.806923
 H    2.820098   -3.367891    2.220019
 H    1.982506   -1.831434    2.423144
 H    4.334910   -2.404390    0.568273
 H    4.413906   -1.539342    2.110020
 H    3.060755   -0.561185   -0.456868
 H    4.290575    0.806374    1.976033
 H    4.535687    2.458320   -0.023994
 H    3.224033    2.771209    1.113095
 H    2.868284    1.360661   -1.583099
 H    2.495626    3.058838   -1.240201
 H   -1.310914    3.744457    1.411142
 H   -4.722440   -0.644952    1.362096
