38 
2cgu_ligand_xtb.xyz
 O   -7.104469    1.196311   -0.052851
 C   -7.175233   -0.127145   -0.020148
 O   -8.205355   -0.733068   -0.014383
 C   -5.813244   -0.838136    0.008512
 O   -4.796018    0.137343    0.005454
 C   -3.482005   -0.256921    0.012127
 C   -2.551000    0.786277    0.007255
 C   -3.062036   -1.581585    0.022754
 C   -1.707698   -1.893660    0.024170
 C   -0.779535   -0.873172    0.016596
 C   -1.212509    0.468590    0.010614
 C   -0.037277    1.344698    0.008620
 N   -0.153036    2.612989    0.009678
 O    1.008051    3.363563    0.010605
 C    1.130599    0.453945    0.008005
 C    2.475621    0.746293    0.002254
 C    0.676119   -0.883186    0.012738
 C    1.585352   -1.919078    0.010200
 C    2.945869   -1.631248    0.001825
 C    3.387689   -0.314868   -0.001285
 O    4.707584    0.058780   -0.007183
 C    5.709396   -0.931812   -0.024528
 C    7.082052   -0.241338   -0.016733
 O    7.031661    1.082714    0.027596
 O    8.102653   -0.862626   -0.046180
 H   -6.173548    1.483985   -0.050258
 H   -5.753237   -1.490831   -0.871959
 H   -5.774142   -1.463243    0.909849
 H   -2.884838    1.810676    0.000489
 H   -3.779813   -2.386332    0.029850
 H   -1.398253   -2.927408    0.031081
 H    0.700570    4.282164    0.013655
 H    2.836549    1.761500   -0.000492
 H    1.257870   -2.947410    0.013890
 H    3.649540   -2.448540   -0.002298
 H    5.646801   -1.557306   -0.924313
 H    5.652803   -1.582508    0.857844
 H    6.105136    1.384278    0.042609
