23 
2cgx_ligand_xtb.xyz
 N    0.279974    1.038412    0.415529
 C    1.613419    0.960020    0.129018
 N    2.489811    1.941774   -0.063064
 C    3.704061    1.491007   -0.321490
 N    4.114608    0.236880   -0.410318
 C    3.238280   -0.753866   -0.227042
 N    3.658621   -2.024223   -0.344915
 C    1.904396   -0.413563    0.062024
 N    0.767598   -1.144897    0.297249
 C   -0.163175   -0.260340    0.500438
 S   -1.807178   -0.673705    0.901520
 C   -2.707580    0.656175    0.008341
 C   -4.107772    0.216236   -0.419003
 O   -5.043463    0.977179   -0.374444
 N   -4.179339   -1.038184   -0.900610
 H    4.463427    2.244353   -0.480648
 H    4.635947   -2.200814   -0.492429
 H    3.022038   -2.771744   -0.137269
 H   -2.137176    0.903276   -0.887979
 H   -2.804695    1.533964    0.647108
 H   -5.079401   -1.400788   -1.167469
 H   -3.401038   -1.671567   -0.828320
 H   -0.245226    1.882833    0.567418
