46 
2chw_ligand_dft.xyz
 C   50.792126   16.310056   30.832767
 O   49.637271   16.438236   31.630361
 C   49.003676   17.628371   31.642352
 C   49.386784   18.748906   30.905100
 C   48.649584   19.927968   30.998633
 C   47.534078   20.011366   31.821288
 C   47.151507   18.893360   32.557828
 C   47.866999   17.711096   32.460509
 N   47.452564   16.556768   33.202828
 C   48.146458   16.314358   34.412290
 O   49.027964   17.072294   34.755075
 C   47.671263   15.125071   35.140675
 C   48.206776   14.695568   36.373448
Cl   49.519317   15.520973   37.169172
 C   47.702823   13.576900   37.015005
 C   46.651965   12.854516   36.443146
 C   46.111205   13.245100   35.236965
 C   46.613430   14.376942   34.578120
 N   46.038167   14.692456   33.362038
 C   46.473235   15.713527   32.719582
 C   45.952935   16.022128   31.331951
 S   44.602427   14.961103   30.758514
 C   45.311012   13.355594   30.659223
 C   46.668290   13.017073   30.744498
 N   47.834691   13.742441   30.913755
 C   48.771646   12.839604   30.956613
 N   48.309153   11.555011   30.815742
 C   46.947570   11.645141   30.671807
 N   46.076502   10.656936   30.491970
 C   44.833323   11.119372   30.383713
 N   44.414790   12.388339   30.462688
 H   51.155027   15.294499   30.992814
 H   51.570258   17.020103   31.137960
 H   50.562255   16.449259   29.769066
 H   50.256754   18.714649   30.259999
 H   48.962231   20.790661   30.418238
 H   46.969891   20.934440   31.897106
 H   46.291164   18.926974   33.219732
 H   48.132240   13.271593   37.962329
 H   46.266153   11.979762   36.957489
 H   45.299972   12.703199   34.763840
 H   46.794408   15.986497   30.636437
 H   45.536119   17.032493   31.289431
 H   49.824069   13.047682   31.093260
 H   48.846852   10.702522   30.821255
 H   44.056081   10.378093   30.219387
