46 
2chw_ligand_xtb.xyz
 C   -2.548658   -0.246604    2.979286
 O   -2.065114   -0.223953    1.652478
 C   -2.973436   -0.283346    0.636704
 C   -4.352073   -0.268299    0.812268
 C   -5.200633   -0.321105   -0.279597
 C   -4.696233   -0.398050   -1.564231
 C   -3.326433   -0.420317   -1.753379
 C   -2.469255   -0.350853   -0.668273
 N   -1.060468   -0.390901   -0.890873
 C   -0.399700   -1.570566   -0.499292
 O   -1.039658   -2.470382   -0.004045
 C    1.039442   -1.552684   -0.751259
 C    1.899272   -2.580031   -0.335338
Cl    1.303181   -3.928752    0.550921
 C    3.252833   -2.519066   -0.607365
 C    3.780810   -1.435907   -1.299836
 C    2.967265   -0.407788   -1.714434
 C    1.599039   -0.452126   -1.436976
 N    0.841276    0.632216   -1.777799
 C   -0.406888    0.655564   -1.477027
 C   -1.111762    1.958221   -1.632848
 S   -1.164629    2.725800    0.040709
 C    0.608793    2.646036    0.321999
 C    1.183216    1.601405    1.016742
 N    0.765386    0.479825    1.666705
 C    1.896923   -0.177432    2.038864
 N    2.999573    0.418817    1.699109
 C    2.614260    1.549865    1.045824
 N    3.362348    2.479996    0.472643
 C    2.690233    3.438087   -0.126109
 N    1.371353    3.559660   -0.234098
 H   -3.143530    0.644944    3.197093
 H   -3.139560   -1.146393    3.167081
 H   -1.670040   -0.256774    3.623383
 H   -4.775984   -0.215278    1.801508
 H   -6.267418   -0.307039   -0.117400
 H   -5.359447   -0.449468   -2.412885
 H   -2.906361   -0.498277   -2.745823
 H    3.893559   -3.317030   -0.268874
 H    4.840404   -1.399606   -1.498131
 H    3.354931    0.455496   -2.229650
 H   -2.147323    1.874816   -1.950312
 H   -0.540093    2.614651   -2.285574
 H    1.866095   -1.109962    2.568592
 H    3.271583    4.215177   -0.602063
 H   -0.197022    0.178081    1.764430
