32 
2cle_ligand_xtb.xyz
 C   -2.747909   -0.022582    0.450672
 C   -2.452984    0.505841   -0.794293
 C   -1.146780    0.875902   -1.066426
 C   -0.150379    0.745028   -0.107095
 C   -0.461655    0.195784    1.134036
 C   -1.757282   -0.191615    1.409608
 O   -4.028950   -0.438361    0.850522
 C   -5.059257   -0.320897    0.039250
 F   -5.322925    0.943755   -0.339457
 F   -6.146287   -0.766183    0.659791
 F   -4.952548   -1.021536   -1.103051
 C    1.233743    1.154259   -0.472142
 N    1.920978    1.801343    0.486578
 O    1.679805    0.981026   -1.600823
 C    3.300692    2.190946    0.321533
 C    4.283288    1.142594    0.857861
 O    4.451564    0.075229   -0.045885
 P    3.394568   -1.155423   -0.022512
 O    2.979433   -1.321037   -1.537163
 O    2.355312   -1.003985    0.994140
 O    4.309090   -2.426981    0.188519
 H   -3.205894    0.629354   -1.555948
 H   -0.891403    1.277144   -2.034988
 H    0.316899    0.008593    1.856045
 H   -2.022670   -0.632160    2.356421
 H    1.554330    1.785145    1.425429
 H    3.460920    3.138896    0.841063
 H    3.475112    2.321776   -0.749493
 H    3.924491    0.760211    1.818717
 H    5.272545    1.590678    0.982726
 H    2.449452   -0.558452   -1.830994
 H    4.877803   -2.582259   -0.565387
