35 
2clo_ligand_xtb.xyz
 C   -3.368378    0.491208    1.637839
 C   -2.311475    1.280640    1.282121
 C   -1.720474    1.108747    0.025231
 C   -2.165284    0.175853   -0.862311
 C   -3.257023   -0.652758   -0.522895
 C   -3.866369   -0.490950    0.751478
 C   -4.957709   -1.317563    1.091030
 C   -5.423112   -2.257050    0.213351
 C   -4.820388   -2.415067   -1.044621
 C   -3.760360   -1.630859   -1.405717
 S   -0.326710    2.141017   -0.385231
 O    0.086202    1.860687   -1.734002
 O   -0.589892    3.499795   -0.018794
 C    2.599937    0.605256   -0.691817
 O    3.338117   -0.578072   -0.926725
 C    1.508508    0.372154    0.356685
 N    0.796426    1.567735    0.727418
 O    3.553921   -2.257527    0.978118
 O    5.432556   -1.853305   -0.553485
 P    4.312199   -1.062631    0.263615
 O    4.768530    0.001711    1.146753
 H   -3.841800    0.606315    2.601811
 H   -1.914562    2.043509    1.931249
 H   -1.682479    0.086450   -1.823556
 H   -5.420688   -1.193022    2.059074
 H   -6.259824   -2.884963    0.481364
 H   -5.203166   -3.161431   -1.724715
 H   -3.292522   -1.744619   -2.372418
 H    2.160689    0.901922   -1.646259
 H    3.275275    1.386842   -0.328319
 H    1.979169   -0.055740    1.248848
 H    0.768478   -0.334090   -0.027957
 H    1.392306    2.309736    1.062975
 H    3.425711   -2.998185    0.385217
 H    6.120085   -1.257656   -0.846936
