60 
2cm7_ligand_xtb.xyz
 C    3.035869   -0.808812   -1.200861
 C    3.615707   -1.965341   -0.413397
 C    4.742138   -1.456589    0.479625
 N    4.551706   -0.136787    0.749827
 S    3.197696    0.560562   -0.006612
 O    2.112607    0.572638    0.931377
 O    3.600880    1.812475   -0.556984
 O    5.646720   -2.127041    0.897361
 C    1.595693   -0.891380   -1.600728
 C    0.874636   -2.078978   -1.622476
 C   -0.478968   -2.068852   -1.912957
 C   -1.141827   -0.875103   -2.175089
 C   -0.405328    0.304394   -2.195635
 C    0.947066    0.297184   -1.919419
 C   -2.635003   -0.833022   -2.301441
 C   -3.268014   -1.045772   -0.908607
 C   -3.437604   -2.556036   -0.636311
 O   -3.723143   -3.323701   -1.532735
 N   -3.269848   -2.940947    0.634856
 N   -2.505035   -0.388420    0.120686
 C   -3.007091    0.500830    0.995393
 C   -2.026296    0.930489    2.102374
 O   -4.141791    0.923366    0.957299
 N   -0.775549    0.199241    2.096156
 C   -1.794443    2.446829    2.058656
 C   -1.188161    2.907713    0.761538
 C    0.183601    3.085847    0.636231
 C    0.733163    3.531073   -0.554273
 C   -0.087402    3.808032   -1.633887
 C   -1.457563    3.632502   -1.519012
 C   -2.004046    3.183208   -0.330322
 C   -0.739947   -1.090074    2.490827
 O   -1.760856   -1.708783    2.750193
 C    0.634904   -1.702843    2.583390
 H    3.679187   -0.521653   -2.034137
 H    3.996039   -2.766317   -1.048588
 H    2.856547   -2.386368    0.252181
 H    5.206791    0.366503    1.326082
 H    1.361998   -3.019469   -1.416549
 H   -1.033553   -2.994811   -1.919806
 H   -0.898242    1.240757   -2.406227
 H    1.503037    1.222456   -1.916846
 H   -3.001659   -1.633929   -2.946140
 H   -2.946253    0.129064   -2.706505
 H   -4.273745   -0.608747   -0.885336
 H   -2.982355   -2.328466    1.387879
 H   -3.416619   -3.912341    0.855887
 H   -1.532437   -0.645165    0.193703
 H   -2.546387    0.681650    3.039304
 H    0.068083    0.669168    1.796097
 H   -2.767229    2.922257    2.194763
 H   -1.148473    2.724254    2.894028
 H    0.835113    2.890366    1.475773
 H    1.802470    3.657277   -0.632410
 H    0.337264    4.165143   -2.560823
 H   -2.103571    3.856393   -2.356101
 H   -3.072250    3.052788   -0.240997
 H    0.900615   -1.793140    3.635221
 H    0.610760   -2.705366    2.162353
 H    1.370969   -1.086336    2.078507
