57 
2cmc_ligand_xtb.xyz
 C   -1.744754    3.033060    0.322469
 O   -4.168882    1.849033   -0.674553
 O   -2.383659    0.447014    0.551064
 O   -1.908806    1.286883   -1.754461
 C   -0.299398    2.672807    0.406469
 C    0.535183    2.888331   -0.682863
 C    1.846227    2.458389   -0.638002
 C    2.339948    1.792530    0.478928
 C    1.502292    1.608188    1.571257
 C    0.191574    2.048148    1.542923
 C    3.726122    1.219406    0.474482
 C    3.818425    0.077170   -0.555075
 C    5.224381   -0.535072   -0.534479
 O    6.212665    0.123567   -0.309041
 N    5.258756   -1.853601   -0.808634
 N    2.780110   -0.906359   -0.340855
 C    1.666072   -0.922567   -1.102169
 C    0.578341   -1.852660   -0.529517
 O    1.535493   -0.301271   -2.134588
 N    0.084658   -1.325441    0.729998
 C   -0.577910   -2.003875   -1.519850
 C   -1.816294   -2.589273   -0.897989
 C   -1.755811   -3.694371   -0.056425
 C   -2.903304   -4.202314    0.526869
 C   -4.132846   -3.616087    0.277953
 C   -4.208786   -2.524222   -0.569795
 C   -3.058541   -2.018081   -1.152764
 C    0.668853   -1.600263    1.909198
 O    1.750568   -2.166878    1.977511
 C   -0.129679   -1.200646    3.123314
 F   -2.286840    3.334675    1.526583
 F   -1.966222    4.115327   -0.474423
 P   -2.743458    1.650909   -0.438968
 H   -3.076357   -0.222335    0.499901
 H   -2.293219    1.679368   -2.539331
 H    0.158423    3.394197   -1.558280
 H    2.488246    2.628233   -1.488196
 H    1.877620    1.111804    2.453805
 H   -0.452930    1.914071    2.398249
 H    4.469531    1.971633    0.208098
 H    3.977121    0.826476    1.461279
 H    3.650174    0.480518   -1.562246
 H    4.417169   -2.366854   -1.002537
 H    6.146598   -2.326011   -0.833109
 H    2.746293   -1.379537    0.561427
 H    1.050119   -2.818515   -0.307397
 H   -0.735254   -0.739162    0.686554
 H   -0.799362   -1.016807   -1.930484
 H   -0.241206   -2.631988   -2.348439
 H   -0.806577   -4.167074    0.146003
 H   -2.837425   -5.061705    1.177553
 H   -5.026700   -4.012267    0.735284
 H   -5.163276   -2.065059   -0.781191
 H   -3.127913   -1.175449   -1.826698
 H   -0.834039   -0.407535    2.895322
 H   -0.682346   -2.074333    3.466381
 H    0.540465   -0.895898    3.922498
