71 
2cmf_ligand_dft.xyz
 C    2.488151    1.822330    0.675434
 C    2.122170    0.444000    0.736256
 C    0.705314    0.033109    1.071927
 C   -0.323207    1.129549    0.821507
 C    0.132083    2.451066    1.429680
 C    1.433942    2.906906    0.772161
 N    3.723992    2.240488    0.506035
 C    4.708148    1.315952    0.355389
 C    4.455719   -0.080736    0.342956
 C    3.108899   -0.503045    0.551918
 N    2.752590   -1.879542    0.560320
 C    5.539184   -0.970331    0.121969
 C    6.813792   -0.493758   -0.049156
 C    7.067428    0.896998   -0.011224
 C    6.037884    1.780286    0.182984
 C   -2.139070   -2.937522   -0.072524
 C   -0.778700   -2.974751   -0.771449
 C    0.294341   -3.684259    0.057159
 C    1.658842   -3.752062   -0.635890
 C    2.366207   -2.403164   -0.756763
 C   -3.129526    1.538881   -1.104385
 C   -2.950068    0.173249   -1.474001
 C   -2.395344   -0.198066   -2.835350
 C   -1.685063    0.957897   -3.540888
 C   -2.544741    2.217302   -3.491819
 C   -2.722614    2.657480   -2.041807
 N   -3.572425    1.933284    0.069119
 C   -3.918981    0.984176    0.978600
 C   -3.818762   -0.404924    0.717109
 C   -3.280078   -0.803825   -0.546691
 N   -3.150094   -2.175064   -0.814766
 C   -4.291062   -1.323604    1.689346
 C   -4.776583   -0.878370    2.892520
 C   -4.820097    0.506157    3.176899
 C   -4.411123    1.416192    2.237334
 H    0.682828   -0.254475    2.133074
 H    0.430335   -0.869349    0.524861
 H   -1.288716    0.823980    1.232950
 H   -0.467189    1.259277   -0.259707
 H    0.283379    2.321603    2.509951
 H   -0.642765    3.214603    1.303535
 H    1.218639    3.242760   -0.252870
 H    1.875208    3.765263    1.286846
 H    3.509061   -2.441543    0.936845
 H    5.360446   -2.041138    0.075314
 H    7.632989   -1.185869   -0.219677
 H    8.081714    1.261348   -0.144448
 H    6.198500    2.853241    0.206444
 H   -2.025530   -2.482088    0.915486
 H   -2.505891   -3.959840    0.085178
 H   -0.478582   -1.941520   -0.985678
 H   -0.883448   -3.477871   -1.744395
 H   -0.045548   -4.704209    0.278805
 H    0.414324   -3.174408    1.021123
 H    1.543155   -4.175205   -1.642593
 H    2.312032   -4.442907   -0.086102
 H    3.236718   -2.496304   -1.426618
 H    1.704777   -1.665500   -1.222905
 H   -3.215873   -0.550647   -3.479289
 H   -1.700221   -1.040908   -2.738007
 H   -1.459031    0.671654   -4.573677
 H   -0.724478    1.156346   -3.045739
 H   -3.523075    2.008629   -3.945616
 H   -2.088725    3.025049   -4.074054
 H   -1.772593    3.066697   -1.668322
 H   -3.457109    3.462563   -1.947277
 H   -3.075216   -2.360485   -1.806948
 H   -4.293088   -2.383069    1.455972
 H   -5.142450   -1.590380    3.626223
 H   -5.198488    0.846102    4.136458
 H   -4.457040    2.485757    2.414695
