25 
2csm_ligand_dft.xyz
 N    1.343099   -1.153120   -0.997845
 C    1.760320    0.169779   -0.422865
 C    3.242062    0.020017   -0.101712
 O    3.800961    1.183617    0.168331
 C    0.920409    0.471842    0.840951
 C   -0.554070    0.322314    0.558251
 C   -1.263403    1.322277   -0.113447
 C   -1.230666   -0.857792    0.900605
 C   -2.603448    1.156591   -0.432747
 C   -2.569061   -1.039899    0.579396
 C   -3.264074   -0.029468   -0.091078
 O   -4.558092   -0.262232   -0.373495
 O    3.776699   -1.063715   -0.069983
 H    1.455641   -1.196300   -2.013909
 H    1.958984   -1.876923   -0.591089
 H    0.351320   -1.332567   -0.764190
 H    1.594026    0.936681   -1.181553
 H    4.732576    1.045359    0.415850
 H    1.177149    1.486881    1.156704
 H    1.231403   -0.204707    1.645671
 H   -0.770396    2.255450   -0.375983
 H   -0.716981   -1.633045    1.467735
 H   -3.140087    1.953505   -0.940946
 H   -3.097571   -1.944663    0.858553
 H   -4.962718    0.506851   -0.794874
