44 
2d06_ligand_dft.xyz
 C    2.649600   -1.505012   -0.339104
 C    4.018779   -1.466851   -0.106644
 C    4.629379   -0.249102    0.181556
 O    5.965381   -0.127802    0.418917
 C    3.856436    0.905040    0.231999
 C    2.482752    0.863831    0.001210
 C    1.706507    2.161425    0.111530
 C    0.295101    2.077050   -0.462338
 C   -0.386402    0.793690    0.005187
 C    0.357079   -0.421343   -0.593279
 C    1.851782   -0.359227   -0.290408
 C   -0.307480   -1.753802   -0.195871
 C   -1.817373   -1.781559   -0.487488
 C   -2.533772   -0.577961    0.128537
 C   -1.855756    0.708507   -0.382741
 C   -2.821192    1.833331    0.022148
 C   -4.221261    1.166235   -0.058729
 C   -3.962830   -0.329795   -0.376328
 O   -4.882928   -1.221352    0.219770
 C   -2.550457   -0.692380    1.662266
 H    2.200821   -2.466639   -0.564825
 H    4.604713   -2.382729   -0.151444
 H    6.374877   -0.998297    0.350642
 H    4.345935    1.848771    0.457020
 H    2.270667    2.967937   -0.371154
 H    1.640243    2.431166    1.175072
 H   -0.279252    2.957922   -0.153095
 H    0.328757    2.087823   -1.560972
 H   -0.302483    0.751510    1.101944
 H    0.242148   -0.330072   -1.687345
 H   -0.117939   -1.947861    0.867200
 H    0.155651   -2.581165   -0.743575
 H   -1.968880   -1.764370   -1.576609
 H   -2.251856   -2.719355   -0.122007
 H   -1.883813    0.650700   -1.484844
 H   -2.735976    2.703790   -0.634725
 H   -2.609282    2.180684    1.039984
 H   -4.858204    1.633449   -0.816996
 H   -4.752062    1.232489    0.896566
 H   -3.963942   -0.475560   -1.469709
 H   -5.755860   -1.029164   -0.140695
 H   -3.005159    0.181305    2.139064
 H   -3.138597   -1.566292    1.954801
 H   -1.545481   -0.805267    2.077193
