68 
2dbl_ligand_dft.xyz
 C    1.028974   -0.883971   -0.073849
 C    2.501541   -0.608051    0.251524
 C    2.929667    0.754676   -0.275664
 O    4.269888    1.063050    0.157584
 C    2.027682    1.865468    0.235349
 C    0.565573    1.572712   -0.116460
 C   -0.358853    2.731766    0.256364
 C   -1.774823    2.486551   -0.261011
 C   -2.337536    1.137681    0.198385
 C   -1.366387   -0.021727   -0.140488
 C    0.062582    0.208500    0.438835
 C   -1.973129   -1.394366    0.206330
 C   -3.371869   -1.610001   -0.392192
 C   -4.327246   -0.481225    0.006393
 C   -3.692782    0.853269   -0.442880
 C   -4.821800    1.876391   -0.293423
 C   -6.096440    1.080563   -0.672299
 C   -5.674442   -0.404284   -0.778465
 C   -4.620417   -0.527031    1.516905
 C    0.046144    0.182201    1.978534
 C   -6.736329   -1.379474   -0.292791
 O   -7.699368   -1.021489    0.353127
 C   -6.527062   -2.848976   -0.609219
 C    5.274157    0.525747   -0.542202
 O    5.133438   -0.170262   -1.521883
 C    6.616049    0.938506    0.026168
 C    7.718526   -0.004217   -0.428315
 C    7.533799   -1.386672    0.150073
 O    6.688509   -1.706197    0.951745
 O    8.447614   -2.251996   -0.325055
 H    0.759034   -1.857585    0.348866
 H    0.913686   -0.973719   -1.164085
 H    3.135636   -1.383156   -0.188515
 H    2.670238   -0.632664    1.334483
 H    2.923796    0.738953   -1.371311
 H    2.159879    1.973194    1.318959
 H    2.330552    2.818206   -0.214917
 H    0.521943    1.478428   -1.214892
 H   -0.371243    2.868338    1.345980
 H    0.036465    3.664058   -0.166036
 H   -2.441975    3.295035    0.059832
 H   -1.762151    2.508010   -1.361415
 H   -2.474090    1.188791    1.287207
 H   -1.250566   -0.003417   -1.238413
 H   -1.315699   -2.189609   -0.159840
 H   -2.025146   -1.519004    1.294237
 H   -3.294035   -1.642137   -1.488655
 H   -3.751182   -2.588328   -0.073209
 H   -3.506918    0.743437   -1.525344
 H   -4.673594    2.751207   -0.932964
 H   -4.876255    2.243073    0.738897
 H   -6.881620    1.182119    0.080473
 H   -6.520574    1.424249   -1.620071
 H   -5.451003   -0.659990   -1.823845
 H   -3.724271   -0.356661    2.118915
 H   -5.017296   -1.509517    1.797564
 H   -5.366642    0.215591    1.812951
 H   -0.688209    0.872237    2.402780
 H   -0.194680   -0.821367    2.344468
 H    1.018080    0.448189    2.402751
 H   -7.493604   -3.355789   -0.647647
 H   -5.941850   -3.302791    0.199932
 H   -5.977857   -3.002410   -1.542259
 H    6.541760    0.972211    1.115457
 H    6.824591    1.958377   -0.317637
 H    8.703790    0.365062   -0.123099
 H    7.731619   -0.092302   -1.518512
 H    8.255253   -3.107367    0.091167
