67 
2ddf_ligand_dft.xyz
 N   -1.520184    0.777059    0.135979
 C   -5.677919   -0.625860   -1.137734
 O    1.101513    1.075965    1.095682
 N    3.164799   -0.580322   -0.201312
 C   -1.266451   -0.481853   -0.258391
 O    1.903297   -1.647208    2.240993
 C   -0.712428    1.903861   -0.283575
 C   -1.215564    3.224188    0.373966
 C   -2.647266    3.500327   -0.117529
 C   -1.191936    3.139455    1.907795
 C    0.760172    1.595182    0.030321
 C    3.079530    1.788424   -0.908080
 C    3.745772    2.385926    0.331410
 N    0.553714   -1.354744    2.383028
 C   -0.304815   -2.267944    1.847692
 O    0.050377   -3.365587    1.431188
 C   -1.747562   -1.816132    1.789294
 C   -2.165101   -1.564965    0.322613
 C   -3.667342   -1.259239    0.218864
 C   -4.162954   -0.839247   -1.174202
 C   -3.776567   -1.855261   -2.252783
 O   -0.304718   -0.732618   -0.996013
 C   -0.314004    4.382112   -0.079982
 N    1.625406    1.965711   -0.928534
 C    3.473588    0.324080   -1.170181
 O    4.053103    0.003919   -2.195695
 C    3.669722   -1.930368   -0.302107
 C    2.884506   -2.788791   -1.286641
 N    1.450366   -2.893625   -0.881711
 H   -2.341816    0.955610    0.692871
 H   -6.197405   -1.565712   -0.916853
 H   -5.963705    0.104025   -0.372157
 H   -6.044589   -0.260943   -2.102020
 H    2.678988   -0.287834    0.639390
 H    2.194058   -1.918787    3.123513
 H   -0.818747    2.014667   -1.371100
 H   -3.002025    4.451477    0.290976
 H   -3.366000    2.734593    0.197489
 H   -2.688047    3.568338   -1.210303
 H   -1.860670    2.362435    2.296738
 H   -1.530762    4.090273    2.330467
 H   -0.187001    2.935296    2.285571
 H    3.448376    2.315036   -1.789902
 H    3.518319    3.453899    0.394007
 H    3.408770    1.906236    1.250823
 H    4.829986    2.271512    0.246459
 H    0.398911   -0.356627    2.215565
 H   -2.361321   -2.621722    2.202146
 H   -1.912356   -0.921279    2.399225
 H   -1.940540   -2.472246   -0.244415
 H   -3.946425   -0.486990    0.951790
 H   -4.205268   -2.163271    0.532711
 H   -3.694008    0.122100   -1.429419
 H   -2.691249   -1.923308   -2.386742
 H   -4.155153   -2.853693   -2.001083
 H   -4.207311   -1.571931   -3.217872
 H   -0.268138    4.454312   -1.173271
 H    0.706312    4.280140    0.302030
 H   -0.715275    5.328401    0.294582
 H    1.233036    2.283968   -1.801659
 H    3.647648   -2.379496    0.692185
 H    4.706018   -1.908806   -0.652716
 H    2.919654   -2.344661   -2.282355
 H    3.294150   -3.800454   -1.324254
 H    0.947889   -3.565389   -1.464934
 H    1.308203   -3.194176    0.104106
 H    0.929905   -1.992682   -0.967476
