54 
2doo_ligand_dft.xyz
 C   -4.218248    0.054535    0.016242
 C   -4.740869   -1.256066   -0.151529
 C   -5.019199    1.217543   -0.231476
 N   -6.379034    1.156527   -0.666256
 C   -7.364140    0.726592    0.305400
 C   -6.621114    0.719577   -2.025912
 C   -4.471466    2.462783   -0.044832
 C   -3.139575    2.615918    0.390767
 C   -2.350777    1.523400    0.632804
 C   -2.865037    0.213122    0.446768
 C   -2.099925   -0.975680    0.667066
 C   -2.637661   -2.226224    0.498899
 C   -3.978158   -2.366745    0.086791
 S   -0.383851   -0.921124    1.176064
 N    0.322398   -0.169475   -0.131906
 C    0.592982   -0.948453   -1.341732
 C    1.879861   -1.775716   -1.319358
 C    3.138608   -0.918165   -1.199883
 C    4.419333   -1.752102   -1.261275
 N    5.618171   -0.939566   -1.149826
 C    6.028072   -0.472306    0.062245
 O    5.540447   -0.845002    1.117190
 C    7.152314    0.556948    0.035989
 C    6.697643    1.857290    0.697271
 S    5.452016    2.680208   -0.369582
 O    0.057537   -2.304974    1.300072
 O   -0.200011    0.003097    2.285637
 H   -5.767988   -1.375361   -0.472681
 H   -8.352498    1.089254   -0.001796
 H   -7.436856   -0.368113    0.433749
 H   -7.128092    1.165258    1.278520
 H   -6.614331   -0.376025   -2.167064
 H   -7.601908    1.087196   -2.351086
 H   -5.861806    1.149425   -2.684753
 H   -5.095321    3.329576   -0.237401
 H   -2.737763    3.613391    0.540525
 H   -1.337608    1.656767    0.986703
 H   -2.020426   -3.097525    0.686282
 H   -4.397205   -3.359296   -0.042377
 H    1.081099    0.422561    0.192612
 H    0.615343   -0.234532   -2.173381
 H   -0.274336   -1.595380   -1.508299
 H    1.918724   -2.355956   -2.251667
 H    1.829734   -2.492135   -0.492706
 H    3.150154   -0.376433   -0.246792
 H    3.158844   -0.164665   -1.999963
 H    4.473726   -2.313987   -2.200130
 H    4.434093   -2.471035   -0.438156
 H    5.933969   -0.453800   -1.975601
 H    7.526783    0.745182   -0.977072
 H    7.980230    0.145338    0.622469
 H    7.548996    2.525947    0.842072
 H    6.250337    1.619591    1.664744
 H    5.103057    3.644537    0.496778
