55 
2drc_ligand_xtb.xyz
 N   -3.157115   -3.056533    0.465538
 C   -1.976897   -3.409423    0.002504
 N   -1.591850   -4.686975    0.188099
 N   -1.093529   -2.624561   -0.665825
 C   -1.442647   -1.374578   -0.930256
 N   -0.639937   -0.577625   -1.628805
 C   -2.689482   -0.872773   -0.424424
 N   -2.960102    0.429922   -0.498319
 C   -4.020929    0.867241    0.145685
 C   -4.899183   -0.044633    0.765211
 N   -4.668887   -1.329771    0.826807
 C   -3.514382   -1.776838    0.291950
 C   -4.175791    2.365712    0.268853
 N   -3.025039    3.092566   -0.231034
 C   -3.213072    3.761246   -1.497516
 C    0.767628    1.547970    0.753114
 C    0.572890    2.256917   -0.429161
 C   -0.663709    2.780532   -0.750475
 C   -1.769069    2.624484    0.099176
 C   -1.538442    1.989441    1.331819
 C   -0.308497    1.460329    1.639160
 C    2.042825    0.903175    1.144539
 O    2.274314    0.538262    2.286074
 N    2.938161    0.700484    0.142981
 C    4.264911    0.209019    0.388406
 C    5.279465    1.262832   -0.032882
 O    5.028977    2.222295   -0.709833
 O    6.506540    0.986839    0.415392
 C    4.569574   -1.096173   -0.370495
 C    3.646273   -2.236020    0.048985
 C    2.281617   -2.160522   -0.601494
 O    2.009701   -1.406200   -1.512767
 O    1.435162   -3.018336   -0.088096
 H   -0.633838   -4.938186    0.021043
 H   -2.162043   -5.254475    0.789347
 H    0.326274   -0.859859   -1.796758
 H   -0.886317    0.400240   -1.655057
 H   -5.819727    0.296918    1.222953
 H   -5.062501    2.692842   -0.279726
 H   -4.346669    2.605908    1.326229
 H   -3.125971    3.081090   -2.353568
 H   -4.203178    4.214968   -1.513123
 H   -2.481578    4.561702   -1.600045
 H    1.387318    2.420141   -1.120172
 H   -0.763506    3.300511   -1.689335
 H   -2.339086    1.893094    2.048180
 H   -0.151604    0.953755    2.579713
 H    2.735532    0.993044   -0.798495
 H    4.349441    0.041667    1.469323
 H    7.135880    1.668355    0.128643
 H    4.450379   -0.919109   -1.441881
 H    5.605822   -1.368671   -0.170027
 H    4.082287   -3.197261   -0.232740
 H    3.497821   -2.245425    1.129943
 H    0.477306   -2.904294   -0.442907
