63 
2dxs_ligand_xtb.xyz
 C   -6.066136   -0.630789   -1.607627
 C   -5.685784   -0.694193   -0.121690
 N   -4.277457   -0.331213    0.059377
 C   -3.650265    0.768151   -0.404322
 C   -2.175145    0.761261   -0.304766
 C   -1.533422    2.005390   -0.179754
 C   -0.167987    2.108369   -0.089200
 C    0.608227    0.947143   -0.138167
 C   -0.051062   -0.304782   -0.293932
 N    0.905746   -1.273689   -0.355222
 C    2.144148   -0.683276   -0.240068
 C    3.335577   -1.524531   -0.252288
 C    3.365264   -2.704000    0.507873
 C    4.507250   -3.491612    0.525050
 C    5.617955   -3.129096   -0.216231
 C    5.588681   -1.980263   -0.988729
 C    4.457081   -1.186663   -1.006091
 O    2.321024   -3.046350    1.345199
 C    1.095738   -3.439951    0.763700
 C    0.749092   -2.688259   -0.528415
 C    2.008427    0.679370   -0.098390
 C    3.121965    1.655003    0.120701
 C    2.949646    2.423832    1.436275
 C    4.125408    3.371380    1.652697
 C    4.250020    4.345968    0.485343
 C    4.421237    3.585718   -0.826194
 C    3.247978    2.637316   -1.050136
 C   -1.430818   -0.408453   -0.371190
 O   -4.260661    1.735939   -0.862495
 C   -6.644180    0.260521    0.651544
 O   -6.496702    1.543888    0.416414
 O   -7.492003   -0.173705    1.383278
 C   -5.863311   -2.111407    0.414657
 H   -7.118657   -0.875125   -1.725137
 H   -5.891026    0.362114   -2.014276
 H   -5.472367   -1.345969   -2.174274
 H   -3.710748   -1.037043    0.502068
 H   -2.154709    2.887295   -0.155001
 H    0.290927    3.079314    0.006675
 H    4.512241   -4.380639    1.136920
 H    6.502088   -3.747914   -0.195181
 H    6.448609   -1.701722   -1.578964
 H    4.426530   -0.299533   -1.619985
 H    0.343464   -3.243650    1.533343
 H    1.113278   -4.520441    0.551016
 H    1.417871   -3.023402   -1.331511
 H   -0.278121   -2.917352   -0.815105
 H    4.056461    1.087353    0.194939
 H    2.884198    1.713012    2.263111
 H    2.022263    2.996201    1.415930
 H    5.047722    2.791743    1.739983
 H    3.988114    3.922797    2.585220
 H    5.101872    5.010483    0.644068
 H    3.350464    4.963563    0.430931
 H    5.350785    3.011753   -0.791896
 H    4.492786    4.288768   -1.658981
 H    2.326262    3.212866   -1.145627
 H    3.386801    2.082382   -1.981519
 H   -1.902915   -1.369811   -0.519711
 H   -5.708998    1.746765   -0.178226
 H   -5.589214   -2.154585    1.466581
 H   -6.906296   -2.401899    0.333750
 H   -5.254469   -2.814049   -0.151290
