75 
2e2b_ligand_xtb.xyz
 C    1.866659   -1.711212   -0.785641
 C    2.429521   -2.843567   -1.467335
 C    3.741780   -2.906547   -1.749569
 C    4.679661   -1.865940   -1.388880
 C    4.087926   -0.727755   -0.702069
 C    2.765928   -0.657025   -0.430417
 C    4.986364    0.387041   -0.269124
 F    4.343646    1.386049    0.364109
 F    5.945403   -0.014549    0.599136
 F    5.646314    0.978759   -1.286006
 C    5.989958   -1.982403   -1.682255
 N    1.605270    1.308224    2.129629
 C    2.179275    0.441765    3.134810
 C    1.122658   -0.656434    3.209013
 C   -0.203499    0.121897    3.130991
 C    0.202880    1.460465    2.467651
 N   -1.240491   -0.585043    2.371482
 C   -2.495826    0.149687    2.378993
 C   -1.471097   -1.927725    2.884039
 N    1.283459    2.222758   -1.504915
 C    1.716339    3.225461   -0.763273
 N    0.962767    4.085347   -0.098609
 C   -0.344518    3.910982   -0.165523
 C   -0.921929    2.877624   -0.902151
 C   -0.019736    2.046007   -1.573447
 C   -2.367812    2.650680   -0.961778
 N   -2.752187    1.379436   -0.938248
 C   -4.054680    1.119665   -0.986372
 N   -5.020055    2.048474   -1.076034
 C   -4.630276    3.307161   -1.108660
 C   -3.296828    3.687723   -1.043891
 N   -4.512957   -0.155455   -0.934131
 C   -2.438464   -1.390463   -0.796727
 C   -1.745024   -2.573028   -0.558194
 C   -2.467327   -3.743029   -0.324689
 C   -3.848349   -3.702424   -0.306648
 C   -4.555770   -2.524435   -0.499152
 C   -3.824988   -1.350821   -0.746047
 C   -6.056122   -2.518943   -0.448291
 N   -0.356933   -2.622633   -0.574057
 C    0.530830   -1.579479   -0.454129
 O    0.088134   -0.420511    0.025614
 H    1.780102   -3.648061   -1.786279
 H    4.146084   -3.760246   -2.274003
 H    2.349439    0.193243    0.089306
 H    6.719494   -1.234229   -1.436575
 H    6.357733   -2.857303   -2.189628
 H    2.089476    2.191651    2.027233
 H    3.150717    0.072873    2.805717
 H    2.298122    0.928744    4.118725
 H    1.204035   -1.260513    4.110213
 H    1.231569   -1.290163    2.330818
 H   -0.572969    0.317054    4.153258
 H    0.014275    2.292266    3.165593
 H   -0.354340    1.647439    1.548819
 H   -0.568615   -0.535214    0.767900
 H   -2.888462    0.284312    3.396927
 H   -3.227947   -0.402513    1.792275
 H   -2.362523    1.128472    1.926262
 H   -0.563866   -2.520927    2.807705
 H   -2.246526   -2.403080    2.284160
 H   -1.796813   -1.918955    3.933258
 H    2.787217    3.359454   -0.695672
 H   -0.948088    4.606962    0.405536
 H   -0.369419    1.233820   -2.195249
 H   -5.423669    4.039877   -1.186088
 H   -2.996656    4.720855   -1.079946
 H   -5.520975   -0.211292   -0.972394
 H   -1.913644   -0.482304   -1.025128
 H   -1.949457   -4.676452   -0.160462
 H   -4.396224   -4.616036   -0.126922
 H   -6.479837   -2.213222   -1.405778
 H   -6.425937   -3.515550   -0.221928
 H   -6.422170   -1.839751    0.322813
 H    0.049245   -3.536798   -0.703747
