42 
2e2p_ligand_xtb.xyz
 P   -2.503446   -1.294340   -0.616588
 O   -1.502955   -1.968769   -1.440003
 O   -3.566407   -2.205140    0.092206
 O   -3.376384   -0.172936   -1.250589
 P   -0.703484   -1.457332    1.391096
 O   -0.391365   -0.610519    2.687253
 O   -1.209962   -2.814040    1.598625
 O   -1.767044   -0.518522    0.641928
 O    0.654857   -1.267641    0.621181
 C    1.252230   -2.281365   -0.191109
 C    2.582237   -1.739291   -0.730789
 O    2.384102   -0.767752   -1.747802
 C    3.422145   -1.018591    0.338703
 O    4.778930   -1.073703    0.007442
 C    2.864956    0.415257    0.268204
 O    3.851030    1.366412    0.548387
 C    2.331696    0.507359   -1.189100
 N    0.975531    1.019179   -1.201764
 C   -0.054694    0.604382   -1.984506
 N   -1.186342    1.188253   -1.710832
 C   -0.908422    2.040064   -0.668972
 C   -1.689942    2.873925    0.149713
 N   -3.020775    3.017387    0.006749
 N   -1.068225    3.579277    1.099014
 C    0.237454    3.453961    1.253065
 N    1.071001    2.666545    0.595961
 C    0.454876    1.952219   -0.351046
 H   -3.102016   -2.905203    0.566766
 H   -2.733026    0.434399   -1.701549
 H   -0.924774   -0.894426    3.428590
 H    0.581667   -2.516156   -1.021924
 H    1.415711   -3.176131    0.413065
 H    3.146617   -2.555593   -1.188256
 H    3.256460   -1.454897    1.332803
 H    5.158706   -0.206311    0.209330
 H    2.030239    0.504257    0.967171
 H    3.392805    2.198873    0.730825
 H    2.967665    1.178023   -1.789446
 H    0.073954   -0.139705   -2.744097
 H   -3.505531    3.527146    0.725947
 H   -3.524826    2.335960   -0.534947
 H    0.678327    4.063700    2.030212
