26 
2e91_ligand_xtb.xyz
 O   -2.207198   -0.149800    1.648020
 P   -2.201894   -0.717352    0.154631
 O   -3.116737    0.236138   -0.714009
 O   -2.565731   -2.120258    0.060166
 C   -0.471970   -0.393409   -0.433009
 P   -0.105066    1.359288    0.004782
 O    0.535062    1.415343    1.445877
 O    1.087769    1.836454   -0.926712
 O   -1.333501    2.160723   -0.080168
 O   -0.450698   -0.377251   -1.841821
 C    0.449369   -1.437333    0.185257
 N    1.825582   -1.034889    0.135846
 C    2.575961   -0.821453   -0.973195
 N    3.767054   -0.382468   -0.683826
 C    3.814333   -0.301977    0.669501
 C    2.619380   -0.696557    1.202484
 H   -2.147335    0.808145    1.718552
 H   -2.825220    1.162821   -0.675826
 H    1.459517    1.135953    1.484511
 H    0.837496    1.911842   -1.848366
 H   -1.038104   -1.073592   -2.172907
 H    0.305411   -2.384268   -0.348282
 H    0.148105   -1.586283    1.226349
 H    2.209552   -0.998896   -1.964057
 H    4.699433    0.031941    1.172022
 H    2.292939   -0.821618    2.215597
