32 
2e92_ligand_dft.xyz
 O   -0.265632   -0.313221   -1.307514
 C   -0.951336   -0.050762   -0.097869
 C    0.015873    0.117181    1.110043
 C    1.316627    0.724454    0.710817
 C    1.766651    2.027271    0.655894
 N    3.063257    2.113032    0.264394
 C    3.444210    0.859111    0.060813
 C    4.690922    0.335682   -0.359110
 C    4.836139   -1.013603   -0.513701
 C    3.740516   -1.888730   -0.263678
 C    2.540887   -1.390652    0.137853
 N    2.403534   -0.036447    0.311941
 P   -2.049858   -1.519926    0.081684
 O   -3.116627   -1.510841   -0.953359
 O   -1.070822   -2.787996    0.078481
 O   -2.491610   -1.540835    1.614260
 P   -2.015037    1.451073   -0.303656
 O   -2.956093    1.223200    1.026763
 O   -2.935003    1.160915   -1.563879
 O   -1.326844    2.753557   -0.327986
 H    0.380233    0.400388   -1.436537
 H    0.191126   -0.858213    1.577264
 H   -0.457340    0.736849    1.876385
 H    1.178882    2.908860    0.874838
 H    5.495734    1.036023   -0.548120
 H    5.785613   -1.427540   -0.835927
 H    3.847051   -2.958443   -0.399535
 H    1.660130   -1.995248    0.314911
 H   -0.916557   -3.084189   -0.830198
 H   -2.979179   -0.721894    1.815966
 H   -3.376241    2.050634    1.303184
 H   -3.205442    0.211527   -1.597499
