62 
2e9n_ligand_xtb.xyz
 O  -11.309755   -2.422716    0.112491
 C   -7.545218   -0.666876   -0.052618
 C   -7.803945   -1.895121   -0.659930
 C   -9.056943   -2.467865   -0.604442
 C  -10.087856   -1.824076    0.073409
 C   -9.842418   -0.600674    0.685095
 C   -8.586353   -0.029911    0.617311
 C   -3.658362    1.103025   -0.197420
 C   -3.807305   -0.268439    0.000082
 C   -5.063494   -0.838668    0.038378
 C   -6.209193   -0.059750   -0.112009
 C   -6.055738    1.312070   -0.313533
 C   -4.803088    1.884149   -0.358786
 C   -2.346300    1.724960   -0.229034
 N   -2.211486    3.038883   -0.442136
 N   -0.909117    3.325239   -0.405000
 C   -0.180390    2.218152   -0.169497
 C   -1.070805    1.155570   -0.050571
 C    1.173673    1.776965    0.004684
 C    1.107101    0.385190    0.238151
 C   -0.321465   -0.108052    0.217878
 C    2.390898    2.438807   -0.001367
 C    3.545739    1.705145    0.207391
 C    3.492674    0.329667    0.423783
 C    2.261450   -0.329532    0.453853
 C    4.714834   -0.488626    0.676884
 N    5.831161   -0.057821    0.040798
 O    4.702868   -1.471629    1.392587
 C    7.110707   -0.723160    0.150319
 C    7.563483   -1.262117   -1.208639
 C    8.912033   -1.960389   -1.084586
 C    9.968258   -1.010391   -0.522784
 C    9.513227   -0.471913    0.837048
 C    8.165886    0.231522    0.715027
 O   11.179691   -1.730002   -0.427059
 H  -11.926473   -1.872904    0.610618
 H   -7.016216   -2.396833   -1.201954
 H   -9.261546   -3.413921   -1.080107
 H  -10.639161   -0.097230    1.218133
 H   -8.405751    0.913152    1.111691
 H   -2.935093   -0.890895    0.128165
 H   -5.162733   -1.900684    0.211258
 H   -6.931497    1.928839   -0.455067
 H   -4.682534    2.943979   -0.518941
 H   -0.466910   -0.857938   -0.563469
 H   -0.592756   -0.562717    1.173508
 H    2.440458    3.506327   -0.159358
 H    4.494724    2.221818    0.234767
 H    2.247056   -1.391181    0.649873
 H    5.769443    0.715467   -0.601554
 H    6.954899   -1.554773    0.845251
 H    7.644123   -0.431507   -1.915949
 H    6.817414   -1.960744   -1.590261
 H    9.245424   -2.326337   -2.056108
 H    8.832632   -2.817003   -0.414158
 H   10.098129   -0.162130   -1.218539
 H   10.260496    0.224001    1.229338
 H    9.432356   -1.309100    1.533158
 H    7.844342    0.593551    1.693165
 H    8.263384    1.093739    0.048746
 H   11.839353   -1.178220    0.006730
 H   -0.606445    4.275942   -0.543200
