57 
2e9o_ligand_xtb.xyz
 C   -8.530802   -1.066348    1.951450
 C   -5.618212   -0.789228   -0.420219
 C   -5.749182   -1.839054    0.679228
 C   -7.073565   -2.588063    0.530879
 C   -8.279481   -1.644032    0.560131
 C   -8.104940   -0.552587   -0.500341
 C   -6.779086    0.196035   -0.357109
 N   -4.314650   -0.076618   -0.276486
 C   -3.817525    0.764427   -1.448084
 C   -2.460162    1.245310   -1.078657
 C   -1.355696    0.395045   -1.263294
 C   -0.130551    0.773412   -0.789974
 C    0.026204    2.009260   -0.097037
 C   -1.072778    2.854771    0.073978
 C   -2.300684    2.461063   -0.407552
 C    1.181088    0.028394   -0.866588
 C    2.085580    0.950570   -0.118967
 C    1.378048    2.099726    0.307297
 C    3.372538    1.164316    0.361631
 N    3.375629    2.372532    1.023470
 N    2.202748    2.926619    0.993057
 C    4.558731    0.362548    0.263647
 C    5.748227    0.792960    0.866308
 C    6.898243    0.045169    0.778215
 C    6.904565   -1.172627    0.087229
 C    5.713294   -1.612822   -0.498053
 C    4.565909   -0.860920   -0.419192
 C    8.093746   -2.032716   -0.054391
 O    9.294873   -1.468140    0.224056
 O    8.049122   -3.184655   -0.410162
 H   -7.702070   -0.458402    2.302630
 H   -9.423277   -0.445981    1.941778
 H   -8.686132   -1.869955    2.666694
 H   -5.606505   -1.283019   -1.397860
 H   -5.708457   -1.357918    1.657899
 H   -4.925038   -2.553803    0.619442
 H   -7.161970   -3.322935    1.331047
 H   -7.068451   -3.129416   -0.417449
 H   -9.163690   -2.229652    0.289048
 H   -8.927086    0.159860   -0.432155
 H   -8.145017   -1.010339   -1.490950
 H   -6.701782    0.931361   -1.158963
 H   -6.758118    0.728568    0.595452
 H   -3.563632   -0.755359   -0.092662
 H   -4.345211    0.545485    0.540753
 H   -4.521819    1.581288   -1.599018
 H   -3.808654    0.113300   -2.323294
 H   -1.484613   -0.544144   -1.790016
 H   -0.948933    3.796067    0.584959
 H   -3.163521    3.103730   -0.278466
 H    1.490197   -0.110323   -1.907560
 H    1.105886   -0.962280   -0.405562
 H    5.728516    1.729360    1.401682
 H    7.786720    0.407254    1.284319
 H    5.726126   -2.557738   -1.021613
 H    3.659169   -1.213587   -0.887821
 H    9.198259   -0.534440    0.453041
