56 
2e9v_ligand_xtb.xyz
 C   -1.730820    0.357985    0.602581
 C   -0.375610    0.083716    0.687152
 C    0.102849   -1.191354    0.340492
 C   -0.805528   -2.163808   -0.058146
 C   -2.150398   -1.874383   -0.129621
 C   -2.652506   -0.605867    0.186589
 N   -3.984968   -0.340340    0.034311
Cl   -3.252119   -3.120301   -0.630813
 C    7.272782    1.278409   -0.452984
 N    8.033763    2.117777   -0.627379
 N    1.484673   -1.424912    0.381395
 C    2.087686   -2.627916    0.321368
 N    3.494206   -2.590537    0.276926
 O    1.558908   -3.716707    0.300732
 C    4.403199   -1.587237    0.128578
 N    4.023107   -0.305198    0.180116
 C    4.955936    0.627415    0.015211
 C    6.305652    0.271460   -0.238264
 N    6.673341   -1.005908   -0.269161
 C    5.756341   -1.921250   -0.079288
 O    0.565883    0.978767    1.128128
 C    0.276346    2.362561    1.092135
 C    2.715940    3.015077   -0.848195
 C    3.345795    2.347187    0.383742
 O    4.676114    1.918258    0.094059
 C    0.191724    2.909155   -0.336683
 C    1.344976    2.460765   -1.237747
 C   -4.635413    0.825983    0.576812
 C   -6.086646    0.855595    0.184383
 C   -7.062376    1.298209    1.068769
 C   -8.382711    1.321159    0.646836
 N   -8.768918    0.938514   -0.556961
 C   -7.841492    0.516776   -1.398886
 C   -6.493255    0.457237   -1.084600
 H   -2.097082    1.332399    0.875338
 H   -0.450518   -3.150109   -0.304484
 H   -4.563806   -1.164698   -0.052265
 H    2.086985   -0.610283    0.468201
 H    3.879619   -3.526936    0.240706
 H    6.086581   -2.949369   -0.101069
 H    1.101728    2.829224    1.632226
 H   -0.646598    2.587119    1.639215
 H    3.401198    2.858810   -1.684055
 H    2.641375    4.091737   -0.691419
 H    2.761640    1.487747    0.712981
 H    3.452461    3.057324    1.208332
 H    0.162551    3.998412   -0.282484
 H   -0.740172    2.567088   -0.792129
 H    1.383074    1.370001   -1.259742
 H    1.119293    2.799288   -2.251145
 H   -4.152766    1.721756    0.162861
 H   -4.546749    0.872730    1.673845
 H   -6.799349    1.617805    2.065934
 H   -9.171330    1.659199    1.306062
 H   -8.199134    0.214007   -2.374120
 H   -5.771493    0.112307   -1.808453
