19 
2eg7_ligand_dft.xyz
 N   -1.230994    1.072572    0.845652
 N    0.834991    1.165037   -0.207348
 C    1.073432   -0.155324    0.148320
 C    0.118989   -0.927897    0.675335
 C   -1.267517   -0.373919    0.860554
 O   -2.507546   -0.167699   -1.184574
 C   -2.175630   -1.014653   -0.200817
 O   -2.525928   -2.167118   -0.155654
 C    2.439631   -0.704598   -0.071504
 O    3.266709    0.217872   -0.600654
 O    2.780536   -1.832234    0.184177
 C   -0.316347    1.841818    0.161632
 O   -0.473619    3.025418   -0.060840
 H   -2.099740    1.562981    1.000701
 H    1.577719    1.728829   -0.591122
 H    0.321535   -1.959280    0.929456
 H   -1.666896   -0.714524    1.822907
 H   -3.046601   -0.672961   -1.814950
 H    4.129459   -0.210786   -0.715882
