27 
2epn_ligand_dft.xyz
 C   -0.379391   -0.828592    0.963112
 C   -0.850450    0.645230    0.934521
 C   -0.039220    1.493723   -0.055983
 C    1.447071    1.205010    0.046881
 C    1.660366   -0.285144   -0.188608
 C    3.115179   -0.715060   -0.105913
 C   -2.606360   -0.306279   -0.136979
 C   -3.958065   -0.442766   -0.763040
 N   -2.248021    0.714264    0.536406
 S   -1.436831   -1.638937   -0.344834
 O   -0.223063    2.874523    0.174612
 O    2.163254    1.922245   -0.929047
 O    0.986296   -1.019750    0.838178
 O    3.251549   -2.100821   -0.306414
 H   -0.650175   -1.300120    1.909669
 H   -0.724468    1.083363    1.930163
 H   -0.350731    1.232769   -1.079658
 H    1.794968    1.457520    1.062521
 H    1.253707   -0.569869   -1.169144
 H    3.680572   -0.210469   -0.891484
 H    3.523951   -0.401310    0.868186
 H   -3.865322   -0.592154   -1.843909
 H   -4.536282    0.462634   -0.569554
 H   -4.485558   -1.309333   -0.352149
 H   -1.166952    3.057892    0.077812
 H    1.834099    2.830969   -0.890040
 H    2.658556   -2.525061    0.327516
