38 
2esm_ligand_xtb.xyz
 O    0.651092   -0.975935    1.714166
 S    0.624625    0.183176    0.882237
 O    1.422726    1.315697    1.288659
 N    1.248444   -0.317294   -0.624938
 C    1.735566    0.711535   -1.497760
 C    3.060846    1.359229   -1.059476
 N    4.106688    0.340515   -0.774544
 C    3.840833   -0.475348    0.455171
 C    3.141792   -1.788394    0.136284
 C    1.860791   -1.620999   -0.711310
 C   -1.008292    0.746900    0.454417
 C   -1.208391    2.099229    0.412895
 C   -2.454969    2.622090    0.037573
 C   -3.476717    1.774405   -0.296882
 C   -3.292847    0.377939   -0.255910
 C   -2.035646   -0.164910    0.134642
 C   -1.912274   -1.567402    0.182154
 C   -4.319630   -0.541092   -0.585808
 N   -4.173945   -1.832248   -0.546444
 C   -2.994704   -2.337059   -0.160108
 H    0.981739    1.501600   -1.530464
 H    1.832619    0.295637   -2.506233
 H    2.885245    1.926640   -0.142989
 H    3.413840    2.027118   -1.846920
 H    5.001052    0.828072   -0.662715
 H    4.191199   -0.298155   -1.576126
 H    3.222926    0.122383    1.129081
 H    4.790099   -0.687452    0.948899
 H    2.871087   -2.232073    1.094252
 H    3.822750   -2.474427   -0.371135
 H    2.058999   -1.825342   -1.767525
 H    1.123741   -2.348751   -0.372259
 H   -0.397026    2.754625    0.689230
 H   -2.595615    3.691144    0.017380
 H   -4.440665    2.161080   -0.591633
 H   -0.992319   -2.013112    0.518953
 H   -5.291683   -0.174627   -0.889475
 H   -2.949000   -3.416813   -0.132530
