47 
2etm_ligand_dft.xyz
 C   -2.039154    2.906341   -0.574421
 O   -2.031965    2.075534    0.576768
 C   -2.285606    0.753244    0.300453
 C   -1.228990   -0.141531    0.394872
 C   -3.578535    0.346087   -0.053561
 O   -4.597081    1.255937   -0.196484
 C   -5.014531    1.881341    1.010757
 C   -3.788644   -1.011777   -0.338883
 O   -4.973602   -1.535643   -0.749975
 C   -6.172103   -1.103579   -0.128388
 C   -2.723278   -1.906505   -0.277428
 C   -1.442051   -1.487904    0.086371
 N   -0.445881   -2.466996    0.157301
 C    0.922916   -2.360751    0.120425
 N    1.492514   -1.159384    0.039846
 C    2.822681   -1.197183    0.006703
 N    1.549503   -3.559706    0.163618
 C    2.874394   -3.553265    0.132079
 C    3.603209   -2.368595    0.055815
 C    4.981936   -1.965482    0.019543
 C    4.988527   -0.611728   -0.044236
 N    3.678158   -0.117791   -0.061927
 C    3.367373    1.260438   -0.100102
 C    2.081253    1.717237   -0.404853
 C    1.871607    3.088005   -0.400971
 C    2.929581    3.948532   -0.123080
 C    4.170080    3.382563    0.137505
 N    4.392588    2.067949    0.156690
 H   -1.300462    2.555597   -1.307725
 H   -3.027757    2.930756   -1.044887
 H   -1.769458    3.908106   -0.232636
 H   -0.261118    0.221867    0.704919
 H   -5.380056    1.136073    1.728808
 H   -4.198350    2.450823    1.464219
 H   -5.831353    2.552986    0.739191
 H   -6.042718   -1.018489    0.957962
 H   -6.514775   -0.147811   -0.530259
 H   -6.911161   -1.879925   -0.337440
 H   -2.925343   -2.944543   -0.523138
 H   -0.753323   -3.427838    0.124212
 H    3.363594   -4.524889    0.170159
 H    5.852749   -2.604446    0.038103
 H    5.803761    0.092474   -0.078176
 H    1.287281    1.018627   -0.629670
 H    0.883220    3.478802   -0.621237
 H    2.800391    5.025050   -0.113387
 H    5.033909    4.008702    0.348224
