47 
2etm_ligand_xtb.xyz
 C   -2.255055    2.969261   -0.442509
 O   -1.949187    2.038054    0.578498
 C   -2.249159    0.722438    0.285438
 C   -1.198366   -0.177817    0.295135
 C   -3.567489    0.307815    0.041637
 O   -4.610142    1.227110    0.113058
 C   -4.867177    1.699443    1.423001
 C   -3.797195   -1.041388   -0.261223
 O   -4.989476   -1.622426   -0.559290
 C   -6.161774   -0.852938   -0.713346
 C   -2.724387   -1.929889   -0.270698
 C   -1.429170   -1.520884    0.019557
 N   -0.427002   -2.475521    0.021494
 C    0.927588   -2.346499    0.055197
 N    1.496522   -1.145849   -0.018746
 C    2.822319   -1.163420    0.019287
 N    1.565962   -3.527494    0.140036
 C    2.880807   -3.532260    0.188178
 C    3.601292   -2.344778    0.141642
 C    4.965283   -1.932096    0.179391
 C    4.966892   -0.581249    0.086975
 N    3.673339   -0.095341   -0.022159
 C    3.367432    1.257504   -0.135108
 C    2.102085    1.691330   -0.531941
 C    1.878938    3.052939   -0.602098
 C    2.911401    3.928847   -0.294380
 C    4.135484    3.389701    0.063469
 N    4.362973    2.091376    0.143994
 H   -1.694380    2.738660   -1.355266
 H   -3.321529    2.988562   -0.678684
 H   -1.947963    3.941262   -0.059289
 H   -0.210905    0.172992    0.532616
 H   -5.188698    0.880828    2.077312
 H   -3.987784    2.177457    1.861417
 H   -5.672025    2.426685    1.326789
 H   -6.517208   -0.458882    0.242137
 H   -6.014849   -0.027105   -1.411610
 H   -6.904234   -1.544343   -1.112574
 H   -2.940420   -2.961664   -0.500268
 H   -0.725353   -3.440624   -0.023123
 H    3.354089   -4.502830    0.265590
 H    5.818939   -2.574114    0.264334
 H    5.780164    0.116265    0.081655
 H    1.338165    0.973879   -0.775443
 H    0.909916    3.427433   -0.896677
 H    2.771269    4.997200   -0.337199
 H    4.982199    4.019888    0.302186
