25 
2evc_ligand_dft.xyz
 O   -1.617136    0.532762   -0.093926
 C   -2.662485   -0.303248    0.157514
 C   -4.008679    0.125809   -0.259861
 O   -4.065279    1.311667   -0.895314
 C   -2.219754   -1.435362    0.766438
 C   -0.812317   -1.289983    0.899383
 C   -0.487045   -0.077849    0.358081
 O   -4.993029   -0.533075   -0.047648
 C    0.744051    0.715489    0.236785
 C    2.015537    0.176983   -0.038069
 C    3.124517    1.016531   -0.110474
 C    2.995866    2.388418    0.068243
 C    1.742430    2.931665    0.320048
 C    0.633318    2.101159    0.404478
 C    2.235000   -1.300246   -0.268579
 F    1.355178   -1.817565   -1.136532
 F    3.460129   -1.551430   -0.754090
 F    2.127505   -2.003387    0.879619
 H   -3.172795    1.676528   -0.990683
 H   -2.837307   -2.263888    1.078981
 H   -0.125936   -1.991278    1.344765
 H    4.097072    0.590573   -0.324430
 H    3.871587    3.025791    0.004722
 H    1.624827    4.001611    0.459304
 H   -0.341842    2.525085    0.617536
