29 
2evo_ligand_dft.xyz
 O   -0.479837   -1.229204   -0.301788
 C   -0.439820   -0.010359   -0.237980
 N   -1.508995    0.803031   -0.076952
 C   -2.828521    0.399235    0.041372
 N   -3.780917    1.268355    0.192934
 S   -3.315796   -1.273048   -0.002406
 C   -4.948582   -0.734042    0.203068
 C   -4.989518    0.620138    0.285113
 O    0.866933    2.011975   -0.253074
 C    0.868661    0.790079   -0.332178
 N    1.935308    0.001361   -0.507657
 C    3.294790    0.519842   -0.614959
 C    3.842341    0.945014    0.754312
 C    4.245358   -0.610514   -1.018495
 C    4.538620   -1.372890    0.295636
 C    4.192753   -0.385236    1.443957
 H   -1.320176    1.800558   -0.040182
 H   -5.768075   -1.436586    0.250535
 H   -5.888071    1.210393    0.415020
 H    1.752745   -0.993763   -0.544079
 H    3.279386    1.347628   -1.329535
 H    3.130499    1.559204    1.310679
 H    4.744346    1.546790    0.591014
 H    5.162426   -0.159309   -1.410647
 H    3.834952   -1.245734   -1.810296
 H    5.581564   -1.698984    0.333831
 H    3.927725   -2.278838    0.367740
 H    3.329912   -0.750423    2.009996
 H    5.014473   -0.271164    2.155970
