48 
2ew5_ligand_xtb.xyz
 C   -6.474494    2.875457   -0.283295
 C   -7.386024    1.968268    0.230358
 C   -7.180361    0.609918    0.068067
 C   -6.065196    0.138238   -0.613925
 C   -5.812908   -1.337054   -0.737184
 C   -5.086274   -1.862668    0.513151
 N   -3.808301   -1.222084    0.694417
 C   -2.630445   -1.859065    0.470533
 O   -2.563591   -3.047010    0.213487
 C   -1.444577   -0.982793    0.594972
 C   -0.219998   -1.480647    0.395173
 C    1.044207   -0.773921    0.468280
 C    2.218903   -1.472244    0.181577
 C    3.449046   -0.846472    0.231865
 O    4.583925   -1.604791   -0.014475
 C    5.485839   -1.190356   -0.926466
 O    5.335608   -0.244455   -1.648020
 C    6.686781   -2.095466   -0.905913
 C    3.538766    0.505068    0.585563
 O    4.805380    1.044684    0.678212
 C    5.077163    2.301429    0.259451
 O    4.255711    3.093861   -0.101229
 C    6.561433    2.530499    0.303801
 C    2.374990    1.205512    0.874164
 C    1.148888    0.575483    0.810548
 C   -5.156621    1.057170   -1.126012
 C   -5.359345    2.416769   -0.963151
 H   -6.634683    3.935913   -0.157207
 H   -8.260129    2.320680    0.758178
 H   -7.895091   -0.094578    0.469599
 H   -5.195932   -1.543341   -1.613174
 H   -6.755783   -1.875908   -0.839676
 H   -4.888270   -2.931831    0.411710
 H   -5.705000   -1.688952    1.399904
 H   -3.819779   -0.221484    0.817752
 H   -1.621852    0.053157    0.843349
 H   -0.162663   -2.533781    0.146644
 H    2.181314   -2.516297   -0.089187
 H    6.372905   -3.128311   -0.786674
 H    7.255933   -1.969842   -1.821753
 H    7.310481   -1.826583   -0.055330
 H    6.771076    3.594653    0.260788
 H    6.986811    2.087070    1.199555
 H    6.998280    2.042590   -0.566198
 H    2.437580    2.247102    1.143020
 H    0.262253    1.144422    1.039331
 H   -4.288109    0.703808   -1.665042
 H   -4.646119    3.119031   -1.369660
