63 
2ewp_ligand_xtb.xyz
 O   -3.989403    5.367979   -0.035436
 C   -3.416019    4.139011   -0.035789
 C   -2.442993    3.866928   -0.995001
 C   -1.830746    2.632714   -1.026664
 C   -3.756731    3.156312    0.886885
 C   -3.142272    1.919314    0.844184
 C   -2.177181    1.634448   -0.116964
 C   -1.485911    0.330753   -0.156813
 C   -2.124498   -0.854651   -0.202672
 C   -1.387676   -2.125322   -0.075237
 C   -1.586605   -3.179796   -0.963393
 C   -0.898991   -4.369491   -0.809566
 C   -0.010008   -4.532530    0.239318
 C    0.185467   -3.496158    1.137392
 C   -0.496092   -2.304463    0.982106
 C   -3.610101   -0.985281   -0.359434
 C   -4.262549   -1.695224    0.830865
 C   -5.733767   -1.983705    0.550516
 O   -5.812565   -2.876415   -0.540101
 C   -0.016616    0.432684   -0.181025
 C    0.754598   -0.325223   -1.062973
 C    2.126837   -0.202479   -1.085286
 C    0.634021    1.338061    0.651918
 C    2.012311    1.467658    0.642160
 C    2.756910    0.690270   -0.226687
 O    4.151192    0.728155   -0.321688
 C    4.873209    1.574257    0.543838
 C    6.346006    1.352475    0.176245
 N    6.558466   -0.100905   -0.041762
 C    6.748150   -0.834160    1.219366
 C    7.647853   -0.380891   -0.986997
 H   -4.654998    5.427399    0.660772
 H   -2.186383    4.638106   -1.703438
 H   -1.080036    2.427768   -1.776280
 H   -4.503706    3.363520    1.641957
 H   -3.400572    1.171757    1.578957
 H   -2.272811   -3.065906   -1.788785
 H   -1.062050   -5.175752   -1.509188
 H    0.520088   -5.465365    0.362014
 H    0.864511   -3.621930    1.968927
 H   -0.355370   -1.503893    1.694256
 H   -3.817109   -1.593381   -1.243017
 H   -4.067527   -0.007066   -0.508695
 H   -4.184757   -1.085340    1.732419
 H   -3.753782   -2.643765    1.009814
 H   -6.259305   -1.045810    0.316611
 H   -6.196998   -2.426263    1.443775
 H   -6.734945   -3.092491   -0.707238
 H    0.271911   -1.007671   -1.743873
 H    2.721712   -0.784339   -1.772540
 H    0.053933    1.947992    1.327664
 H    2.478165    2.177800    1.307527
 H    4.674751    1.316757    1.593221
 H    4.609658    2.626583    0.390705
 H    7.014393    1.726238    0.951726
 H    6.556606    1.871369   -0.760264
 H    5.648129   -0.391711   -0.456551
 H    7.678810   -0.521319    1.691122
 H    5.921593   -0.641848    1.899286
 H    6.793855   -1.904418    1.027191
 H    7.449206    0.092151   -1.946597
 H    8.588186    0.000426   -0.590700
 H    7.742147   -1.454095   -1.142389
