48 
2ews_ligand_dft.xyz
 P   -3.752748    0.713876   -0.820859
 O   -5.221823    0.775215   -1.453007
 O   -3.534555    1.402055    0.468291
 O   -2.900191    1.168000   -2.051299
 P   -2.583520   -1.736813    0.473046
 O   -2.703004   -1.357148    1.895821
 O   -2.845194   -3.254479    0.065652
 N   -3.514623   -0.967209   -0.649096
 P    0.084342   -2.175153    0.994617
 O    0.063924   -1.277990    2.293451
 O   -0.188447   -3.626438    1.098659
 O   -1.020060   -1.492131    0.000044
 N    1.723009    1.144516   -0.988101
 C    0.529637    0.825715   -1.556049
 N   -0.463822    1.547188   -1.095360
 C    0.106508    2.387323   -0.155853
 C   -0.406070    3.339334    0.755939
 N   -1.714087    3.606098    0.889889
 N    0.474557    4.013655    1.520279
 C    1.769950    3.714927    1.441055
 N    2.364061    2.787902    0.687522
 C    1.473645    2.157218   -0.093724
 O    1.472118   -1.751108    0.366664
 C    2.149420   -2.591734   -0.582933
 C    3.315703   -1.805637   -1.153398
 O    2.827814   -0.687502   -1.903658
 C    4.288956   -1.220667   -0.126430
 O    5.540786   -1.072283   -0.745440
 C    3.677708    0.151566    0.165015
 O    4.671191    1.057413    0.544626
 C    3.019902    0.499205   -1.192093
 H   -5.896185    0.658901   -0.769570
 H   -1.952499    1.390471   -1.735661
 H   -2.114096   -3.809733    0.413781
 H   -3.705544   -1.519574   -1.479648
 H   -0.871687   -1.126351    2.561653
 H    0.445890    0.047997   -2.298872
 H   -2.405685    2.903597    0.623348
 H   -1.954364    4.214385    1.659305
 H    2.425035    4.293806    2.086919
 H    1.462363   -2.862098   -1.389983
 H    2.493481   -3.500719   -0.081820
 H    3.859939   -2.455128   -1.845332
 H    4.354857   -1.839735    0.778973
 H    5.942176   -0.282414   -0.350920
 H    2.901367    0.057369    0.930324
 H    4.196457    1.886176    0.756665
 H    3.661078    1.177036   -1.764775
