70 
2ewy_ligand_xtb.xyz
 N  107.750358   25.304356    1.562378
 C  108.563880   25.613820    2.712806
 C  107.838480   26.637602    3.618602
 O  108.618101   26.990229    4.740344
 C  106.527271   26.059739    4.151848
 N  105.745833   27.122228    4.753861
 C  104.475601   26.670019    5.307771
 C  104.632437   25.711291    6.462198
 C  104.930065   26.197811    7.728211
 C  105.148560   25.343039    8.799128
 C  105.072443   23.972581    8.583849
 C  104.782045   23.474374    7.326789
 C  104.563364   24.338004    6.268022
 C  105.484371   25.888944   10.154488
 C  109.942464   26.134992    2.272636
 C  110.559738   25.294183    1.187099
 C  111.029913   25.889129    0.023668
 C  111.611160   25.128279   -0.976076
 C  111.714163   23.756089   -0.831464
 C  111.243900   23.152979    0.323377
 C  110.678452   23.916124    1.328982
 C  107.148289   24.100846    1.398786
 O  107.292164   23.179342    2.177293
 C  106.233514   24.031825    0.216419
 C  105.120150   23.293800    0.364296
 C  104.056599   23.109671   -0.603659
 C  103.715595   24.092748   -1.541288
 C  102.669812   23.885976   -2.428468
 C  101.944548   22.708474   -2.392503
 C  102.266122   21.728505   -1.467508
 C  103.302433   21.934960   -0.579313
 O  104.336037   25.329652   -1.570561
 C  105.685459   25.299443   -1.873774
 C  106.624426   24.713643   -1.018575
 C  107.969352   24.755609   -1.389798
 C  108.370836   25.381139   -2.553819
 C  107.433180   25.983898   -3.375380
 C  106.092269   25.931857   -3.039804
 H  107.561013   26.046160    0.906383
 H  108.671478   24.677365    3.268946
 H  107.604891   27.537343    3.025062
 H  109.395873   27.476224    4.448034
 H  106.773944   25.247926    4.853552
 H  105.946700   25.639688    3.326152
 H  106.304065   27.547049    5.490165
 H  103.914892   26.198134    4.495598
 H  103.932806   27.562969    5.631644
 H  104.987749   27.267475    7.882745
 H  105.240862   23.293099    9.407349
 H  104.726974   22.406869    7.170139
 H  104.335574   23.945830    5.287279
 H  105.160068   25.208415   10.938509
 H  105.014706   26.857645   10.310494
 H  106.563476   26.019130   10.245773
 H  110.607066   26.134510    3.141157
 H  109.841583   27.164046    1.914059
 H  110.944822   26.959787   -0.102224
 H  111.983765   25.609512   -1.868974
 H  112.159298   23.158960   -1.613492
 H  111.319255   22.082435    0.443107
 H  110.318114   23.433138    2.224068
 H  105.010041   22.752180    1.295746
 H  102.423242   24.669957   -3.128010
 H  101.126315   22.561110   -3.080969
 H  101.701201   20.809274   -1.432721
 H  103.551988   21.177341    0.148944
 H  108.701293   24.276427   -0.757577
 H  109.417795   25.397184   -2.814063
 H  107.741261   26.486462   -4.279675
 H  105.342508   26.389158   -3.667061
