51 
2f10_ligand_xtb.xyz
 C   -1.120536    0.697041   -0.901080
 N   -1.845986    1.663500   -0.104763
 C   -1.243559    2.583003    0.694100
 N   -2.111664    3.229505    1.556543
 N    0.015757    2.799377    0.643188
 C   -0.404434   -0.376748   -0.039412
 C    1.105076   -0.473150   -0.333991
 C    1.859268   -1.363290    0.683480
 C    3.355015   -1.360999    0.335405
 C    4.106808   -2.558517    0.904699
 C    1.607666   -1.038266    2.164668
 C    1.885543    0.398018    2.595673
 N    1.680188    0.847206   -0.442572
 C    2.410902    1.212034   -1.515149
 C    2.788192    2.680876   -1.497532
 O    2.764433    0.444869   -2.391674
 C   -1.140796   -1.715936   -0.286016
 O   -0.377154   -2.559579   -1.105126
 C   -2.469746   -1.330428   -1.001015
 C   -3.580021   -1.148182   -0.001155
 O   -4.036672   -0.104599    0.393672
 O   -4.030905   -2.326163    0.439574
 C   -2.105170   -0.071009   -1.785515
 H   -0.397464    1.253956   -1.500622
 H   -2.760070    1.348856    0.197127
 H   -3.095608    3.180802    1.346927
 H   -1.804247    4.115741    1.923695
 H    0.324310    3.552349    1.248755
 H   -0.538254   -0.092381    1.005542
 H    1.235561   -0.944415   -1.316096
 H    1.489555   -2.380816    0.517399
 H    3.815865   -0.439378    0.691464
 H    3.453219   -1.371174   -0.750524
 H    4.098850   -2.556708    1.992505
 H    3.658812   -3.488073    0.559503
 H    5.143749   -2.537570    0.577187
 H    2.240473   -1.704952    2.754391
 H    0.574700   -1.290732    2.418794
 H    1.160798    1.087934    2.173885
 H    2.877271    0.712209    2.284707
 H    1.832193    0.470409    3.681174
 H    1.240738    1.589931    0.108890
 H    3.173042    2.971116   -2.470742
 H    3.562949    2.840430   -0.750836
 H    1.924871    3.286869   -1.236831
 H   -1.351235   -2.223304    0.667732
 H   -0.819817   -3.411174   -1.186249
 H   -2.771139   -2.151719   -1.657271
 H   -4.736651   -2.202766    1.094923
 H   -1.605943   -0.368329   -2.706073
 H   -2.977459    0.532855   -2.030667
