40 
2f18_ligand_xtb.xyz
 C   -1.463324   -0.711175   -1.023196
 C   -1.102393   -1.980316   -1.440547
 C   -1.533718   -3.094487   -0.740823
 C   -2.328445   -2.930539    0.380359
 C   -2.690761   -1.660577    0.794772
 C   -2.263981   -0.537197    0.099600
 C   -2.651776    0.844206    0.565203
 C   -3.379302    1.609440   -0.562270
 O   -3.890043    2.807202   -0.013435
 N   -1.484415    1.546573    1.068845
 C    1.013919   -0.916271    1.542948
 C    1.600283    0.160638    1.055244
 N    4.419948   -0.925188    0.849988
 C    4.176568   -0.596030   -0.538099
 C    3.278330    0.634890   -0.786970
 O    3.731384    1.757512   -0.047747
 C    1.797649    0.417620   -0.412489
 O    1.058444    1.557406   -0.811682
 H   -1.104893    0.147488   -1.570030
 H   -0.480564   -2.101225   -2.316714
 H   -1.249437   -4.084744   -1.066575
 H   -2.666586   -3.794684    0.933902
 H   -3.309827   -1.538937    1.671601
 H   -3.358617    0.764866    1.400513
 H   -2.674559    1.833481   -1.375259
 H   -4.190573    0.985264   -0.963224
 H   -4.368827    3.287018   -0.696029
 H   -1.753301    2.499329    1.292506
 H   -0.763548    1.580633    0.352691
 H    0.655477   -1.707540    0.905643
 H    0.861596   -1.046758    2.600262
 H    1.938217    0.958882    1.701957
 H    4.678964   -0.084571    1.358574
 H    3.575882   -1.286378    1.280958
 H    3.737161   -1.463430   -1.033956
 H    5.152312   -0.399424   -1.000530
 H    3.305032    0.869802   -1.864932
 H    4.657528    1.911359   -0.261234
 H    1.401600   -0.417676   -0.997373
 H    1.491661    2.319358   -0.404066
