54 
2f2c_ligand_xtb.xyz
 O   -3.997629    1.659480   -1.087572
 C   -3.090051    2.725150   -1.139519
 C   -2.194913    2.790062    0.118888
 C   -1.803527    4.228769    0.496347
 C   -1.066822    4.255256    1.835449
 C   -0.975797    4.919008   -0.587062
 N   -1.012423    1.972504   -0.038025
 C   -0.984952    0.628501    0.004215
 N   -2.148180   -0.027139    0.043651
 C   -1.998097   -1.350738    0.086089
 C   -0.768952   -2.024211    0.079324
 N   -0.989163   -3.379228    0.118278
 C   -2.281204   -3.503233    0.146856
 N   -2.958577   -2.313215    0.131045
 C   -4.388567   -2.089207    0.143444
 C   -5.014266   -2.717140    1.387169
 C   -5.019375   -2.626031   -1.139735
 C    0.389201   -1.225550    0.024522
 N    0.247173    0.091766   -0.008251
 N    1.602168   -1.835898    0.006637
 C    2.879242   -1.304430   -0.024065
 C    3.953881   -2.189619   -0.040753
 C    5.264682   -1.722091   -0.067833
 N    6.322916   -2.601614   -0.009453
 C    5.497747   -0.344843   -0.084130
 C    4.418870    0.516708   -0.068627
Cl    4.711496    2.221512   -0.090539
 C    3.111924    0.069386   -0.040174
 H   -3.493648    0.886948   -0.756709
 H   -3.693002    3.633895   -1.223051
 H   -2.450445    2.644007   -2.031880
 H   -2.788108    2.365370    0.942049
 H   -2.740041    4.784558    0.613497
 H   -1.675563    3.803733    2.615273
 H   -0.847783    5.280978    2.122435
 H   -0.127524    3.710558    1.778494
 H   -1.499038    4.910724   -1.539048
 H   -0.794625    5.953918   -0.305895
 H   -0.009696    4.437794   -0.720198
 H   -0.115972    2.421815   -0.112400
 H   -2.783857   -4.449329    0.180539
 H   -4.516864   -1.001690    0.179806
 H   -4.925413   -3.800819    1.359929
 H   -6.067909   -2.457243    1.438756
 H   -4.521825   -2.350397    2.285009
 H   -4.551107   -2.169839   -2.008661
 H   -6.079373   -2.388978   -1.155331
 H   -4.901265   -3.705589   -1.204931
 H    1.536482   -2.845521    0.034996
 H    3.771658   -3.255043   -0.027390
 H    7.218225   -2.247274   -0.302463
 H    6.135071   -3.553350   -0.278140
 H    6.506484    0.035899   -0.104546
 H    2.279200    0.748599   -0.029992
