53 
2f2h_ligand_dft.xyz
 C   -0.441701    3.372908    0.780827
 C   -1.800390    3.518304    0.563959
 C   -2.421758    2.699467   -0.371006
 N   -3.866337    2.794534   -0.549627
 O   -4.458184    3.679295    0.049963
 O   -4.406177    1.982423   -1.289507
 C   -1.712158    1.758572   -1.100546
 C   -0.349269    1.613398   -0.888217
 C    0.281317    2.414170    0.067562
 O    1.604763    2.330109    0.388893
 C    2.384328    1.339076   -0.208724
 O    1.912753    0.088509    0.209751
 C    3.818321    1.540561    0.270989
 O    4.381834    2.741824   -0.203722
 C    4.674732    0.402118   -0.264222
 O    5.981155    0.428920    0.265372
 C    4.070924   -0.953242    0.087489
 O    4.775583   -1.994149   -0.542921
 C    2.614213   -0.991751   -0.385747
 C    1.908389   -2.276568    0.009458
 S    0.269700   -2.384587   -0.784017
 C   -0.714721   -3.019007    0.652610
 O   -0.737457   -2.156827    1.749261
 C   -1.427685   -0.926603    1.541450
 C   -2.880672   -1.172675    1.141989
 O   -3.488011    0.074826    0.907595
 C   -2.916940   -2.061203   -0.092635
 O   -4.266000   -2.336038   -0.391787
 C   -2.141348   -3.347584    0.181237
 O   -2.204191   -4.238210   -0.911863
 H    0.075806    3.978922    1.516135
 H   -2.386330    4.238184    1.121317
 H   -2.235745    1.122395   -1.802406
 H    0.185448    0.831857   -1.412297
 H    2.335296    1.426136   -1.308802
 H    3.809412    1.502203    1.369866
 H    3.888427    3.473429    0.187946
 H    4.706175    0.485093   -1.363660
 H    6.352572    1.296596    0.057684
 H    4.084923   -1.068174    1.183374
 H    5.712223   -1.842815   -0.355838
 H    2.608689   -0.884494   -1.483627
 H    2.527575   -3.130255   -0.272248
 H    1.751414   -2.273102    1.092360
 H   -0.217611   -3.927875    0.998561
 H   -1.373497   -0.391481    2.490323
 H   -0.922585   -0.332223    0.772691
 H   -3.393796   -1.709472    1.956082
 H   -4.308978   -0.092713    0.424030
 H   -2.441780   -1.514471   -0.925974
 H   -4.264017   -3.035045   -1.060323
 H   -2.634917   -3.865838    1.010520
 H   -1.551575   -3.960315   -1.571198
