100 
2f3e_ligand_xtb.xyz
 S   -0.561621   -0.479458   -1.381376
 C    0.077201   -2.025779   -2.104179
 C   -0.016358   -3.220085   -1.143903
 N   -1.332769   -3.239558   -0.531191
 C   -2.470487   -3.339765   -1.248754
 C   -3.712020   -2.951856   -0.413075
 N   -3.604598   -1.557823   -0.012460
 C   -2.907038   -1.150084    1.046129
 C   -2.898787    0.379904    1.241919
 C   -2.117137    0.734562    2.496848
 S   -1.517009    2.458176    2.463618
 C    0.301836    2.185246    2.523913
 C    0.763832    1.199244    1.506056
 C    0.618690    1.366568    0.197860
 C    0.992431    0.333284   -0.797865
 N   -4.235048    0.941284    1.304036
 C   -4.970437    1.243396    0.208614
 O   -4.709431    0.840433   -0.906912
 O   -6.019116    1.993044    0.557478
 C   -7.005895    2.389441   -0.430484
 C   -6.354890    3.257530   -1.506078
 C   -8.022648    3.200447    0.372794
 C   -7.666923    1.155201   -1.042835
 O   -2.276261   -1.901896    1.779444
 C   -4.989507   -3.160212   -1.207529
 O   -2.524692   -3.695478   -2.404376
 C    1.018349   -3.248442   -0.000771
 O    0.812763   -4.395557    0.794303
 C    2.463393   -3.337254   -0.498200
 C    3.459283   -3.212211    0.667967
 C    4.834506   -3.743717    0.270395
 C    3.487877   -1.765886    1.143984
 O    2.787125   -1.362097    2.054943
 N    4.341815   -0.958531    0.481713
 C    4.409302    0.462228    0.714297
 C    5.800675    0.891044    1.237113
 C    6.910100    0.447630    0.285423
 C    6.027813    0.324066    2.635352
 C    4.086965    1.184565   -0.594945
 O    4.193738    0.634472   -1.675490
 N    3.684408    2.456237   -0.438883
 C    3.412923    3.345290   -1.546232
 C    4.418438    4.496514   -1.616919
 C    5.869536    4.030070   -1.745262
 C    6.132065    3.230368   -3.016031
 H    1.085321   -1.846984   -2.468616
 H   -0.579526   -2.224822   -2.951514
 H    0.094237   -4.136496   -1.739309
 H   -1.408469   -2.834783    0.398288
 H   -3.709567   -3.559856    0.500713
 H   -3.998790   -0.852927   -0.634250
 H   -2.390104    0.786299    0.354627
 H   -1.250867    0.082891    2.579292
 H   -2.741116    0.605723    3.382039
 H    0.711279    3.181207    2.350842
 H    0.548184    1.863066    3.534580
 H    1.219409    0.294990    1.889208
 H    0.137184    2.254395   -0.192144
 H    1.613467   -0.437200   -0.349146
 H    1.480366    0.755805   -1.675866
 H   -4.519644    1.367635    2.172426
 H   -5.860678    4.111517   -1.047851
 H   -7.114172    3.616140   -2.195165
 H   -5.618995    2.681382   -2.060077
 H   -7.533100    4.049169    0.842703
 H   -8.463137    2.582017    1.150323
 H   -8.809515    3.561767   -0.282192
 H   -6.944944    0.589587   -1.624980
 H   -8.066050    0.516541   -0.257523
 H   -8.480233    1.463020   -1.693693
 H   -5.857053   -2.882013   -0.614615
 H   -4.959699   -2.554617   -2.109819
 H   -5.072500   -4.202626   -1.500980
 H    0.886785   -2.345011    0.615523
 H   -0.062303   -4.350457    1.195257
 H    2.589086   -4.316638   -0.962781
 H    2.669754   -2.568812   -1.244401
 H    3.067808   -3.808306    1.497100
 H    4.786093   -4.824163    0.158179
 H    5.170417   -3.326969   -0.677465
 H    5.571678   -3.513773    1.036531
 H    4.764978   -1.265127   -0.381077
 H    3.651021    0.701715    1.468055
 H    5.803749    1.986112    1.296243
 H    7.856462    0.894335    0.581225
 H    7.023432   -0.633337    0.312021
 H    6.691715    0.749711   -0.736093
 H    7.006694    0.616426    3.007341
 H    5.270447    0.685613    3.326645
 H    5.974958   -0.761534    2.613960
 H    3.619740    2.842491    0.489457
 H    3.459549    2.740243   -2.452368
 H    2.400080    3.747655   -1.441801
 H    4.320073    5.109597   -0.716906
 H    4.159531    5.119617   -2.474487
 H    6.134086    3.422317   -0.876986
 H    6.513004    4.912763   -1.736132
 H    5.604749    2.280421   -2.995105
 H    5.809787    3.788758   -3.892180
 H    7.195245    3.023539   -3.114155
