87 
2f3r_ligand_xtb.xyz
 P    2.557577   -1.775158   -1.285302
 O    2.219020   -3.020535   -2.167705
 O    2.164257   -0.461840   -1.815477
 P    0.360969   -1.989056    0.444661
 O   -0.261712   -3.139981   -0.208511
 O    0.355962   -1.798258    1.958847
 O    1.957976   -2.091023    0.166356
 P   -0.319856   -0.594539   -1.812672
 O   -0.040605   -1.791522   -2.594423
 O    0.001701    0.812161   -2.399555
 O    0.132011   -0.576344   -0.294395
 P   -2.585715   -1.447969   -0.563782
 O   -1.994902   -1.372816    0.765421
 O   -2.603396   -2.869130   -1.206849
 O   -1.905345   -0.436451   -1.600928
 O   -4.058955   -0.938991   -0.708622
 P   -5.246437   -1.919241   -0.145765
 O   -4.980079   -2.479827    1.164708
 O   -5.462254   -2.918893   -1.342558
 O   -6.523451   -1.019786   -0.345312
 C   -7.034403   -0.298606    0.759820
 C   -6.246546    0.976816    1.032342
 O   -5.009777    0.630791    1.634320
 C   -5.917522    1.832246   -0.216590
 O   -6.638378    3.030506   -0.180680
 C   -4.392948    2.070766   -0.101066
 O   -4.081627    3.395582   -0.407256
 C   -4.133814    1.695745    1.378089
 N   -2.783581    1.314157    1.675262
 C   -2.381956    0.433220    2.640755
 N   -1.090571    0.323943    2.725866
 C   -0.588845    1.170055    1.769632
 C    0.755683    1.401951    1.343732
 O    1.799518    0.957563    1.781645
 N    0.778704    2.284398    0.257392
 C   -0.303353    2.846720   -0.345421
 N   -0.073836    3.701616   -1.359567
 N   -1.533323    2.647695    0.060963
 C   -1.642663    1.776650    1.090901
 O    4.103628   -1.822110   -1.078782
 C    4.841096   -2.909277   -0.526555
 C    5.593830   -2.418186    0.719856
 O    6.308073   -1.218576    0.437655
 C    5.635223   -0.099882    0.931912
 C    4.379560   -0.592441    1.706461
 O    4.213863    0.039840    2.936054
 C    4.663043   -2.096413    1.895276
 O    5.310372   -2.340584    3.110615
 N    5.241444    0.804322   -0.129084
 C    4.565282    1.965998    0.087751
 N    4.306754    2.594678    1.231452
 C    3.657354    3.726691    1.067028
 N    3.218607    4.258769   -0.069124
 C    3.473562    3.632935   -1.219372
 N    2.895314    4.133874   -2.361765
 C    4.215816    2.447713   -1.193753
 N    4.710144    1.600429   -2.150805
 C    5.295777    0.652360   -1.484634
 H    1.320213   -2.913504   -2.529155
 H   -0.211509   -1.085319    2.369333
 H    0.939715    0.816469   -2.628961
 H   -1.746007   -3.293202   -0.943781
 H   -4.688336   -3.461087   -1.510568
 H   -6.986761   -0.924528    1.655283
 H   -8.067941   -0.053677    0.507150
 H   -6.826818    1.608237    1.724795
 H   -6.155970    1.277866   -1.131860
 H   -6.017696    3.739003   -0.412855
 H   -3.844307    1.367469   -0.737398
 H   -3.103208    3.452635   -0.357608
 H   -4.407675    2.567695    2.010206
 H   -3.088282   -0.112733    3.230370
 H    1.693682    2.461900   -0.138467
 H   -0.865708    3.967847   -1.917965
 H    0.844223    3.741214   -1.780862
 H    4.183821   -3.741632   -0.276570
 H    5.558878   -3.215670   -1.292155
 H    6.335030   -3.167854    1.015735
 H    6.295764    0.458376    1.614162
 H    3.500258   -0.467754    1.071108
 H    3.431378    0.606268    2.870894
 H    3.730274   -2.672519    1.838751
 H    5.073436   -1.603795    3.697890
 H    3.439698    4.291669    1.961962
 H    3.312830    3.795732   -3.216247
 H    2.704635    5.125380   -2.331715
 H    5.808463   -0.170768   -1.936235
