45 
2f5t_ligand_xtb.xyz
 C    1.111131   -0.075075   -1.032045
 C    1.946271   -1.364556   -1.139590
 C    2.703202   -1.551638    0.182125
 C    3.558852   -0.309759    0.452853
 C    2.661931    0.932418    0.452821
 C    3.486823    2.218078    0.568647
 O    0.156248   -0.283763   -0.016797
 O    1.158637   -2.481700   -1.440293
 O    3.544556   -2.681188    0.132782
 O    4.206755   -0.397746    1.693520
 O    1.915514    1.031509   -0.761190
 O    2.678104    3.361968    0.586891
 C   -3.812781    0.369569    0.815958
 C   -3.480024   -1.005232    0.219467
 C   -1.973315   -1.242380    0.322253
 C   -1.206456   -0.076563   -0.311850
 C   -1.696272    1.269069    0.256415
 C   -1.109736    2.443633   -0.538112
 O   -5.169342    0.593746    0.644766
 O   -4.131603   -2.039990    0.909031
 O   -1.593117   -2.425229   -0.334611
 O   -3.105499    1.386066    0.156179
 O   -1.503892    2.399898   -1.881495
 H    0.623299    0.145670   -1.990277
 H    2.670630   -1.260564   -1.956104
 H    1.969075   -1.667093    0.996095
 H    4.300824   -0.221241   -0.358951
 H    1.966859    0.865114    1.299995
 H    4.196189    2.255736   -0.269213
 H    4.038717    2.198019    1.508848
 H    0.326377   -2.434869   -0.937309
 H    3.078807   -3.356241   -0.378344
 H    4.582221   -1.286466    1.748382
 H    2.154656    3.356913   -0.223602
 H   -3.542520    0.370155    1.894097
 H   -3.779455   -0.995440   -0.840480
 H   -1.700338   -1.303292    1.387733
 H   -1.374701   -0.090068   -1.396890
 H   -1.386320    1.336242    1.310228
 H   -1.427401    3.382433   -0.065457
 H   -0.021020    2.382048   -0.524043
 H   -5.342356    1.535390    0.761596
 H   -5.068473   -1.815656    0.963531
 H   -2.184772   -3.126455   -0.032913
 H   -2.468922    2.375728   -1.900833
