50 
2f6v_ligand_xtb.xyz
 O    2.977021    1.665746    1.163803
 S    3.085459    2.055919   -0.359898
 O    1.795353    1.927023   -0.957115
 O    3.764887    3.299895   -0.441836
 N    4.117442    0.896770   -1.005686
 C    3.588024   -0.366666   -0.679322
 C    4.044121   -1.104543    0.406323
 C    2.436631   -0.753422   -1.353365
 C    1.638525   -1.745959   -0.818357
 C    0.317743   -2.119238   -1.418556
 N   -0.735099   -2.055461   -0.407722
 C   -0.321370   -1.999855    0.981508
 C    0.065658   -0.538091    1.329956
 O    1.150657   -0.216977    1.799267
 N   -0.894264    0.348051    1.064738
 C   -0.677580    1.775603    1.182902
 C    0.864692   -2.963757    1.159624
 C    1.991851   -2.340789    0.394222
 C    3.237731   -2.089310    0.944819
 C   -2.005902   -1.909008   -0.833392
 O   -2.342692   -1.920490   -1.991452
 O   -2.868305   -1.742997    0.210900
 C   -4.201402   -1.341198   -0.133495
 C   -4.274851    0.163366   -0.110025
 C   -3.884723    0.893874   -1.227007
 C   -3.868249    2.277023   -1.183694
 C   -4.638863    0.833938    1.051134
 C   -4.627046    2.217595    1.090584
 C   -4.240726    2.940418   -0.026176
 H    2.272172    1.011319    1.391092
 H    5.040984    1.069970   -0.635820
 H    4.974012   -0.837994    0.886062
 H    2.128053   -0.198653   -2.223115
 H    0.363594   -3.141941   -1.817290
 H    0.049006   -1.451502   -2.240475
 H   -1.168224   -2.300335    1.605762
 H   -1.775247    0.037190    0.684081
 H   -0.059318    2.133820    0.355399
 H   -0.157392    1.983270    2.118157
 H   -1.640059    2.279478    1.174061
 H    1.123722   -3.054932    2.213438
 H    0.578285   -3.945595    0.775683
 H    3.534131   -2.588442    1.854538
 H   -4.848681   -1.788831    0.622875
 H   -4.444048   -1.734839   -1.124891
 H   -3.590557    0.372211   -2.125551
 H   -3.564036    2.837305   -2.054461
 H   -4.934469    0.269576    1.923722
 H   -4.917468    2.731586    1.994907
 H   -4.229306    4.019624    0.006238
