49 
2f6y_ligand_dft.xyz
 O    4.956760    0.398684    1.193300
 S    4.751117   -1.154971    0.771918
 O    3.688957   -1.678167    1.597752
 O    6.070251   -1.722753    0.714041
 N    4.208220   -1.089223   -0.801883
 C    3.050258   -0.297880   -1.083573
 C    3.169409    0.924982   -1.745306
 C    2.031691    1.676112   -1.994188
 C    1.802461   -0.748775   -0.674171
 C    0.664704    0.022690   -0.908391
 C   -0.657151   -0.510769   -0.406411
 N   -1.784460    0.377450   -0.675663
 C   -1.541366    1.813893   -0.789560
 C   -1.194249    2.441053    0.579645
 O   -0.115512    2.967446    0.805648
 N   -2.195799    2.332679    1.488378
 C   -2.081518    2.858710    2.830548
 C   -0.456654    2.074078   -1.824880
 C    0.773516    1.243797   -1.572187
 C   -3.061246   -0.030100   -0.408911
 O   -4.009431    0.741136   -0.315426
 O   -3.123510   -1.357158   -0.264160
 C   -4.376703   -2.028574    0.072224
 C   -5.394091   -1.834122   -1.049561
 C   -4.895573   -1.529238    1.419427
 C   -3.950902   -3.490988    0.168293
 H    4.119796    0.728566    1.559393
 H    4.998188   -0.914230   -1.415523
 H    4.147893    1.290936   -2.043863
 H    2.122072    2.634153   -2.498496
 H    1.726623   -1.701918   -0.160141
 H   -0.576922   -0.697417    0.674084
 H   -0.863277   -1.473839   -0.878603
 H   -2.482775    2.252067   -1.128693
 H   -3.084569    1.965977    1.167898
 H   -2.464794    2.134697    3.555686
 H   -2.630825    3.800449    2.944186
 H   -1.025760    3.045943    3.030087
 H   -0.199034    3.136317   -1.812495
 H   -0.867815    1.841697   -2.814876
 H   -4.972489   -2.166365   -2.003671
 H   -6.284138   -2.436432   -0.840335
 H   -5.689201   -0.787635   -1.135757
 H   -5.742450   -2.148145    1.733022
 H   -4.112691   -1.611616    2.180627
 H   -5.225104   -0.491566    1.355106
 H   -3.533342   -3.833944   -0.783133
 H   -4.814924   -4.115669    0.414314
 H   -3.193711   -3.621553    0.947429
