75 
2f80_ligand_xtb.xyz
 N   -6.966929    2.283874   -0.923859
 C   -6.082972    1.239824   -0.989542
 C   -6.056696    0.267103    0.017645
 C   -5.120219   -0.743860   -0.014003
 C   -4.201442   -0.796613   -1.047058
 C   -4.208994    0.155810   -2.050660
 C   -5.145770    1.167385   -2.026767
 S   -2.981823   -2.098177   -1.049372
 O   -3.610808   -3.364012   -0.821795
 O   -2.186140   -1.954611   -2.244738
 N   -1.989084   -1.777332    0.243062
 C   -2.171496   -2.504951    1.475610
 C   -0.851069   -3.093564    1.991721
 C   -0.300720   -4.097957    0.984290
 C   -1.073586   -3.750342    3.351102
 C   -1.464921   -0.432717    0.301332
 C   -0.093334   -0.306638   -0.387238
 O   -0.202223   -0.185867   -1.781346
 C    0.690574    0.919280    0.122826
 N    2.028578    0.848007   -0.419942
 C    3.126801    0.959482    0.346016
 O    3.133380    1.169000    1.534061
 O    4.249533    0.813105   -0.409211
 C    5.470473    0.948372    0.295387
 C    5.848778   -0.296548    1.119342
 O    7.250212   -0.198876    1.265794
 C    7.773235    0.261754    0.060969
 O    8.110335   -0.807714   -0.792443
 C    7.766934   -0.454726   -2.114879
 C    6.489353    0.381292   -2.004492
 C    6.667669    1.088855   -0.656941
 C    0.036461    2.254691   -0.278327
 C   -1.030473    2.790095    1.927552
 C   -2.132408    3.089305    2.707900
 C   -3.383392    3.213856    2.126579
 C   -3.523254    3.049933    0.759636
 C   -2.419359    2.746947   -0.018636
 C   -1.162715    2.602212    0.555978
 H   -7.762102    2.184596   -0.315757
 H   -7.121236    2.817981   -1.762357
 H   -6.778272    0.317276    0.819362
 H   -5.098087   -1.506531    0.748101
 H   -3.480629    0.081373   -2.842618
 H   -5.162253    1.913319   -2.807619
 H   -2.619066   -1.854361    2.240405
 H   -2.863279   -3.317262    1.247690
 H   -0.132587   -2.274541    2.108557
 H   -0.227392   -3.641502    0.000279
 H   -0.965914   -4.954850    0.907906
 H    0.684191   -4.445392    1.287637
 H   -1.802486   -4.553167    3.267529
 H   -1.438811   -3.026362    4.076269
 H   -0.142049   -4.168362    3.723980
 H   -2.165499    0.248309   -0.191931
 H   -1.378673   -0.130804    1.347323
 H    0.493028   -1.206604   -0.134525
 H   -0.827672   -0.867825   -2.099755
 H    0.797713    0.863319    1.210235
 H    2.114278    0.657422   -1.405635
 H    5.401645    1.814250    0.965003
 H    5.569589   -1.203930    0.567505
 H    5.401168   -0.309796    2.111409
 H    8.676310    0.841543    0.303006
 H    7.640682   -1.378762   -2.679394
 H    8.578884    0.135846   -2.565320
 H    6.380876    1.080316   -2.829711
 H    5.613414   -0.264192   -1.972197
 H    6.961258    2.129909   -0.782831
 H   -0.234744    2.196844   -1.332682
 H    0.792939    3.033955   -0.154163
 H   -0.054957    2.705701    2.384115
 H   -2.014623    3.229714    3.772495
 H   -4.244077    3.446610    2.736006
 H   -4.493398    3.156640    0.297905
 H   -2.536032    2.620447   -1.085727
