75 
2f81_ligand_xtb.xyz
 N   -6.975808    2.273871   -0.943586
 C   -6.086233    1.234171   -1.002365
 C   -6.064016    0.260811    0.004248
 C   -5.123328   -0.746401   -0.020505
 C   -4.196151   -0.794784   -1.046281
 C   -4.198977    0.158851   -2.048720
 C   -5.139791    1.166847   -2.031585
 S   -2.976031   -2.095891   -1.044362
 O   -3.605913   -3.361649   -0.818810
 O   -2.177175   -1.952367   -2.237704
 N   -1.987029   -1.775676    0.250619
 C   -2.160315   -2.512911    1.478612
 C   -0.836551   -3.108717    1.977904
 C   -0.302545   -4.112847    0.961422
 C   -1.044930   -3.767690    3.338423
 C   -1.463612   -0.431174    0.313102
 C   -0.090037   -0.302496   -0.371022
 O   -0.194028   -0.186048   -1.765942
 C    0.688423    0.928010    0.136873
 N    2.026395    0.860683   -0.406541
 C    3.126011    0.966638    0.358290
 O    3.135466    1.174659    1.546439
 O    4.246708    0.817693   -0.399759
 C    5.470333    0.945220    0.301437
 C    5.851397   -0.308401    1.110780
 O    7.253177   -0.211558    1.254305
 C    7.773028    0.263122    0.053291
 O    8.112526   -0.796548   -0.811203
 C    7.760444   -0.435181   -2.129190
 C    6.480684    0.395558   -2.005911
 C    6.663793    1.094035   -0.654234
 C    0.028774    2.259222   -0.269386
 C   -1.043096    2.800741    1.932828
 C   -2.147606    3.097123    2.710692
 C   -3.398947    3.210429    2.127784
 C   -3.536404    3.039249    0.761507
 C   -2.429900    2.739506   -0.014310
 C   -1.172893    2.604874    0.562173
 H   -7.775453    2.170403   -0.342016
 H   -7.125864    2.807773   -1.782948
 H   -6.792454    0.307322    0.799918
 H   -5.104479   -1.509711    0.741005
 H   -3.463902    0.088040   -2.834813
 H   -5.152592    1.913614   -2.811699
 H   -2.599473   -1.867206    2.252250
 H   -2.856233   -3.321646    1.250462
 H   -0.113522   -2.292826    2.088219
 H   -0.241956   -3.655250   -0.022967
 H   -0.970577   -4.968235    0.893232
 H    0.685669   -4.463005    1.250523
 H   -1.779763   -4.565892    3.262883
 H   -1.395768   -3.043257    4.070207
 H   -0.110894   -4.192175    3.697604
 H   -2.163608    0.249546   -0.181199
 H   -1.380905   -0.130791    1.359920
 H    0.498439   -1.199807   -0.113803
 H   -0.818412   -0.868678   -2.085037
 H    0.795577    0.875826    1.224455
 H    2.111000    0.665976   -1.391550
 H    5.405066    1.804220    0.980205
 H    5.570982   -1.209915    0.550013
 H    5.406765   -0.332730    2.103991
 H    8.674611    0.843151    0.300190
 H    7.634200   -1.355586   -2.699695
 H    8.567894    0.161261   -2.579968
 H    6.365312    1.100139   -2.825446
 H    5.607066   -0.253112   -1.973607
 H    6.955673    2.136266   -0.774294
 H   -0.241309    2.195951   -1.323718
 H    0.781682    3.042296   -0.147836
 H   -0.067508    2.724764    2.390755
 H   -2.031710    3.243981    3.774618
 H   -4.261797    3.440211    2.735350
 H   -4.506718    3.137636    0.298295
 H   -2.544886    2.607286   -1.080909
