25 
2f89_ligand_dft.xyz
 P   -1.779309   -0.347788    0.131229
 O   -2.062686    0.550880    1.277789
 O   -2.404437    0.106333   -1.274837
 O   -2.177340   -1.882030    0.232122
 C    0.038957   -0.445205   -0.193529
 P    0.758067    1.247464    0.072624
 O    2.213753    1.293260   -0.232902
 O    0.418843    1.660214    1.560263
 O   -0.163448    2.096580   -0.938330
 O    0.324978   -0.865279   -1.517454
 C    0.682843   -1.489036    0.741318
 C    2.216388   -1.520258    0.801429
 N    2.858262   -1.275630   -0.536053
 H   -2.613208    1.053561   -1.291219
 H   -3.124180   -2.056537    0.350510
 H   -0.537083    1.518393    1.765798
 H    0.226187    2.948774   -1.191793
 H   -0.246561   -0.391425   -2.141747
 H    0.305434   -2.459456    0.406802
 H    0.331808   -1.343572    1.767546
 H    2.542678   -2.496447    1.162595
 H    2.615410   -0.750096    1.463284
 H    3.831020   -1.587951   -0.555696
 H    2.334846   -1.717951   -1.298135
 H    2.817997   -0.235684   -0.691885
