75 
2f8g_ligand_xtb.xyz
 N   -6.981117    2.256935   -0.948224
 C   -6.089144    1.219372   -1.008300
 C   -6.076266    0.235429   -0.011815
 C   -5.131553   -0.768050   -0.035590
 C   -4.192092   -0.803018   -1.050591
 C   -4.187328    0.159749   -2.044275
 C   -5.131542    1.164577   -2.027794
 S   -2.964618   -2.096819   -1.041757
 O   -3.588670   -3.365307   -0.815163
 O   -2.161660   -1.951771   -2.232137
 N   -1.983252   -1.767546    0.256798
 C   -2.156185   -2.504772    1.484770
 C   -0.836551   -3.116586    1.975668
 C   -0.316935   -4.119454    0.950452
 C   -1.048110   -3.782878    3.332088
 C   -1.462456   -0.422027    0.317379
 C   -0.085307   -0.293261   -0.359357
 O   -0.181954   -0.182060   -1.755176
 C    0.689841    0.939753    0.148121
 N    2.028321    0.873111   -0.393704
 C    3.127769    0.966089    0.373063
 O    3.138298    1.168966    1.562053
 O    4.247197    0.812411   -0.385589
 C    5.472866    0.939459    0.311951
 C    5.858640   -0.316061    1.116160
 O    7.262287   -0.224018    1.246560
 C    7.772119    0.252184    0.042441
 O    8.094370   -0.805455   -0.831382
 C    7.742521   -0.426345   -2.144212
 C    6.468272    0.411010   -2.007807
 C    6.661253    1.094021   -0.649599
 C    0.031420    2.270475   -0.261138
 C   -1.053588    2.813469    1.934239
 C   -2.162207    3.113215    2.704720
 C   -3.409731    3.227816    2.114003
 C   -3.539302    3.053953    0.747303
 C   -2.428435    2.751713   -0.021305
 C   -1.175226    2.616219    0.563051
 H   -7.788110    2.145029   -0.358083
 H   -7.121541    2.800492   -1.783091
 H   -6.814489    0.270929    0.775319
 H   -5.118717   -1.539265    0.718185
 H   -3.443809    0.098597   -2.823332
 H   -5.138283    1.918627   -2.800982
 H   -2.583779   -1.855184    2.261408
 H   -2.861806   -3.306205    1.260346
 H   -0.104862   -2.308970    2.088991
 H   -0.251554   -3.654899   -0.030379
 H   -0.996599   -4.965162    0.875990
 H    0.666898   -4.485350    1.235180
 H   -1.791211   -4.573079    3.252261
 H   -1.390094   -3.060311    4.069922
 H   -0.117793   -4.219580    3.686275
 H   -2.160767    0.255439   -0.183614
 H   -1.386081   -0.117721    1.363536
 H    0.503534   -1.188452   -0.095586
 H   -0.803974   -0.866388   -2.075120
 H    0.795476    0.888941    1.235953
 H    2.113174    0.677738   -1.378597
 H    5.408332    1.796527    0.993119
 H    5.570423   -1.216279    0.557302
 H    5.423993   -0.340179    2.113874
 H    8.680355    0.825123    0.281284
 H    7.609539   -1.338746   -2.725750
 H    8.552628    0.171021   -2.588996
 H    6.353926    1.124590   -2.819643
 H    5.591243   -0.233080   -1.978673
 H    6.955889    2.136638   -0.759673
 H   -0.231807    2.208178   -1.317273
 H    0.783497    3.053619   -0.134360
 H   -0.080992    2.736384    2.398265
 H   -2.052481    3.262088    3.769113
 H   -4.275774    3.460782    2.715782
 H   -4.506696    3.152534    0.278298
 H   -2.536876    2.618738   -1.088320
