27 
2f8i_ligand_xtb.xyz
 C   -2.229766   -1.823567    0.805694
 C   -1.139924   -1.035500    0.456306
 C   -3.485337   -1.310371    0.561731
 C   -3.671166   -0.038345   -0.004705
 C   -2.587673    0.769907   -0.334701
 C   -1.333280    0.247235   -0.105010
 C    3.081481   -1.013926   -0.183265
 C    2.193722    0.058736   -0.004560
 C    0.761961   -0.175199    0.091179
 C    4.448452   -0.805737   -0.275610
 C    4.108868    1.552651   -0.004222
 C    4.958367    0.476619   -0.186510
 C    2.741575    1.346497    0.085403
 C   -5.030892    0.528853   -0.252962
 O   -6.024480   -0.356935   -0.444658
 O   -5.244936    1.708248   -0.296705
 O   -0.110530    0.776699   -0.329566
 N    0.205815   -1.250366    0.555341
Cl    1.738587    2.718660    0.355011
Cl    2.494924   -2.616822   -0.327043
 H   -2.086687   -2.793781    1.251450
 H   -4.343680   -1.898821    0.858345
 H   -2.745268    1.751924   -0.749704
 H    5.100023   -1.652377   -0.417919
 H    4.496068    2.555770    0.073034
 H    6.022372    0.638803   -0.257259
 H   -5.711989   -1.271419   -0.445952
