46 
2f9b_ligand_xtb.xyz
 C    6.637202   -0.855704    0.422376
 C    6.195413   -2.200640    0.511728
 C    4.860778   -2.497760    0.379638
 C    4.004844   -1.422394    0.163416
 C    4.532594   -0.106404    0.083196
 N    5.835406    0.169852    0.203699
 N    7.961342   -0.562428    0.629033
 N    2.659467   -1.341683   -0.010154
 C    3.438400    0.754477   -0.143711
 C    2.299738   -0.029813   -0.193381
 C    0.929274    0.392400   -0.405575
 C    0.670907    1.733329   -0.694923
 C   -0.611019    2.219777   -0.894115
 C   -0.833706    3.682545   -1.144313
 C   -0.906048    4.489241    0.154880
 O   -0.475812    5.598504    0.260443
 O   -1.520439    3.873441    1.172594
 C   -1.680681    1.339243   -0.809032
 C   -1.467250   -0.012672   -0.553064
 C   -0.171215   -0.486645   -0.333732
 O    0.038478   -1.800353   -0.016393
 C   -2.630611   -0.921660   -0.530469
 C   -2.655819   -2.083239   -1.307400
 C   -3.759508   -2.920979   -1.305209
 C   -4.863696   -2.616430   -0.531405
 C   -4.843907   -1.455942    0.232042
 N   -5.996650   -1.115891    1.035617
 O   -5.968569   -0.064149    1.636214
 O   -6.916535   -1.903280    1.055818
 C   -3.745143   -0.610576    0.240865
 H    6.922140   -2.979317    0.686650
 H    4.497238   -3.513969    0.441367
 H    8.637283   -1.285167    0.450403
 H    8.230873    0.373839    0.375544
 H    3.504905    1.817893   -0.241071
 H    1.501276    2.415557   -0.764788
 H   -1.781501    3.844264   -1.665369
 H   -0.034923    4.108472   -1.751113
 H   -1.781617    2.967730    0.943571
 H   -2.690479    1.680118   -0.990369
 H   -0.811334   -2.248204    0.090319
 H   -1.815148   -2.314224   -1.946596
 H   -3.759097   -3.809855   -1.916507
 H   -5.737248   -3.248841   -0.512877
 H   -3.767790    0.275949    0.856633
 H    2.008210   -2.107443    0.016560
