26 
2f9k_ligand_xtb.xyz
 O   -2.336482   -0.062943    1.652387
 P   -2.188156   -0.513562    0.275878
 O   -3.106985    0.235961   -0.808688
 O   -2.600201   -2.027453    0.038480
 C   -0.471106   -0.380982   -0.406887
 P    0.152320    1.275174    0.142624
 O    0.930637    1.862088   -1.121595
 O   -1.196613    2.143114    0.061118
 O    0.836840    1.384762    1.424628
 O   -0.487197   -0.517897   -1.802608
 C    0.398277   -1.461610    0.217314
 N    1.780922   -1.087789    0.139762
 C    2.446315   -0.717305   -0.984916
 N    3.656915   -0.308855   -0.724755
 C    3.799917   -0.420176    0.623210
 C    2.649971   -0.899546    1.176599
 H   -3.256007    1.150689   -0.564692
 H   -2.706530   -2.252769   -0.888074
 H    1.881832    1.755377   -1.044904
 H   -1.329797    2.549640    0.921005
 H   -0.822792    0.298752   -2.194684
 H    0.225767   -2.408949   -0.307765
 H    0.112428   -1.568366    1.267135
 H    2.015832   -0.789119   -1.964339
 H    4.718113   -0.147987    1.102088
 H    2.373604   -1.098291    2.189949
