89 
2fde_ligand_xtb.xyz
 C   -8.219404   -1.212291    0.489025
 C   -9.072406    0.079430    0.651566
 C   -6.840639   -0.772439    1.004137
 C   -8.269547   -1.504179   -1.014607
 O   -8.270061    1.051700    1.242069
 O   -9.483430    0.468513   -0.638500
 C   -6.927300    0.762799    0.913881
 O   -5.789414   -1.323889    0.231113
 C   -9.463854   -0.665831   -1.477639
 C   -4.549568   -1.215223    0.774148
 N   -3.639572   -1.843183   -0.002029
 O   -4.316271   -0.671772    1.825287
 C   -2.222964   -1.632642    0.216320
 C   -1.461717   -2.896081   -0.205694
 C   -1.768692   -0.361244   -0.541217
 C    0.016118   -2.745401    0.004015
 C   -0.480953    0.254624    0.047232
 O   -1.637884   -0.674545   -1.900914
 C    0.887311   -2.686739   -1.077774
 C    0.542910   -2.604461    1.279415
 N   -0.447779    1.687463   -0.127398
 C    2.232831   -2.445647   -0.894191
 C    1.887995   -2.344077    1.478951
 S    0.355306    2.216037   -1.468815
 C   -0.573328    2.541459    1.029115
 C    2.741294   -2.235593    0.387302
 C    2.040376    1.621969   -1.304578
 O   -0.230369    1.551694   -2.605161
 O    0.357649    3.646492   -1.453158
 C   -2.022176    2.631393    1.531435
 O    4.070885   -1.931334    0.464651
 C    2.492440    0.645277   -2.186473
 C    2.841744    2.167705   -0.323785
 C   -2.066108    3.430707    2.830956
 C   -2.902998    3.279421    0.467824
 C    4.594219   -1.555597    1.726055
 C    3.801641    0.256645   -2.043602
 C    4.169851    1.768174   -0.182211
 C    5.976841   -1.027021    1.512588
 C    4.628471    0.815928   -1.062187
 O    4.511080   -0.656518   -2.765877
 N    6.251497    0.268425    1.817357
 C    7.021466   -1.720045    0.984741
 O    5.876516    0.282774   -1.170976
 C    5.792041   -0.707106   -2.174999
 C    7.457696    0.597723    1.532773
 S    8.403424   -0.710960    0.845873
 C    8.038605    1.945038    1.725046
 H   -8.622157   -2.037471    1.074313
 H   -9.952859   -0.047534    1.298791
 H   -6.703929   -1.064722    2.052082
 H   -8.399205   -2.561924   -1.228542
 H   -7.354699   -1.157548   -1.491842
 H   -6.689375    1.087304   -0.107893
 H   -6.283571    1.273387    1.627965
 H   -9.381714   -0.312833   -2.505729
 H  -10.401336   -1.230460   -1.362880
 H   -3.920163   -2.096182   -0.937384
 H   -2.110846   -1.453089    1.289613
 H   -1.663284   -3.076756   -1.261134
 H   -1.849339   -3.733320    0.378838
 H   -2.567465    0.387802   -0.403766
 H   -0.411565    0.028966    1.113007
 H    0.385439   -0.185351   -0.455365
 H   -1.221948    0.089647   -2.344241
 H    0.501240   -2.810590   -2.077734
 H   -0.106881   -2.686025    2.138541
 H    2.906372   -2.400917   -1.734741
 H    2.255104   -2.228854    2.486529
 H   -0.242989    3.530628    0.708299
 H    0.083210    2.185113    1.835433
 H   -2.388980    1.618745    1.730016
 H    1.838697    0.244821   -2.941515
 H    2.430874    2.926988    0.321340
 H   -3.087472    3.493123    3.196509
 H   -1.457099    2.957597    3.598051
 H   -1.694817    4.440197    2.668181
 H   -2.785460    2.766372   -0.483607
 H   -2.616562    4.318823    0.324398
 H   -3.948857    3.241135    0.763186
 H    3.988634   -0.759759    2.175412
 H    4.615800   -2.425332    2.399337
 H    4.813156    2.172254    0.580402
 H    7.052596   -2.744080    0.673310
 H    5.948243   -1.700226   -1.721858
 H    6.561220   -0.521514   -2.938471
 H    7.375699    2.539633    2.347923
 H    9.018710    1.878086    2.192700
 H    8.156091    2.438719    0.760392
