46 
2fie_ligand_dft.xyz
 C    3.719803   -0.956798   -2.404799
 C    4.503995    0.176901   -2.237677
 C    4.726398    0.674335   -0.958983
 C    4.180793    0.048042    0.151823
 C    3.407996   -1.096332   -0.020037
 C    3.166679   -1.597947   -1.301248
 S    2.768483   -1.847765    1.476747
 O    3.185511   -1.015511    2.579467
 O    3.005944   -3.274526    1.461802
 N    1.097909   -1.720833    1.306149
 C    0.453182   -0.531320    1.057613
 N    0.963148    0.650312    1.021163
 C   -0.139803    1.457147    0.729401
 C   -0.214184    2.835775    0.543735
 C   -1.470574    3.351828    0.228947
 C   -2.598690    2.518889    0.107745
 C   -2.534903    1.137193    0.285577
 C   -1.268263    0.658191    0.603819
 O   -0.871496   -0.650422    0.819207
Cl    5.691643    2.107665   -0.746583
Cl    2.166123   -2.992126   -1.591195
 O   -1.720053    4.670188    0.023653
 C   -0.644278    5.572493    0.150878
 C   -5.076671   -1.610904    0.795967
 C   -5.959491   -1.256596   -0.237239
 N   -5.761010   -0.230560   -1.049648
 C   -4.659533    0.504249   -0.860475
 C   -3.717539    0.264977    0.133794
 C   -3.950636   -0.837999    0.974316
 O   -7.053434   -2.019611   -0.387176
 C   -7.950237   -1.663127   -1.430505
 H    3.531172   -1.349014   -3.397632
 H    4.933913    0.674513   -3.099667
 H    4.330111    0.440361    1.150390
 H    0.639000   -2.577966    1.023701
 H    0.672599    3.447461    0.645893
 H   -3.549345    2.994246   -0.108726
 H   -0.217057    5.548385    1.161618
 H    0.146400    5.361577   -0.580747
 H   -1.058200    6.562714   -0.042042
 H   -5.299436   -2.464639    1.425005
 H   -4.516806    1.325527   -1.559854
 H   -3.250294   -1.074570    1.769079
 H   -8.342027   -0.652566   -1.283830
 H   -7.456784   -1.708884   -2.405517
 H   -8.757369   -2.394425   -1.378585
