71 
2fjm_ligand_xtb.xyz
 O    3.301293    3.192442    0.801569
 C    2.338734    3.452896    0.102619
 O    2.090890    4.679174   -0.348119
 C    3.023279    5.687109    0.021664
 C    1.346755    2.453808   -0.338350
 C    1.204884    1.275236    0.390454
 C    0.334183    0.298111   -0.040974
 C    0.579869    2.642800   -1.484565
 C   -0.277776    1.649435   -1.918208
 C   -0.408187    0.458926   -1.210758
 C   -1.205854   -0.713294   -1.744346
 N   -1.734527   -1.500024   -0.648811
 N   -1.877623   -2.827269   -0.759990
 N   -2.515347   -3.301255    0.225771
 C   -2.856516   -2.279977    1.058844
 C   -3.582975   -2.267025    2.249917
 C   -2.354276   -1.080843    0.493553
 C   -2.558731    0.146578    1.119068
 C   -3.285649    0.136813    2.284883
 C   -3.791556   -1.046982    2.842116
 C   -0.242210   -1.599415   -2.589827
 C    1.109359   -1.733721   -1.950779
 C    2.143582   -0.880700   -2.320324
 C    3.352373   -0.904419   -1.653740
 C    3.541561   -1.795634   -0.605954
 C    4.790264   -1.691434    0.199719
 F    5.038464   -2.805299    0.948359
 P    4.580595   -0.290026    1.420846
 O    3.349614   -0.388967    2.209575
 O    5.916313   -0.317957    2.296610
 O    4.755224    0.966655    0.500486
 F    5.897099   -1.515197   -0.562146
 C    2.533071   -2.680443   -0.253785
 C    1.327860   -2.653141   -0.931874
 C   -2.417276   -0.331062   -2.643172
 C   -3.449922    0.418988   -1.869230
 C   -4.518991   -0.174000   -1.341062
 C   -5.477822    0.426501   -0.426226
 C   -6.260641   -0.416533    0.363623
 C   -7.137075    0.099375    1.297731
 C   -7.260081    1.470142    1.451363
 C   -6.501110    2.319052    0.662280
 C   -5.616525    1.804753   -0.265566
 H    4.022379    5.427161   -0.333363
 H    3.053730    5.794110    1.107516
 H    2.676865    6.605980   -0.443654
 H    1.781758    1.117856    1.287409
 H    0.258637   -0.608584    0.536935
 H    0.680431    3.557084   -2.048716
 H   -0.834621    1.811053   -2.827827
 H   -3.960690   -3.185661    2.668253
 H   -2.177497    1.066255    0.705935
 H   -3.478462    1.070987    2.790378
 H   -4.357384   -0.986062    3.759456
 H   -0.137060   -1.135033   -3.570881
 H   -0.708993   -2.578101   -2.701375
 H    1.995274   -0.176072   -3.125768
 H    4.149757   -0.233693   -1.934602
 H    5.801154   -0.851074    3.084040
 H    4.227946    1.753300    0.765907
 H    2.690382   -3.379766    0.552369
 H    0.540088   -3.339266   -0.657941
 H   -2.841618   -1.266346   -3.015800
 H   -2.068618    0.248326   -3.497933
 H   -3.237385    1.460519   -1.675920
 H   -4.679526   -1.228083   -1.538497
 H   -6.162110   -1.486988    0.252069
 H   -7.727873   -0.568857    1.906807
 H   -7.946600    1.875893    2.179566
 H   -6.600627    3.389324    0.772552
 H   -5.038101    2.478269   -0.879855
