44 
2fl6_ligand_xtb.xyz
 C    4.362057   -1.492191    0.202796
 C    3.038311   -1.348795   -0.174765
 C    2.504756   -0.082144   -0.368110
 C    3.363144    0.999565   -0.175262
 C    4.683673    0.857485    0.204803
 C    5.199115   -0.410951    0.402219
 C    1.079748    0.160072   -0.776477
 C    0.284657    0.989302    0.251854
 N   -1.104538    0.744850   -0.089464
 C   -1.226721   -0.473460   -0.896212
 C    0.185998   -1.070535   -0.910236
 C   -2.249442   -1.408930   -0.306345
 C   -3.155391   -2.072738   -1.120644
 C   -4.083198   -2.942367   -0.574744
 C   -4.117229   -3.154029    0.792612
 C   -3.218752   -2.492249    1.612369
 C   -2.289176   -1.627307    1.064963
 C   -1.983911    1.763021   -0.411360
 N   -1.917355    2.873615    0.387490
 C   -2.709299    4.021741    0.010171
 C   -1.511509    2.843119    1.771887
 O   -2.760461    1.675287   -1.344418
 F    2.894264    2.251548   -0.375120
 F    4.847431   -2.736739    0.380135
 H    2.443361   -2.234311   -0.323619
 H    5.294018    1.736045    0.338660
 H    6.224211   -0.563344    0.697248
 H    1.080709    0.709660   -1.725301
 H    0.516977    2.051933    0.202024
 H    0.509799    0.618890    1.261274
 H   -1.542105   -0.193644   -1.910018
 H    0.373696   -1.642996   -1.815977
 H    0.305675   -1.720551   -0.042045
 H   -3.138803   -1.899403   -2.186524
 H   -4.785512   -3.451832   -1.218093
 H   -4.844464   -3.828854    1.219598
 H   -3.243616   -2.650287    2.681067
 H   -1.592842   -1.107396    1.707180
 H   -3.619334    4.096026    0.613981
 H   -2.991435    3.915697   -1.034488
 H   -2.118145    4.929670    0.144144
 H   -0.617475    3.451883    1.937225
 H   -2.317229    3.244203    2.393776
 H   -1.316788    1.822127    2.086800
