36 
2flb_ligand_xtb.xyz
 C    4.941435   -0.015653   -0.015855
 C    4.625327   -1.422920    0.035243
 C    3.353472   -1.889463    0.032195
 C    2.303069   -0.938872   -0.010912
 C    2.622347    0.510384   -0.090131
 C    3.967716    0.936819   -0.101559
 C    6.360414    0.399832    0.002094
 N    6.689910    1.415327   -0.680848
 N    7.213065   -0.393331    0.727990
 N    1.007355   -1.083839    0.011125
 N    1.500417    1.182508   -0.109864
 C    0.521260    0.213636   -0.063124
 C   -0.820417    0.495012   -0.085903
 C   -1.954073   -0.414656   -0.039113
 O   -1.839964   -1.743470    0.036217
 C   -3.055029    0.412841   -0.041675
 N   -2.590599    1.731088   -0.062894
 N   -1.345040    1.787381   -0.113396
 C   -4.476280    0.143690   -0.008142
 C   -5.016472   -1.071011   -0.439833
 C   -6.379253   -1.289912   -0.376250
 C   -7.224655   -0.305147    0.109467
 C   -6.700494    0.911826    0.518971
 C   -5.340846    1.138047    0.460030
 H    5.450801   -2.120366    0.041798
 H    3.122551   -2.942742    0.053717
 H    4.218583    1.982367   -0.167917
 H    7.678115    1.652052   -0.646369
 H    8.154277   -0.062623    0.868042
 H    6.845644   -0.993237    1.446781
 H   -2.707440   -2.148169    0.172005
 H   -4.382338   -1.833332   -0.871415
 H   -6.785751   -2.231599   -0.715256
 H   -8.288745   -0.482069    0.156104
 H   -7.358597    1.686243    0.884044
 H   -4.918274    2.080575    0.770924
