110 
2fm2_ligand_xtb.xyz
 C    4.757667   -1.344380    0.456127
 O    4.193646   -2.258044   -0.104727
 O    6.025231   -0.948582    0.260563
 C    6.882113   -1.653086   -0.667904
 C    8.211999   -0.902288   -0.587529
 C    7.059756   -3.105699   -0.226888
 C    6.308277   -1.575476   -2.083001
 N    4.186000   -0.589335    1.427126
 C    2.749886   -0.652201    1.619503
 C    2.347384   -0.232689    3.053350
 C    0.820564   -0.211739    3.150535
 C    2.912302   -1.274031    4.023358
 C    2.891518    1.152494    3.406720
 C    2.108249    0.214878    0.537237
 O    2.509861    1.362512    0.341332
 N    1.154755   -0.325653   -0.231505
 C    0.707642   -1.713904   -0.246725
 C    0.590902    0.462296   -1.327380
 C   -0.098317   -0.535426   -2.222945
 C   -0.024288   -1.881148   -1.557615
 C    0.722318   -1.636388   -2.842260
 C    0.132194   -2.270419   -4.086110
 C    2.231176   -1.572432   -2.886662
 C   -0.400472    1.529059   -0.817808
 O   -1.614683    1.349426   -0.859144
 N    0.213599    2.628674   -0.392673
 C   -0.346567    3.922783   -0.032360
 C   -0.412862    4.823163   -1.276625
 C    0.948119    5.009273   -1.902897
 C    1.290427    6.299230   -2.584392
 C    1.927047    5.953625   -1.272610
 O   -2.802280    3.623959   -0.203619
 C   -1.725415    3.855130    0.658628
 O   -0.649749    2.586871    2.417671
 N   -2.862029    2.271872    2.055476
 C   -3.081979    1.298030    3.091048
 C   -3.855849    0.076557    2.607179
 O   -4.640667   -0.509309    3.326071
 C   -1.669564    2.834221    1.805486
 N   -3.633854   -0.260307    1.323057
 C   -4.237304   -1.453743    0.769527
 C   -4.730604   -1.185874   -0.630186
 C   -3.807566   -0.997385   -1.651145
 C   -6.087144   -1.096031   -0.912160
 C   -4.236651   -0.734993   -2.939390
 C   -6.514604   -0.833576   -2.202231
 C   -5.590798   -0.656401   -3.218253
 C   -3.204010   -2.590051    0.791958
 O   -2.040675   -2.368398    1.081865
 N   -3.647988   -3.820718    0.469967
 C   -2.702397   -4.913350    0.397440
 C   -5.015909   -4.138778    0.136882
 H    8.071302    0.135909   -0.876147
 H    8.938835   -1.361082   -1.251109
 H    8.592388   -0.928494    0.430086
 H    7.428610   -3.141970    0.795971
 H    7.773625   -3.602043   -0.878248
 H    6.109691   -3.630341   -0.276208
 H    6.135321   -0.537175   -2.358353
 H    7.008564   -2.016125   -2.787023
 H    5.366403   -2.114063   -2.134827
 H    4.635354    0.285699    1.650229
 H    2.472511   -1.698359    1.480508
 H    0.524719   -0.088682    4.190139
 H    0.415337    0.625618    2.588487
 H    0.383874   -1.136628    2.780434
 H    3.986240   -1.379126    3.888321
 H    2.719425   -0.970721    5.049454
 H    2.447827   -2.243680    3.858230
 H    2.426203    1.502213    4.324705
 H    3.968258    1.127239    3.561799
 H    2.659923    1.864619    2.619817
 H    0.018028   -1.907791    0.578953
 H    1.567265   -2.387333   -0.183818
 H    1.411442    0.989013   -1.835282
 H   -0.987846   -0.180827   -2.722414
 H   -0.859772   -2.565597   -1.550921
 H    0.494237   -3.291117   -4.197072
 H   -0.953824   -2.295067   -4.035182
 H    0.423618   -1.708229   -4.971968
 H    2.553303   -0.906607   -3.686982
 H    2.631134   -2.564403   -3.089815
 H    2.665884   -1.228370   -1.954807
 H    1.218664    2.526820   -0.239720
 H    0.350147    4.352924    0.693181
 H   -1.101963    4.377519   -1.997750
 H   -0.820055    5.790085   -0.978228
 H    1.355348    4.106110   -2.340787
 H    0.545577    7.080259   -2.596771
 H    1.896748    6.266620   -3.476690
 H    1.610568    6.501761   -0.398317
 H    2.971597    5.683880   -1.259734
 H   -2.610922    2.765066   -0.644931
 H   -1.910120    4.839303    1.109947
 H   -3.642900    2.571280    1.486407
 H   -3.634076    1.731691    3.932855
 H   -2.098193    0.979268    3.452440
 H   -2.883100    0.166025    0.796214
 H   -5.066117   -1.701141    1.443237
 H   -2.754867   -1.044527   -1.424217
 H   -6.810295   -1.227753   -0.120173
 H   -3.514526   -0.588068   -3.729257
 H   -7.571344   -0.764841   -2.414103
 H   -5.926026   -0.452067   -4.224244
 H   -2.673470   -5.323102   -0.614633
 H   -2.979950   -5.703622    1.097241
 H   -1.718876   -4.530559    0.662067
 H   -5.709716   -3.657995    0.824968
 H   -5.149159   -5.216214    0.216931
 H   -5.263154   -3.829919   -0.882565
