56 
2fm5_ligand_xtb.xyz
 F   -6.165900   -1.826084   -1.256261
 F   -8.078182   -0.841930   -1.072453
 C   -6.820633   -0.839383   -0.597774
 O   -6.305978    0.381452   -0.878609
 C   -3.226930   -1.380944    3.016103
 C   -4.292099   -2.435575    2.942852
 C   -3.764485   -1.824169    1.686337
 O   -4.647027   -0.991565    0.983722
 C   -4.946937    0.621860   -0.736811
 C   -4.106648   -0.035316    0.172712
 C   -2.765594    0.325930    0.220859
 C   -2.251294    1.313019   -0.604753
 C   -3.095448    1.963941   -1.491969
 C   -4.431042    1.615144   -1.553985
 C   -0.802428    1.724766   -0.505405
 C    0.158494    0.592010   -0.384857
 C    1.212969   -1.108333    0.520567
 N    0.082499   -0.377570    0.457909
 S    1.687942    0.666802   -1.239084
 C    2.222536   -0.678507   -0.290972
 C    3.664028   -1.095087   -0.370398
 O    4.536962   -0.019046   -0.384388
 C    3.896834   -1.851934   -1.702718
 F    5.094310   -2.419297   -1.782950
 F    2.986064   -2.820979   -1.876722
 F    3.774113   -1.026207   -2.742724
 C    4.009089   -2.041555    0.808703
 F    5.306920   -2.314886    0.865566
 F    3.357340   -3.211249    0.745231
 F    3.674375   -1.484233    1.978817
 C   -0.609470    2.643323    0.743221
 C    0.807847    3.124530    0.787275
 C    1.206837    4.306431    0.171308
 C    2.559548    4.604231    0.110644
 C    1.784905    2.305410    1.322901
 C    3.487298    3.712714    0.597685
 O    3.954279    1.694310    1.546009
 N    3.098989    2.559903    1.176513
 H   -6.854320   -1.113456    0.469931
 H   -2.222216   -1.670274    3.281333
 H   -3.516978   -0.403397    3.369634
 H   -5.290575   -2.159976    3.243280
 H   -4.031871   -3.459628    3.157367
 H   -3.127807   -2.414962    1.034631
 H   -2.104656   -0.174713    0.907356
 H   -2.715820    2.735736   -2.143580
 H   -5.103190    2.101452   -2.241707
 H   -0.534500    2.303209   -1.394738
 H    1.251908   -1.939642    1.199404
 H    4.411021    0.573686    0.415332
 H   -1.302241    3.480230    0.660099
 H   -0.852407    2.063387    1.632725
 H    0.475988    4.973497   -0.256343
 H    2.902145    5.518372   -0.346554
 H    1.553579    1.387318    1.842603
 H    4.552937    3.861553    0.524048
