33 
2fqx_ligand_xtb.xyz
 O    2.109833   -1.444705    1.714923
 C    3.274364   -1.592322    0.932037
 C    3.304276   -0.514840   -0.157952
 O    2.305525   -0.756917   -1.143075
 C    3.036256    0.896978    0.382855
 O    3.693707    1.850071   -0.402507
 C    1.510551    1.005649    0.252564
 O    1.103057    2.325456    0.043000
 C    1.210703    0.083412   -0.955814
 N   -0.001836   -0.667477   -0.720354
 C   -0.218172   -2.017389   -0.776820
 N   -1.436866   -2.353210   -0.492133
 C   -2.087770   -1.178523   -0.227541
 C   -3.445914   -0.912871    0.144022
 O   -4.389257   -1.642750    0.325239
 N   -3.629076    0.490144    0.305475
 C   -2.683308    1.455081    0.157900
 N   -3.039969    2.735342    0.433051
 N   -1.448749    1.204647   -0.184768
 C   -1.191699   -0.117468   -0.365462
 H    2.023596   -2.207641    2.296610
 H    3.290477   -2.571093    0.437544
 H    4.174352   -1.490323    1.554189
 H    4.270874   -0.548588   -0.668994
 H    3.351828    0.985138    1.430810
 H    3.106597    2.617769   -0.460271
 H    1.041530    0.578078    1.147633
 H    0.132549    2.285450   -0.062869
 H    1.062314    0.694405   -1.863509
 H    0.564023   -2.698323   -1.041423
 H   -4.565111    0.754889    0.588861
 H   -4.012967    2.984967    0.455517
 H   -2.383233    3.453671    0.181639
