42 
2fr8_ligand_xtb.xyz
 O    0.688535   -2.496462   -0.426820
 P    2.091367   -1.942245    0.079217
 O    2.325576   -2.169809    1.504106
 O    3.140370   -2.642611   -0.884915
 O    2.020566   -0.463420   -0.457160
 C    3.191453    0.320560   -0.639259
 C    2.766766    1.794469   -0.655852
 O    1.652635    1.971037   -1.524001
 C    2.352493    2.331960    0.724490
 O    2.754046    3.665514    0.854502
 C    0.822086    2.198467    0.708350
 O    0.233837    3.243215    1.423942
 C    0.490923    2.251688   -0.805899
 N   -0.582798    1.324868   -1.087992
 C   -0.618317    0.189767   -1.827143
 N   -1.741972   -0.467605   -1.726193
 C   -2.507068    0.265520   -0.846657
 C   -3.767646    0.086108   -0.250424
 N   -4.596395   -0.936566   -0.539697
 N   -4.185793    1.004213    0.625323
 C   -3.403228    2.023016    0.924497
 N   -2.195457    2.290971    0.458095
 C   -1.777169    1.385756   -0.429464
 P   -0.565836   -2.175584    0.583551
 O   -0.544865   -0.792393    1.048869
 O   -1.774469   -2.683046   -0.260283
 O   -0.442296   -3.276351    1.696575
 H    3.453400   -3.468772   -0.517373
 H    3.911661    0.137499    0.162255
 H    3.641072    0.052511   -1.599665
 H    3.590998    2.400914   -1.048238
 H    2.791630    1.727525    1.529456
 H    2.033785    4.127963    1.311414
 H    0.524795    1.216635    1.097781
 H   -0.735452    3.134054    1.338870
 H    0.129503    3.260576   -1.073503
 H    0.204930   -0.109766   -2.443253
 H   -4.228013   -1.742527   -1.013305
 H   -5.403013   -1.045683    0.051751
 H   -3.795683    2.721503    1.651085
 H   -1.889892   -2.046808   -1.007051
 H    0.270963   -3.038616    2.297150
