81 
2fs8_ligand_dft.xyz
 C   -0.132847   -1.369923    2.773792
 C   -2.825250   -0.458282    1.564808
 C   -0.625130   -2.762460    3.161876
 C   -1.091425   -0.251147    3.167986
 O   -2.466905   -0.521368    2.851021
 O   -2.029821   -0.275542    0.644696
 C   -4.978225   -0.579843    0.241230
 C   -4.268442   -0.998917   -1.049758
 N   -4.153131   -0.675858    1.442003
 C   -3.653708   -2.396312   -0.971294
 C   -2.623461   -2.730792   -2.066861
 C   -1.827530   -3.992650   -1.680849
 C   -0.741883   -3.473962   -0.718034
 N   -0.641035   -1.997813   -1.000351
 C   -1.486578   -1.715528   -2.199115
 C   -5.621143    0.828447    0.116225
 O   -6.618138    0.711681   -0.861798
 C   -4.597926    1.870360   -0.232031
 N   -4.547024    2.402374   -1.422366
 O   -3.444632    3.238989   -1.348497
 C   -2.941575    3.110322   -0.118289
 C   -1.635128    3.770951    0.170645
 C   -0.519584    2.753579   -0.005989
 C    0.344872    2.449945    1.042243
 C    1.313922    1.460814    0.898053
 C    1.419465    0.756319   -0.300060
 C    0.572574    1.079863   -1.363641
 C   -0.380544    2.075084   -1.220453
 C    2.370873   -0.383167   -0.473775
 O    2.022796   -1.411307   -1.081087
 N    3.588848   -0.253474    0.068113
 C    4.631920   -1.270472   -0.074284
 C    5.644148   -1.114429    1.077440
 C    6.615554   -0.092156    0.528649
 C    7.525577    0.708484    1.206390
 C    8.333427    1.576024    0.471716
 C    8.228909    1.636078   -0.917318
 C    7.316460    0.828873   -1.596138
 C    6.511490   -0.033696   -0.863994
 C    5.467044   -1.013324   -1.349392
 N   -3.619900    2.296626    0.630438
 H    0.069815   -1.316621    1.699299
 H    0.821245   -1.160768    3.273311
 H   -1.573397   -3.001302    2.667351
 H    0.107915   -3.525685    2.883965
 H   -0.795198   -2.838999    4.240579
 H   -1.108318   -0.125026    4.252322
 H   -0.804547    0.692215    2.698148
 H   -5.819403   -1.262790    0.405150
 H   -3.504265   -0.255006   -1.276266
 H   -5.013036   -0.946449   -1.848597
 H   -4.644705   -0.744988    2.321766
 H   -4.444842   -3.153731   -1.018444
 H   -3.182084   -2.528677    0.009594
 H   -3.125333   -2.849793   -3.031374
 H   -2.452542   -4.753404   -1.207365
 H   -1.365538   -4.442051   -2.564532
 H   -1.004418   -3.600960    0.333351
 H    0.237348   -3.922390   -0.887290
 H    0.359817   -1.706349   -1.119330
 H   -1.034050   -1.434234   -0.223416
 H   -1.771494   -0.664241   -2.184071
 H   -0.887893   -1.913958   -3.091848
 H   -6.047414    1.094053    1.096193
 H   -6.765438    1.571355   -1.276906
 H   -1.502758    4.618169   -0.509146
 H   -1.650701    4.151873    1.194196
 H    0.250918    2.974175    1.989235
 H    1.957507    1.210884    1.737268
 H    0.678387    0.553497   -2.308104
 H   -1.032495    2.321250   -2.054271
 H    3.881771    0.666387    0.371655
 H    4.130031   -2.237770   -0.086770
 H    5.164627   -0.823234    2.017841
 H    6.148533   -2.072616    1.253583
 H    7.611208    0.662063    2.288651
 H    9.047164    2.212025    0.986087
 H    8.862357    2.318171   -1.475867
 H    7.237070    0.879563   -2.678532
 H    4.851279   -0.647123   -2.175932
 H    5.937038   -1.948637   -1.679681
