76 
2fs8_ligand_xtb.xyz
 C    0.494160   20.670341   73.557713
 C    0.275667   20.449421   70.432277
 C    0.771787   19.434128   73.926060
 C    1.179196   21.358721   72.414355
 O    0.288898   21.483715   71.297382
 O    1.004616   19.490327   70.488324
 C   -1.694308   21.626956   69.513810
 C   -1.203530   23.007492   69.063096
 N   -0.642518   20.634339   69.450461
 C   -0.797043   23.012594   67.592481
 C   -0.278901   24.377145   67.149355
 C   -1.357425   25.479014   67.117339
 C   -1.150443   26.200391   65.775303
 N    0.167776   25.770249   65.341523
 C    0.263331   24.374319   65.714358
 C   -2.323568   21.711497   70.908028
 O   -2.765569   22.727653   71.370662
 C   -2.386206   20.416826   71.628511
 N   -2.505832   20.318269   72.925129
 O   -2.460782   18.995386   73.186251
 C   -2.319493   18.367023   72.013985
 C   -2.253007   16.890077   71.959140
 C   -3.574653   16.350478   71.460163
 C   -4.397077   15.601251   72.288771
 C   -5.605462   15.121957   71.818574
 C   -6.007221   15.375271   70.511815
 C   -5.192232   16.148410   69.689957
 C   -3.987770   16.632535   70.163803
 C   -7.331934   14.835683   70.071567
 O   -8.262405   14.714472   70.844357
 N   -7.387303   14.491978   68.762590
 C   -8.553091   13.933469   68.107936
 C   -9.036941   12.597415   68.709697
 C  -10.493381   12.584629   68.356123
 C  -11.370090   11.520482   68.323405
 C  -12.692559   11.755372   67.970653
 C  -13.123384   13.033667   67.661382
 C  -12.241440   14.105748   67.697679
 C  -10.927170   13.872036   68.044424
 C   -9.794843   14.846512   68.164255
 N   -2.276432   19.199861   71.018821
 H   -0.294522   21.237185   74.033043
 H    0.246397   18.953081   74.733985
 H    1.537491   18.857447   73.432962
 H    2.063293   20.796434   72.097474
 H    1.448498   22.384411   72.676719
 H   -2.498406   21.292641   68.845822
 H   -0.352768   23.287900   69.684095
 H   -2.001625   23.727726   69.242302
 H   -0.769601   19.835772   68.850383
 H   -1.653144   22.731646   66.972928
 H   -0.011925   22.268987   67.437192
 H    0.527781   24.684829   67.818311
 H   -1.237089   26.164413   67.953160
 H   -2.357831   25.051039   67.170743
 H   -1.165837   27.287382   65.874076
 H   -1.942890   25.907997   65.066063
 H    0.317973   25.924862   64.350604
 H   -0.358380   23.714499   65.082525
 H    1.299232   24.037524   65.654552
 H   -2.033228   16.511451   72.956940
 H   -1.452548   16.610653   71.271038
 H   -4.094597   15.392040   73.304186
 H   -6.258271   14.546759   72.457273
 H   -5.506171   16.402803   68.687566
 H   -3.360156   17.244998   69.534005
 H   -6.539213   14.550123   68.224422
 H   -8.279076   13.771721   67.059948
 H   -8.924212   12.630388   69.795787
 H   -8.487234   11.738296   68.325051
 H  -11.036154   10.521887   68.564943
 H  -13.390732   10.931898   67.936417
 H  -14.155068   13.199575   67.387843
 H  -12.580151   15.102748   67.456372
 H   -9.792052   15.608952   67.385319
 H   -9.836204   15.338822   69.138433
