74 
2fs9_ligand_dft.xyz
 N   -0.590440    2.608981    0.159214
 C   -1.119369    3.110237   -1.145605
 C   -3.507856    3.217294   -0.181686
 C   -4.001027    1.914270   -0.814112
 C   -4.946800    1.149008    0.110593
 C   -2.400157    3.920897   -0.973087
 C   -3.139326    0.335528    1.656258
 O   -2.161593    0.455838    0.912494
 N   -4.384709    0.807193    1.416294
 O   -3.081513   -0.246534    2.853563
 C   -1.834383   -0.856523    3.231132
 C   -1.678974   -2.221856    2.590604
 O   -6.563375   -0.525716    0.380984
 C   -4.539834   -1.188953   -0.742815
 N   -4.428084   -2.203787    0.071264
 O   -3.363320   -2.917208   -0.457561
 C   -2.942748   -2.247881   -1.530036
 C   -1.708878   -2.725641   -2.221466
 C   -0.544205   -1.888439   -1.729014
 C    0.208228   -2.294125   -0.628772
 C    1.185571   -1.459898   -0.095962
 C    1.415895   -0.207622   -0.663173
 C    0.684638    0.187357   -1.786087
 C   -0.286765   -0.647501   -2.315452
 C    2.366495    0.772160   -0.057735
 O    2.050042    1.971422    0.049926
 N    3.537125    0.297665    0.381020
 C    4.570197    1.136755    0.990479
 C    5.534693    1.682753   -0.086517
 C    6.539868    0.562097   -0.224304
 C    6.498337   -0.262539    0.903499
 C    5.463627    0.250716    1.881414
 C    7.344053   -1.358885    1.011444
 C    8.236515   -1.623826   -0.027020
 C    8.279054   -0.800800   -1.151852
 C    7.429822    0.300425   -1.257413
 N   -3.632855   -1.175227   -1.771303
 C   -5.567506   -0.117897   -0.524350
 H   -0.615835    3.344036    0.868704
 H    0.418924    2.301181    0.074064
 H   -1.162658    1.805544    0.500656
 H   -1.276253    2.224522   -1.763507
 H   -0.332733    3.713307   -1.604517
 H   -3.166457    3.021140    0.842066
 H   -4.347323    3.913708   -0.077519
 H   -3.170459    1.266526   -1.100074
 H   -4.553615    2.140919   -1.733752
 H   -5.803925    1.795164    0.332468
 H   -2.757042    4.174623   -1.977747
 H   -2.157890    4.873836   -0.485798
 H   -5.076895    0.481370    2.079112
 H   -1.013268   -0.189318    2.957002
 H   -1.894892   -0.924893    4.317994
 H   -1.604679   -2.127198    1.504928
 H   -0.768302   -2.701561    2.964027
 H   -2.532671   -2.860722    2.830932
 H   -6.741541   -1.467829    0.264995
 H   -1.846385   -2.606951   -3.299091
 H   -1.557590   -3.786014   -2.005917
 H    0.013568   -3.257367   -0.165825
 H    1.737354   -1.771429    0.786454
 H    0.893905    1.149094   -2.245722
 H   -0.862477   -0.332620   -3.181241
 H    3.807431   -0.636651    0.101506
 H    4.055434    1.927969    1.535805
 H    6.019114    2.596333    0.281513
 H    5.012845    1.939036   -1.013049
 H    5.935493    0.867270    2.656439
 H    4.896492   -0.533864    2.393402
 H    7.314908   -2.001186    1.887545
 H    8.902494   -2.478553    0.039685
 H    8.978215   -1.021051   -1.952576
 H    7.465126    0.939137   -2.135712
 H   -5.992603    0.153646   -1.501712
