71 
2fs9_ligand_xtb.xyz
 N   68.362599   47.633711   85.995430
 C   67.933437   46.366624   85.425815
 C   66.224136   44.511987   85.637117
 C   64.953616   44.044826   86.341483
 C   64.490700   42.680104   85.834905
 C   66.657907   45.892788   86.119537
 C   64.230242   41.677815   83.626749
 O   64.853165   40.679271   83.891967
 N   64.090354   42.747013   84.450854
 O   63.612830   41.903704   82.451568
 C   63.744205   40.866385   81.479076
 C   62.830391   41.187542   80.311300
 O   63.202922   42.454873   87.865882
 C   62.671707   40.960924   86.107990
 N   62.711042   39.733780   86.543106
 O   61.980888   39.021007   85.651631
 C   61.537208   39.879558   84.734220
 C   60.645287   39.427003   83.642976
 C   59.217214   39.539318   84.129870
 C   58.433880   38.410034   84.317881
 C   57.135448   38.534819   84.775506
 C   56.609832   39.785678   85.079110
 C   57.395965   40.917720   84.886493
 C   58.688004   40.792774   84.412430
 C   55.195954   39.855306   85.560417
 O   54.340095   39.086792   85.169176
 N   54.956027   40.833257   86.465433
 C   53.663275   41.054358   87.060966
 C   53.652989   40.826718   88.587583
 C   52.649324   41.822880   89.085449
 C   52.365182   42.769705   88.104786
 C   53.152815   42.496620   86.858533
 C   51.471044   43.791452   88.352354
 C   50.857484   43.856166   89.595686
 C   51.140023   42.914916   90.570807
 C   52.041800   41.889325   90.322927
 N   61.933716   41.096329   84.968257
 C   63.407494   42.084631   86.742968
 H   67.659057   48.347242   85.834413
 H   69.224663   47.945344   85.562238
 H   68.733421   45.641747   85.601287
 H   67.757342   46.414600   84.336419
 H   66.051298   44.538381   84.558998
 H   67.025383   43.795019   85.825869
 H   64.152005   44.770039   86.184077
 H   65.126390   43.970175   87.415470
 H   65.321224   41.957837   85.875768
 H   65.859715   46.614935   85.931146
 H   66.839093   45.872479   87.194716
 H   63.397183   43.432088   84.192495
 H   63.482971   39.908521   81.943564
 H   64.790492   40.810541   81.158073
 H   62.904858   40.403481   79.563615
 H   63.117171   42.134871   79.863567
 H   61.799351   41.263689   80.646712
 H   60.882899   38.394767   83.386964
 H   60.800096   40.076057   82.780124
 H   58.835667   37.431712   84.099577
 H   56.509758   37.665461   84.907551
 H   56.995428   41.903192   85.076445
 H   59.300157   41.670155   84.262876
 H   55.722587   41.390231   86.809847
 H   52.985125   40.346820   86.575293
 H   54.639264   41.045121   89.010156
 H   53.397818   39.800495   88.849223
 H   52.559850   42.600953   85.950597
 H   53.996762   43.190856   86.790261
 H   51.248390   44.525623   87.591892
 H   50.151545   44.646807   89.802823
 H   50.652736   42.977280   91.532569
 H   52.260101   41.154766   91.084137
