59 
2fv5_ligand_dft.xyz
 C    7.153901   -1.075547    0.414361
 C    6.724805   -2.260434    0.955206
 C    5.349012   -2.479692    1.190729
 C    4.427135   -1.511170    0.882368
 C    4.843196   -0.273665    0.329213
 C    6.225602   -0.055526    0.089655
 N    6.719325    1.103434   -0.439852
 C    6.429282    3.333380   -1.321012
 C    5.875233    2.061611   -0.736910
 C    4.472528    1.938233   -0.524709
 C    3.949408    0.790807    0.001972
 C    2.472179    0.673754    0.262318
 C    0.633216   -0.662663   -0.435060
 O    1.949371   -0.350090   -0.565692
 C    0.177354   -1.711433   -1.241384
 C   -1.148554   -2.099932   -1.188319
 C   -2.066091   -1.470718   -0.333665
 C   -1.589320   -0.438723    0.467696
 C   -0.257487   -0.024774    0.422260
 C   -4.153487   -1.739143   -1.731483
 C   -3.528575   -1.939546   -0.333156
 C   -3.649590   -3.363203    0.213818
 C   -4.367631   -0.969294    0.504921
 O   -4.439545   -0.934106    1.728121
 C   -4.588899   -0.271475   -1.724028
 C   -5.577060    1.133443    0.199764
 C   -4.413726    2.067788    0.529556
 N   -3.957681    1.966099    1.803836
 O   -2.702735    2.527192    2.031670
 O   -3.879238    2.819600   -0.279478
 C   -6.563021    1.778508   -0.760528
 N   -4.989491   -0.092338   -0.332496
 H    8.203289   -0.879174    0.221030
 H    7.442409   -3.036518    1.204044
 H    5.019750   -3.423260    1.615229
 H    3.370833   -1.696632    1.045004
 H    5.980059    3.541841   -2.298682
 H    6.210939    4.189247   -0.671868
 H    7.510410    3.243517   -1.438165
 H    3.822855    2.769009   -0.788896
 H    1.974399    1.628100    0.046470
 H    2.292436    0.430164    1.319666
 H    0.882746   -2.203551   -1.902772
 H   -1.475574   -2.916311   -1.827807
 H   -2.242665    0.068808    1.165655
 H    0.050664    0.791937    1.064548
 H   -3.466003   -1.962349   -2.549282
 H   -5.035535   -2.381092   -1.835951
 H   -4.691851   -3.699539    0.197116
 H   -3.052825   -4.060177   -0.382410
 H   -3.293852   -3.395493    1.246880
 H   -3.766382    0.408799   -1.980037
 H   -5.425956   -0.077390   -2.398512
 H   -6.081926    0.849084    1.127688
 H   -4.064060    1.073820    2.283462
 H   -2.533663    2.970752    1.174294
 H   -6.050722    2.172499   -1.641660
 H   -7.321830    1.054222   -1.069662
 H   -7.062308    2.615021   -0.264252
