50 
2fvc_ligand_xtb.xyz
 C    3.087528    0.847721   -0.783754
 C    3.547137    1.925977   -1.550960
 C    4.872006    2.304880   -1.498997
 C    5.777083    1.624678   -0.691840
 C    5.344792    0.549098    0.064466
 C    4.016644    0.178193    0.015755
 S    3.437903   -1.233217    0.900586
 N    1.809532   -0.783178    1.075795
 C    1.177130   -0.221392   -0.006847
 N    1.758247    0.526934   -0.863907
 C   -0.269336   -0.441889   -0.167373
 C   -0.834220   -1.669916    0.035533
 C   -2.223939   -1.884177   -0.271705
 C   -2.983148   -0.786971   -0.741034
 N   -2.418120    0.456016   -0.823923
 C   -1.065635    0.706704   -0.578683
 C   -2.833922   -3.141344   -0.147070
 C   -4.148204   -3.335300   -0.494574
 C   -4.884435   -2.265916   -0.994020
 C   -4.317407   -1.018946   -1.112396
 O   -0.065710   -2.679266    0.496282
 O   -0.628183    1.834241   -0.680481
 C   -3.226987    1.621641   -1.150451
 C   -4.153595    2.033217   -0.002666
 C   -3.422923    2.394969    1.296167
 C   -4.448340    2.580870    2.414057
 O    3.985617   -1.331001    2.218502
 O    3.496765   -2.403103    0.073368
 C   -2.576503    3.655438    1.141420
 H    2.830293    2.446895   -2.164531
 H    5.211927    3.140723   -2.092649
 H    6.811157    1.930562   -0.656333
 H    6.014980   -0.005349    0.702813
 H    1.264159   -1.365679    1.691422
 H   -2.274464   -3.987022    0.230949
 H   -4.601579   -4.308279   -0.390353
 H   -5.911583   -2.413635   -1.290630
 H   -4.918141   -0.219971   -1.510882
 H   -0.511574   -3.530949    0.404394
 H   -3.802852    1.427080   -2.058332
 H   -2.520941    2.426323   -1.360971
 H   -4.852761    1.221793    0.212272
 H   -4.734701    2.895388   -0.336892
 H   -2.762374    1.563787    1.569163
 H   -5.125151    3.398137    2.173520
 H   -5.037683    1.677102    2.557005
 H   -3.950368    2.814640    3.351740
 H   -1.747625    3.485133    0.460628
 H   -3.182607    4.478050    0.767014
 H   -2.162441    3.946148    2.103987
