21 
2fw6_ligand_xtb.xyz
 C   -1.275147   -1.412970   -0.184203
 O   -2.390634   -1.314606   -0.877224
 O   -1.264533   -1.900417    0.923255
 C    0.024221   -0.943526   -0.823095
 C    0.792919    0.046975    0.087598
 O    0.727049   -0.277050    1.459339
 C    0.285908    1.490958   -0.140633
 C   -1.221504    1.502909    0.020789
 O   -1.973109    1.443920   -0.914458
 O   -1.663317    1.500780    1.276218
 C    2.293202    0.009072   -0.344350
 O    2.638120    0.289459   -1.454622
 O    3.104520   -0.365670    0.624764
 H   -2.349938   -0.696606   -1.623880
 H   -0.129753   -0.482324   -1.797960
 H    0.639174   -1.839255   -0.959185
 H    0.074514   -1.000074    1.591360
 H    0.554704    1.802563   -1.150093
 H    0.765373    2.152604    0.583470
 H   -0.948492    1.412907    1.925529
 H    2.572054   -0.521660    1.435945
