21 
2fwp_ligand_xtb.xyz
 C    1.217900   -1.737864   -0.407199
 O    0.374699   -2.616730    0.133856
 O    2.401074   -1.906933   -0.399236
 C    0.557240   -0.496378   -1.014211
 C    0.195684    0.529110    0.102702
 O    0.398861    0.022796    1.403197
 C   -1.236954    1.065735   -0.074094
 C   -2.283391   -0.021278    0.033897
 O   -2.023980   -1.169482    0.297356
 O   -3.538926    0.360995   -0.167291
 C    1.172594    1.728438   -0.050553
 O    0.996439    2.570130   -0.885222
 O    2.184038    1.719747    0.789311
 H   -0.561549   -2.337306    0.096678
 H   -0.334140   -0.795709   -1.566865
 H    1.261564   -0.042479   -1.712852
 H   -0.197384   -0.720855    1.566162
 H   -1.300474    1.574290   -1.039552
 H   -1.430531    1.806984    0.708778
 H   -3.631359    1.302086   -0.371264
 H    2.117784    0.962235    1.399899
