118 
2fxu_ligand_xtb.xyz
 O   -0.872573   -3.535827    0.809201
 C   -1.807787   -3.151166    0.127442
 C   -3.189866   -2.887101    0.722857
 C   -3.463264   -3.818738    1.899271
 C   -3.253615   -1.406488    1.145778
 O   -4.549684   -1.128508    1.616104
 C   -2.190114   -1.038839    2.198973
 N   -1.717327    0.321032    2.016912
 C   -2.528782    1.383514    2.149366
 O   -3.675704    1.311158    2.564763
 C   -1.909981    2.694730    1.706350
 C   -2.349016    2.920621    0.252978
 C   -1.838347    4.244302   -0.342261
 C   -0.324454    4.396320   -0.204142
 C   -2.286794    4.293655   -1.808470
 C   -1.798620    3.055833   -2.555418
 O   -1.898983    1.793504   -0.482183
 C   -2.261934    1.774896   -1.851591
 C   -3.761587    1.484509   -2.063436
 C   -4.068480   -0.001446   -2.028266
 O   -3.308380   -0.807333   -2.538969
 C   -5.333790   -0.441631   -1.442596
 C   -6.020332    0.153044   -0.465973
 C   -7.255320   -0.406560    0.133233
 N   -1.705866   -2.909134   -1.189067
 C   -0.442987   -2.947213   -1.895687
 C   -0.100185   -1.572221   -2.464707
 C    1.271243   -1.527592   -3.139622
 C    2.429434   -1.325102   -2.159956
 C    3.748159   -0.944631   -2.860370
 C    3.645879    0.382336   -3.608422
 C    4.833816   -0.836681   -1.787138
 C    4.922647   -2.125950   -0.982138
 C    3.544257   -2.474716   -0.394653
 O    2.583435   -2.537925   -1.428368
 C    3.594350   -3.859048    0.277182
 C    2.398146   -4.115405    1.191129
 C    2.194568   -2.930661    2.131125
 C    2.044804   -1.680454    1.268831
 O    3.241314   -1.457172    0.526586
 C    1.746581   -0.394017    2.040745
 C    2.909229    0.064414    2.923472
 C    2.922445    1.589192    3.136775
 C    1.727947    2.049122    3.971070
 C    2.953209    2.297852    1.811436
 C    3.993927    2.382603    0.991856
 C    5.355501    1.829848    1.285184
 C    3.862689    3.086669   -0.343173
 C    4.095663    4.591737   -0.172278
 O    2.580387    2.832399   -0.891220
 H   -3.956865   -3.029208   -0.043473
 H   -4.347625   -3.483108    2.433137
 H   -3.625026   -4.832648    1.542026
 H   -2.611031   -3.826656    2.573197
 H   -3.049461   -0.790979    0.249071
 H   -4.503044   -0.261555    2.065315
 H   -1.333160   -1.707571    2.130794
 H   -2.636937   -1.123106    3.193903
 H   -0.886455    0.439614    1.457912
 H   -2.287567    3.508083    2.324883
 H   -0.825168    2.646911    1.765362
 H   -3.451141    2.954044    0.248985
 H   -2.326431    5.063175    0.197937
 H   -0.059147    4.659394    0.816885
 H    0.186178    3.473133   -0.466111
 H    0.030965    5.191765   -0.856189
 H   -1.897597    5.195006   -2.286424
 H   -3.377921    4.341907   -1.850349
 H   -2.158976    3.060792   -3.584761
 H   -0.708115    3.057075   -2.580371
 H   -1.706195    0.921680   -2.259604
 H   -4.378280    2.021611   -1.348021
 H   -4.043206    1.820731   -3.064951
 H   -5.667125   -1.406781   -1.805344
 H   -5.671215    1.072876   -0.016850
 H   -7.011412   -0.788865    1.124345
 H   -7.655465   -1.220275   -0.465637
 H   -8.009771    0.369355    0.251300
 H   -2.468950   -2.463907   -1.683787
 H   -0.508175   -3.677410   -2.709714
 H    0.327117   -3.273139   -1.195857
 H   -0.130650   -0.836548   -1.656932
 H   -0.872162   -1.303029   -3.189388
 H    1.442229   -2.454529   -3.688685
 H    1.278836   -0.700391   -3.847816
 H    2.179685   -0.512447   -1.459909
 H    4.011548   -1.746484   -3.559287
 H    3.036859    0.297990   -4.504359
 H    4.638510    0.712118   -3.909848
 H    3.211644    1.138241   -2.957634
 H    4.572523   -0.018480   -1.113695
 H    5.800617   -0.616620   -2.247169
 H    5.238036   -2.951308   -1.622860
 H    5.635990   -2.018034   -0.164619
 H    4.514502   -3.903451    0.864510
 H    3.642311   -4.612800   -0.508560
 H    1.491350   -4.243267    0.599963
 H    2.565063   -5.033070    1.758628
 H    1.291223   -3.077617    2.721837
 H    3.051244   -2.817814    2.798456
 H    1.217056   -1.863180    0.567459
 H    0.848055   -0.551745    2.638094
 H    1.556631    0.383781    1.298392
 H    3.835403   -0.221776    2.427831
 H    2.868472   -0.436020    3.892890
 H    3.835621    1.833017    3.693883
 H    1.737221    1.564594    4.945003
 H    0.790435    1.802890    3.478725
 H    1.765220    3.125979    4.125274
 H    2.020376    2.739886    1.489973
 H    5.543123    1.798666    2.355129
 H    6.126201    2.435195    0.810591
 H    5.437234    0.814749    0.897443
 H    4.627508    2.685146   -1.029717
 H    5.066835    4.770984    0.280346
 H    3.326300    5.007209    0.474613
 H    4.062010    5.099848   -1.135871
 H    2.462558    3.413479   -1.651061
