38 
2fxv_ligand_dft.xyz
 P    2.106413   -2.060175   -0.061313
 O    1.062248   -1.824756   -1.218408
 O    3.265882   -2.823690   -0.865786
 O    1.648001   -2.760232    1.160802
 O    2.697754   -0.616388    0.305243
 C    3.129631    0.274029   -0.731347
 C    2.310015    1.545792   -0.708118
 O    0.991985    1.272344   -1.204650
 C    2.144593    2.181416    0.687050
 O    2.396094    3.563486    0.568883
 C    0.665954    1.933001    0.986357
 O    0.187715    2.920471    1.863968
 C    0.088076    2.022787   -0.431812
 N   -1.254730    1.532986   -0.584851
 C   -2.347250    2.299025   -0.960865
 N   -3.480347    1.671842   -0.863034
 C   -3.135014    0.418954   -0.402107
 C   -3.968426   -0.704372   -0.057255
 O   -5.169210   -0.849881   -0.110139
 N   -3.156678   -1.770218    0.447065
 C   -1.794454   -1.786054    0.562715
 N   -1.214348   -2.878204    1.086995
 N   -1.043011   -0.758515    0.196598
 C   -1.767320    0.311865   -0.227926
 H    0.310237   -1.277767   -0.857087
 H    3.665702   -3.501449   -0.305071
 H    4.179148    0.511366   -0.536253
 H    3.048676   -0.195971   -1.715383
 H    2.796537    2.281985   -1.360493
 H    2.799628    1.717532    1.434345
 H    1.955195    3.989045    1.318557
 H    0.523725    0.917646    1.373286
 H   -0.676701    2.653207    2.195920
 H    0.073026    3.077895   -0.738383
 H   -2.214609    3.319949   -1.294373
 H   -3.696051   -2.564567    0.767138
 H   -1.721961   -3.742463    1.176902
 H   -0.193537   -2.898491    1.181732
