38 
2fxv_ligand_xtb.xyz
 P    2.008625   -2.081565   -0.088450
 O    0.952548   -1.741092   -1.206336
 O    3.137133   -2.844989   -0.913745
 O    1.494160   -2.828619    1.067736
 O    2.720724   -0.725766    0.341673
 C    3.179130    0.150527   -0.674155
 C    2.359027    1.437262   -0.678948
 O    1.055109    1.177721   -1.186271
 C    2.192034    2.060962    0.724862
 O    2.632360    3.388888    0.692492
 C    0.674568    1.969825    0.966449
 O    0.245757    3.042880    1.757886
 C    0.152256    1.999146   -0.489972
 N   -1.195017    1.549834   -0.628960
 C   -2.265640    2.307173   -1.056675
 N   -3.400840    1.704420   -0.941023
 C   -3.110945    0.472609   -0.416909
 C   -3.969595   -0.613268   -0.039867
 O   -5.166509   -0.745076   -0.108047
 N   -3.191758   -1.664644    0.512972
 C   -1.835204   -1.701353    0.643975
 N   -1.273128   -2.776737    1.198484
 N   -1.061842   -0.703259    0.266030
 C   -1.734041    0.361814   -0.224583
 H    0.216697   -1.230818   -0.796735
 H    3.047227   -3.789059   -0.798378
 H    4.223681    0.387310   -0.458206
 H    3.099620   -0.326563   -1.652439
 H    2.858351    2.177181   -1.320936
 H    2.746362    1.487744    1.478399
 H    2.138448    3.874619    1.367945
 H    0.424214    0.996451    1.407144
 H   -0.693070    2.949135    1.949584
 H    0.198192    3.036739   -0.866727
 H   -2.138584    3.301412   -1.435585
 H   -3.734334   -2.463085    0.821117
 H   -1.824765   -3.580057    1.437310
 H   -0.253121   -2.824598    1.253564
