32 
2fzc_ligand_xtb.xyz
 O    1.661775   -1.066570   -1.269648
 P    2.691443   -0.292578   -0.360597
 O    3.897974   -1.308202   -0.087137
 O    3.156036    0.952792   -0.973959
 C    1.922843   -0.049026    1.301846
 C    0.779491    0.933432    1.273755
 O   -0.209930    0.799302    1.987408
 N    0.921470    1.966806    0.437583
 C   -0.074776    3.005458    0.312801
 C   -1.046160    2.791340   -0.870487
 N   -2.222298    2.023219   -0.530654
 C   -2.452975    0.700766   -0.640651
 O   -3.541439    0.222045   -0.372133
 C   -1.329209   -0.194632   -1.071155
 P   -1.377871   -1.649148    0.071122
 O   -2.593207   -2.527815   -0.401293
 O   -1.828356   -1.189779    1.509848
 O   -0.098991   -2.397957    0.050737
 H    1.044570   -1.704433   -0.810799
 H    3.622017   -2.214627    0.054635
 H    2.710169    0.349925    1.944035
 H    1.572959   -0.990287    1.726124
 H    1.742241    1.991091   -0.161828
 H    0.444972    3.955765    0.179451
 H   -0.645241    3.030374    1.245505
 H   -0.514044    2.314398   -1.696044
 H   -1.389010    3.770246   -1.214049
 H   -2.992482    2.539638   -0.126936
 H   -0.351764    0.272529   -1.065627
 H   -1.524287   -0.588613   -2.069228
 H   -3.408492   -2.018304   -0.312947
 H   -1.255582   -0.506548    1.914091
