32 
2fzc_ligand_dft.xyz
 O    1.653869   -0.279499   -1.238896
 P    2.783396   -0.001689   -0.128837
 O    2.618065   -1.147144    0.970435
 O    4.170192    0.181997   -0.582280
 C    2.148897    1.556749    0.626181
 C    0.654080    1.750803    0.649735
 O   -0.102906    1.113410    1.390664
 N    0.160151    2.700378   -0.175188
 C   -1.209204    3.187080   -0.101588
 C   -2.263659    2.385425   -0.889731
 N   -2.934921    1.348289   -0.130280
 C   -2.645224    0.032428   -0.030408
 O   -3.293770   -0.694515    0.723834
 C   -1.545574   -0.532963   -0.905612
 P   -0.755416   -2.005686   -0.173118
 O   -1.948210   -2.988557    0.180036
 O   -0.131232   -1.519416    1.233596
 O    0.276108   -2.585770   -1.070813
 H    1.401803   -1.231779   -1.354704
 H    1.705762   -1.474176    1.111267
 H    2.658018    2.372381    0.105895
 H    2.502245    1.554483    1.661774
 H    0.807502    3.201093   -0.764277
 H   -1.194047    4.211400   -0.483993
 H   -1.504804    3.226665    0.951254
 H   -1.818183    1.956885   -1.790295
 H   -3.038796    3.080561   -1.228010
 H   -3.663035    1.638697    0.509767
 H   -0.758458    0.181158   -1.152426
 H   -1.987587   -0.874958   -1.849320
 H   -2.668455   -2.444528    0.578983
 H   -0.211094   -0.549104    1.427614
