41 
2g0g_ligand_xtb.xyz
 C   -3.416843    0.404800   -0.701584
 C   -3.906654   -0.086471   -1.899081
 F   -4.273876    0.777617   -2.858980
 C   -4.024402   -1.447056   -2.135833
 C   -3.650051   -2.338054   -1.144400
 C   -3.156829   -1.868729    0.063973
 C   -3.044052   -0.508197    0.263947
 S   -2.374200    0.129328    1.791982
 O   -2.054444   -0.953416    2.668272
 O   -3.176875    1.207105    2.276537
 N   -0.991905    0.884316    1.195653
 C    0.094591    0.142589    0.768826
 C    0.273652   -1.217853    0.758538
 C    1.568660   -1.405510    0.213892
 C    2.255058   -2.645089   -0.007981
 C    1.810969   -3.916691    0.238304
 C    2.758227   -4.902354   -0.097491
 C    3.907703   -4.372557   -0.593552
 S    3.860328   -2.656225   -0.662771
 N    2.119997   -0.240460   -0.081105
 N    1.222151    0.704421    0.236892
 C    1.532725    2.050356    0.019119
 C    2.871077    2.435372    0.082596
 C    3.226542    3.750563   -0.137548
 C    2.233321    4.673089   -0.419883
 F    2.571918    5.960828   -0.624785
 C    0.902362    4.307282   -0.509930
 C    0.551468    2.986555   -0.297446
 H   -3.341295    1.463066   -0.514300
 H   -4.409291   -1.789378   -3.083486
 H   -3.743341   -3.399018   -1.315323
 H   -2.867540   -2.537387    0.858433
 H   -0.796949    1.781777    1.612705
 H   -0.398994   -1.957379    1.131857
 H    0.841827   -4.133152    0.649609
 H    2.591518   -5.957550    0.026115
 H    4.786328   -4.889555   -0.924386
 H    3.614380    1.684020    0.294172
 H    4.255845    4.067765   -0.091116
 H    0.158111    5.047976   -0.755175
 H   -0.477309    2.683444   -0.407956
