41 
2g0g_ligand_dft.xyz
 C   -3.248565   -1.644590   -0.384935
 C   -3.644649   -1.361053   -1.682477
 F   -4.921349   -1.032197   -1.909931
 C   -2.757792   -1.396814   -2.750245
 C   -1.431114   -1.745220   -2.513497
 C   -0.996217   -2.047280   -1.226082
 C   -1.914356   -1.982842   -0.180178
 S   -1.343009   -2.201390    1.494263
 O   -0.308814   -3.214013    1.486034
 O   -2.497845   -2.254401    2.368795
 N   -0.596424   -0.740955    1.873058
 C    0.552185   -0.324773    1.194832
 C    1.781112   -0.928488    1.083396
 C    2.545634   -0.022476    0.311078
 C    3.931201   -0.166171   -0.114644
 C    4.775132   -1.219630    0.113822
 C    6.068778   -1.027616   -0.448987
 C    6.182322    0.167825   -1.094736
 S    4.720530    1.078503   -1.029539
 N    1.845567    1.060718   -0.011302
 N    0.614528    0.853707    0.502714
 C   -0.379921    1.864410    0.404821
 C   -0.114624    3.135438    0.911104
 C   -1.080375    4.128606    0.819447
 C   -2.301747    3.823431    0.233089
 F   -3.237864    4.776733    0.155833
 C   -2.579891    2.565865   -0.280998
 C   -1.600081    1.582827   -0.204655
 H   -3.953844   -1.604341    0.437233
 H   -3.113837   -1.159155   -3.746440
 H   -0.730073   -1.781054   -3.340495
 H    0.034417   -2.322890   -1.033925
 H   -1.266555   -0.023982    2.131388
 H    2.068763   -1.874321    1.513846
 H    4.481415   -2.105032    0.666205
 H    6.874164   -1.748527   -0.374004
 H    7.046741    0.567281   -1.607295
 H    0.850827    3.336362    1.362117
 H   -0.902649    5.127754    1.200445
 H   -3.538801    2.371453   -0.747912
 H   -1.772605    0.606150   -0.640716
