40 
2g6p_ligand_xtb.xyz
 N   -2.752269    1.632631    0.232182
 N    0.125352   -0.041347   -1.015545
 N   -0.068329    2.043284    0.067720
 N    2.179840   -1.023740   -1.403022
 C   -4.063113    1.501499    0.235377
 C   -4.745228    0.563152   -0.527403
 C   -4.002359   -0.279309   -1.340714
 C   -2.625931   -0.151219   -1.350312
 C   -2.038327    0.822750   -0.541088
 C   -0.574762    0.961499   -0.498514
 C    1.451604    0.008875   -0.922667
 C    1.254697    2.158095    0.128954
 C    2.063679    1.148803   -0.362793
 C    1.591450   -2.323776   -1.604992
 C    1.506855   -3.132721   -0.294580
 C    0.633978   -2.405594    0.688063
 C   -0.748144   -2.526113    0.621207
 C   -1.562010   -1.766471    1.440081
 C   -1.004360   -0.868556    2.334164
 C    0.371554   -0.757157    2.424128
 C    1.185111   -1.525280    1.609917
 C    1.809071    3.393088    0.758050
Cl    3.793374    1.238503   -0.252889
 H    3.163634   -0.999965   -1.171116
 H   -4.596212    2.183347    0.885961
 H   -5.821567    0.494755   -0.485783
 H   -4.490444   -1.023671   -1.954356
 H   -1.996708   -0.778647   -1.959337
 H    2.192417   -2.862578   -2.341892
 H    0.586694   -2.162751   -1.997141
 H    2.511947   -3.264351    0.112870
 H    1.092645   -4.116051   -0.522002
 H   -1.187795   -3.212601   -0.088337
 H   -2.635994   -1.863308    1.371942
 H   -1.639736   -0.254777    2.954220
 H    0.813023   -0.061465    3.122653
 H    2.260184   -1.428973    1.683905
 H    2.412195    3.944434    0.037943
 H    0.987057    4.014689    1.097523
 H    2.446574    3.132177    1.601443
