40 
2g6p_ligand_dft.xyz
 N   -2.780237    1.726931    0.245780
 N    0.122827    0.070581   -1.050647
 N   -0.070972    2.114841    0.145637
 N    2.170566   -0.931582   -1.460760
 C   -4.103368    1.579688    0.239789
 C   -4.774985    0.622814   -0.516331
 C   -4.018289   -0.228942   -1.313289
 C   -2.637453   -0.091703   -1.314394
 C   -2.059914    0.901479   -0.518432
 C   -0.571113    1.049620   -0.473170
 C    1.452360    0.107497   -0.952735
 C    1.264895    2.207078    0.205922
 C    2.068076    1.212766   -0.331219
 C    1.581548   -2.230430   -1.735277
 C    1.496211   -3.143890   -0.493695
 C    0.639662   -2.537590    0.590588
 C   -0.750314   -2.660809    0.545890
 C   -1.556820   -1.964038    1.437848
 C   -0.981357   -1.129065    2.392470
 C    0.403960   -1.021137    2.466018
 C    1.207101   -1.729226    1.576430
 C    1.834814    3.413312    0.894109
Cl    3.810957    1.281121   -0.197080
 H    3.159007   -0.918878   -1.257285
 H   -4.659273    2.265260    0.876600
 H   -5.857251    0.552580   -0.479207
 H   -4.496051   -0.989885   -1.923578
 H   -1.999699   -0.737339   -1.904956
 H    2.185009   -2.714309   -2.510029
 H    0.583475   -2.061366   -2.143067
 H    2.509988   -3.332198   -0.118544
 H    1.089322   -4.110816   -0.814334
 H   -1.206784   -3.283873   -0.220305
 H   -2.637336   -2.049861    1.371466
 H   -1.610455   -0.560006    3.069582
 H    0.861042   -0.374788    3.209385
 H    2.288639   -1.622623    1.624717
 H    1.013173    4.051349    1.221223
 H    2.434527    3.120802    1.762866
 H    2.491030    3.976955    0.222622
