52 
2g78_ligand_xtb.xyz
 C    4.724970   -0.632813   -0.140154
 C    5.916798    0.172363    0.399819
 C    6.014287    1.547237   -0.239754
 C    4.768095    2.339364    0.122347
 C    3.501747    1.555125   -0.102705
 C    3.469256    0.225595   -0.203983
 C    2.169085   -0.507367   -0.437741
 C    1.354642   -0.683399    0.862795
 C   -0.021273   -1.182936    0.552203
 C   -1.082856   -0.361933    0.633337
 C   -2.435378   -0.707130    0.312995
 C   -3.454904    0.167498    0.422185
 C   -4.836085   -0.085309    0.089548
 C   -5.725717    0.924876    0.203652
 C   -7.166035    0.902787   -0.102718
 C    4.537890   -1.838509    0.791571
 C    5.045750   -1.148705   -1.552024
 C    2.295993    2.450566   -0.183718
 C   -0.123980   -2.610039    0.101256
 C   -5.219578   -1.475729   -0.333710
 O   -7.537812    0.245263   -1.229346
 O   -7.991517    1.460965    0.568926
 H    6.836427   -0.391877    0.231429
 H    5.797226    0.300352    1.478357
 H    6.092647    1.454054   -1.323582
 H    6.907056    2.066534    0.115056
 H    4.725657    3.264668   -0.457910
 H    4.813664    2.626644    1.178972
 H    2.360731   -1.488155   -0.869364
 H    1.559506    0.042149   -1.157639
 H    1.301376    0.272782    1.383451
 H    1.867640   -1.393144    1.513379
 H   -0.926838    0.655160    0.970877
 H   -2.613476   -1.711512   -0.040448
 H   -3.236285    1.169851    0.768199
 H   -5.402246    1.864585    0.629934
 H    3.793998   -2.534306    0.414130
 H    5.479921   -2.376643    0.879797
 H    4.241484   -1.510167    1.785324
 H    5.965102   -1.730597   -1.539163
 H    4.248351   -1.785404   -1.927051
 H    5.167277   -0.322438   -2.247234
 H    1.358412    1.911413   -0.246353
 H    2.263555    3.096852    0.693513
 H    2.379725    3.095351   -1.059589
 H   -0.893706   -3.140489    0.659276
 H   -0.380851   -2.662573   -0.957010
 H    0.819646   -3.128611    0.248558
 H   -6.294585   -1.629322   -0.298059
 H   -4.857350   -1.688142   -1.340703
 H   -4.762558   -2.197054    0.340918
 H   -6.773120   -0.089045   -1.714903
