39 
2g96_ligand_dft.xyz
 O    0.741799   -2.586704    1.168912
 P    1.771351   -2.329001    0.007030
 O    1.602890   -3.019019   -1.284897
 O    3.193279   -2.590904    0.717270
 O    1.744788   -0.719111   -0.070373
 C    2.403076   -0.046032   -1.142408
 C    2.026605    1.421509   -1.070049
 O    0.634922    1.564343   -1.368469
 C    2.244570    2.061018    0.307139
 O    2.562008    3.420917    0.113753
 C    0.864017    1.929126    0.945904
 O    0.702824    2.921745    1.932383
 C   -0.049870    2.132912   -0.271772
 N   -1.371324    1.565062   -0.137467
 C   -1.496436    0.218037    0.014647
 C   -2.709299   -0.397078    0.068975
 C   -2.761221   -1.859049    0.185733
 O   -1.789154   -2.581540    0.433031
 N   -3.986766   -2.436318    0.016657
 C   -3.894000    0.460261    0.086431
 C   -3.793998    1.750247   -0.249209
 C   -2.483803    2.289629   -0.763246
 H   -0.211449   -2.568110    0.877620
 H    3.551662   -3.437738    0.420951
 H    2.083117   -0.471831   -2.097725
 H    3.488461   -0.161918   -1.036979
 H    2.608770    1.973474   -1.816120
 H    3.021286    1.543787    0.885351
 H    2.289188    3.880974    0.920855
 H    0.743233    0.923893    1.362528
 H   -0.159806    2.799846    2.345969
 H   -0.179171    3.211938   -0.421160
 H   -0.573307   -0.342596    0.109307
 H   -3.989514   -3.444804   -0.029079
 H   -4.712292   -1.954883   -0.490596
 H   -4.832515    0.063232    0.465152
 H   -4.639746    2.426462   -0.180808
 H   -2.418018    2.200097   -1.861973
 H   -2.378233    3.350687   -0.518826
