39 
2g96_ligand_xtb.xyz
 O   -0.813487   -2.459963    1.350550
 P   -0.236354   -2.553663   -0.098116
 O   -1.074816   -2.103665   -1.214357
 O    0.251922   -4.072458   -0.247070
 O    1.163827   -1.785367    0.077018
 C    1.929553   -1.548769   -1.085910
 C    2.539640   -0.144542   -1.029137
 O    1.556077    0.834603   -1.326422
 C    3.111747    0.202637    0.353360
 O    4.262951    0.984866    0.202054
 C    1.966913    0.998494    1.004719
 O    2.489321    1.915700    1.932764
 C    1.320834    1.682225   -0.220995
 N   -0.081850    1.979962   -0.096679
 C   -0.966470    0.998979    0.190339
 C   -2.314534    1.152504    0.124703
 C   -3.187842    0.040964    0.493247
 O   -2.856470   -0.871177    1.252440
 N   -4.449108    0.081038   -0.002799
 C   -2.833288    2.445141   -0.292293
 C   -2.000284    3.399290   -0.693357
 C   -0.518345    3.185608   -0.799019
 H   -1.598524   -1.855761    1.382823
 H   -0.434198   -4.586780   -0.668906
 H    1.286035   -1.615084   -1.968159
 H    2.724488   -2.297753   -1.149417
 H    3.331688   -0.067603   -1.783239
 H    3.336162   -0.705959    0.926475
 H    4.330382    1.549093    0.984934
 H    1.269315    0.304193    1.482463
 H    1.763481    2.323926    2.414960
 H    1.844715    2.640231   -0.382748
 H   -0.551429    0.052763    0.498717
 H   -5.030165   -0.724144    0.164815
 H   -4.676372    0.672558   -0.781748
 H   -3.893301    2.633528   -0.219973
 H   -2.349614    4.373571   -0.998282
 H   -0.225199    3.121641   -1.860874
 H    0.012407    4.044044   -0.363501
