21 
2g9q_ligand_dft.xyz
 O   -1.691392   -1.663287   -0.011737
 C   -0.861607   -0.703666   -0.614563
 C   -1.342000    0.722727   -0.271949
 O   -0.579252    1.626214   -1.034252
 C   -0.982565    0.821980    1.209419
 N    0.376962    0.172530    1.257648
 C    0.496266   -0.802733    0.086060
 C    1.701043   -0.385290   -0.760631
 O    2.687212    0.023039    0.167975
 H   -2.476569   -1.806469   -0.555122
 H   -0.761549   -0.837021   -1.697560
 H   -2.419303    0.830063   -0.434129
 H   -1.043249    2.468257   -1.115823
 H   -0.913928    1.840614    1.591108
 H   -1.657604    0.224756    1.822459
 H    0.535539   -0.304011    2.146632
 H    1.153314    0.841974    1.157006
 H    0.635516   -1.798603    0.507096
 H    1.424942    0.430683   -1.436992
 H    2.019422   -1.251146   -1.352410
 H    3.465361    0.347354   -0.301705
