43 
2g9u_ligand_dft.xyz
 C   -2.267468    0.494579   -1.639951
 C   -1.632117    1.720954   -1.838417
 C   -1.514833    2.624592   -0.785703
 C   -2.048452    2.303163    0.462356
 C   -2.677951    1.077196    0.659686
 C   -2.791993    0.152493   -0.387131
 C   -3.379366   -1.221116   -0.141096
 C   -2.469877   -2.126055    0.713174
 C   -1.082409   -2.373067    0.121359
 N   -0.177125   -1.166821    0.176430
 C    0.946566   -1.254593   -0.815788
 C    0.326771   -0.879363    1.553833
 C    1.130319    0.413874    1.562742
 O    1.556461    0.589575    2.881395
 C    2.298898    0.324413    0.588127
 O    2.963730    1.567387    0.659191
 C    1.775857    0.028332   -0.824116
 C    2.905556   -0.092137   -1.841429
 O    3.738247   -1.150934   -1.418435
 H   -2.367217   -0.202015   -2.469490
 H   -1.242064    1.973340   -2.819723
 H   -1.027158    3.581649   -0.939137
 H   -1.980293    3.012570    1.281089
 H   -3.097118    0.838711    1.634497
 H   -4.344110   -1.129926    0.368451
 H   -3.577488   -1.713989   -1.099571
 H   -2.389492   -1.731081    1.731887
 H   -2.942088   -3.108718    0.813251
 H   -1.167492   -2.644727   -0.934555
 H   -0.556407   -3.178712    0.640049
 H   -0.757965   -0.365692   -0.109914
 H    0.490165   -1.429148   -1.793538
 H    1.555774   -2.122770   -0.549805
 H   -0.524907   -0.795513    2.229279
 H    0.948816   -1.723392    1.865530
 H    0.477495    1.243205    1.237565
 H    2.176799    1.332813    2.873371
 H    2.958843   -0.491416    0.911861
 H    3.905376    1.430755    0.503836
 H    1.134875    0.865772   -1.134135
 H    2.486567   -0.277563   -2.841732
 H    3.443223    0.865051   -1.880472
 H    4.451226   -1.269286   -2.056690
