23 
2g9v_ligand_xtb.xyz
 O    8.708513   -7.324367   10.832092
 C   10.034219   -7.470493   10.371409
 C   10.724347   -8.622894   11.121998
 O   10.641476   -8.413609   12.510261
 C   12.208768   -8.725238   10.706830
 N   12.508871   -8.058091    9.453563
 C   11.471650   -8.303739    8.473214
 C   10.109682   -7.671009    8.848602
 C    9.889081   -6.321014    8.145047
 O   10.920710   -5.397804    8.386987
 H    8.200264   -8.103688   10.574654
 H   10.520331   -6.525865   10.642184
 H   10.192713   -9.558608   10.864758
 H    9.807618   -7.954199   12.685022
 H   12.815085   -8.289763   11.501068
 H   12.488506   -9.777499   10.602243
 H   12.602024   -7.058901    9.608944
 H   11.368140   -9.388614    8.385190
 H   11.809489   -7.927479    7.502612
 H    9.297378   -8.340091    8.542101
 H    9.761628   -6.487122    7.065765
 H    8.981140   -5.856229    8.537411
 H   11.729369   -5.715684    7.969046
