52 
2gbi_ligand_xtb.xyz
 C   17.071322   40.615115  -80.109236
 C   16.962323   40.208342  -78.794783
 C   15.077880   39.787234  -79.698065
 C   13.156339   39.001063  -78.539668
 C   13.443938   37.267261  -80.846062
 C   13.187613   38.790620  -80.923609
 C   15.563095   40.661797  -82.065733
 C   14.872382   38.622869  -85.173686
 C   15.497629   37.415360  -84.898888
 C   16.153826   37.244557  -83.697684
 C   16.880900   38.008326  -81.553126
 C   19.196613   40.837466  -78.358447
 C   20.554143   41.777780  -80.091781
 N   19.267772   41.240547  -79.682685
 C   18.261713   41.166101  -80.650372
 O   18.438251   41.558171  -81.797221
 N   15.734131   39.713333  -78.544516
 N   13.753086   39.478366  -79.780350
 C   13.385461   37.502022  -78.355292
 C   12.831138   36.732581  -79.551538
 N   12.929719   36.534330  -81.985595
 N   15.839957   40.331360  -80.692735
 C   15.546918   39.495335  -83.022145
 C   14.898782   39.645573  -84.243567
 C   16.187852   38.279708  -82.757443
 N   17.458918   37.689836  -80.614717
 N   17.994260   40.320886  -77.922043
 C   17.854703   39.848436  -76.563321
 O   20.150044   40.951262  -77.617214
 H   13.602150   39.558347  -77.717788
 H   12.085426   39.219390  -78.593199
 H   14.528209   37.102710  -80.815042
 H   13.587493   39.185520  -81.855208
 H   12.106990   38.976450  -80.912542
 H   16.377827   41.329542  -82.380114
 H   14.620313   41.217140  -82.132896
 H   14.361073   38.766498  -86.113407
 H   15.474120   36.612721  -85.619489
 H   16.648227   36.313026  -83.466375
 H   20.474002   42.053345  -81.140771
 H   20.800708   42.648800  -79.485107
 H   21.330130   41.025492  -79.953231
 H   12.904450   37.168434  -77.435642
 H   14.458552   37.328203  -78.267001
 H   11.744631   36.848377  -79.597587
 H   13.051754   35.668981  -79.463453
 H   11.924855   36.652390  -82.060646
 H   13.351996   36.858763  -82.848749
 H   14.408481   40.583351  -84.462193
 H   17.599298   38.789188  -76.570483
 H   18.805010   40.007213  -76.057737
 H   17.060595   40.401480  -76.061818
