53 
2gbi_ligand_dft.xyz
 C   -0.699306    0.807077   -0.638243
 C    0.261068    1.655675   -0.160391
 C    1.278691   -0.128971   -0.749763
 C    3.383767   -0.573957   -1.862788
 C    3.757694   -1.212400    0.972092
 C    2.736624   -1.911117    0.060197
 C   -0.647681   -1.572184   -1.486536
 C   -3.723187   -3.435630   -0.295637
 C   -3.619390   -3.403541    1.092017
 C   -2.542526   -2.759426    1.677845
 C   -0.479034   -1.525512    1.569101
 C   -1.364984    3.337590    0.292143
 C   -3.689979    2.967507   -0.254925
 N   -2.318835    2.452559   -0.233932
 C   -2.089329    1.166808   -0.746215
 O   -2.966389    0.466185   -1.220678
 N    1.492412    1.080516   -0.217848
 N    2.267329   -1.074169   -1.039942
 C    4.447140    0.176546   -1.052593
 C    4.921018   -0.650528    0.151727
 N    3.075252   -0.107089    1.742911
 N   -0.030353   -0.344679   -1.009842
 C   -1.662145   -2.174544   -0.529944
 C   -2.759773   -2.823145   -1.088484
 C   -1.564833   -2.151758    0.874393
 N    0.395192   -1.063309    2.175791
 N   -0.035218    2.905331    0.299290
 C    1.005540    3.789972    0.800601
 O   -1.683903    4.428365    0.712235
 H    2.973406    0.063312   -2.648753
 H    3.830276   -1.449517   -2.349887
 H    4.117491   -1.921204    1.723111
 H    3.241464   -2.781608   -0.373630
 H    1.887261   -2.283052    0.633510
 H   -1.150003   -1.355636   -2.431504
 H    0.172591   -2.268463   -1.684910
 H   -4.569030   -3.925988   -0.765939
 H   -4.375599   -3.870027    1.713477
 H   -2.443662   -2.716310    2.757332
 H   -4.318195    2.209147   -0.716691
 H   -3.726515    3.894937   -0.828197
 H   -4.023522    3.170712    0.764042
 H    5.303624    0.399039   -1.695982
 H    4.038292    1.139840   -0.729154
 H    5.499746   -1.513239   -0.198717
 H    5.597274   -0.066508    0.787087
 H    3.707238    0.324229    2.419844
 H    2.228533   -0.461014    2.229828
 H    2.699534    0.624135    1.090578
 H   -2.875680   -2.830838   -2.167748
 H    1.808750    3.868000    0.064211
 H    1.408276    3.412577    1.745921
 H    0.554082    4.766179    0.967133
