62 
2gcd_ligand_dft.xyz
 C   -2.572977    3.420786   -0.026024
 C   -3.956274    3.400288   -0.005900
 C   -4.641932    2.191322   -0.177537
 C   -3.972395    0.994668   -0.385337
 C   -2.576016    1.015430   -0.438940
 N   -1.639573   -0.020753   -0.626827
 C   -0.364880    0.540392   -0.514664
 C    0.903312   -0.060895   -0.518596
 N    1.246657   -1.393789   -0.675502
 C    2.623138   -1.520384   -0.512430
 C    3.411319   -2.669654   -0.578702
 C    4.775472   -2.514118   -0.368347
 C    5.334964   -1.257669   -0.095213
 C    4.545565   -0.119250   -0.027662
 C    3.168765   -0.249487   -0.236253
 C    2.064764    0.688312   -0.235753
 C    1.929765    2.066150   -0.009289
 C    2.963450    3.095730    0.303856
 N    2.262948    4.264472    0.445745
 C    0.835015    4.144290    0.247822
 C    0.687147    2.671278   -0.033307
 C   -0.471250    1.920729   -0.261689
 C   -1.880086    2.225667   -0.237611
 C   -1.903122   -1.417290   -1.008783
 C   -2.240858   -2.281343    0.246186
 C   -1.012245   -2.705510    1.056169
 C    0.009254   -3.351320    0.137386
 C    0.348820   -2.458454   -1.059033
 O   -0.784444   -1.941474   -1.703644
 O    4.166555    2.958306    0.423179
 N   -0.512299   -1.502326    1.820523
 C    0.585824   -1.756192    2.793559
 O   -3.101174   -1.569426    1.097123
 C   -4.337640   -2.204712    1.395678
 C   -3.030521   -1.524999   -2.035066
 H   -2.034615    4.351916    0.119426
 H   -4.511386    4.318568    0.152306
 H   -5.726719    2.183368   -0.141169
 H   -4.541666    0.081689   -0.479877
 H    2.993163   -3.646984   -0.802003
 H    5.420427   -3.385646   -0.420408
 H    6.405135   -1.174853    0.061555
 H    4.963793    0.860471    0.175831
 H    2.735792    5.136560    0.622414
 H    0.486638    4.754037   -0.595784
 H    0.274960    4.448623    1.142059
 H   -2.707922   -3.206251   -0.115614
 H   -1.328685   -3.407969    1.833689
 H   -0.441242   -4.280541   -0.227259
 H    0.929246   -3.629473    0.659648
 H    0.850418   -3.060825   -1.822068
 H   -1.349211   -1.119001    2.279708
 H   -0.196046   -0.759296    1.177289
 H    0.749512   -0.846316    3.370887
 H    1.493219   -2.001000    2.240530
 H    0.300527   -2.576395    3.453089
 H   -4.916556   -2.380123    0.481601
 H   -4.182768   -3.159070    1.914253
 H   -4.887098   -1.522324    2.043980
 H   -2.965547   -2.512211   -2.496998
 H   -4.017249   -1.417918   -1.587431
 H   -2.906017   -0.764113   -2.807628
