87 
2gde_ligand_xtb.xyz
 C   -6.147570    0.403029   -0.324805
 C   -5.108702    0.806675   -1.365582
 C   -4.345072   -0.396302   -1.924471
 C   -3.814998   -1.344335   -0.841567
 C   -4.766189   -1.562051    0.331345
 C   -5.423115   -0.285265    0.839559
 O   -6.328562   -0.638698    1.856303
 N   -2.514514   -0.770623   -0.474976
 C   -2.014727    0.135617   -1.495116
 C   -3.059186    0.052853   -2.625431
 C   -1.848610    1.585838   -1.015660
 N   -0.899572    2.251960   -1.710376
 C   -0.655065    3.659157   -1.469923
 C    0.127974    3.927160   -0.180303
 C    1.573997    3.555120   -0.220809
 C    2.129367    2.523920   -1.160649
 N    3.528711    2.423380   -0.771836
 C    3.833996    3.317682    0.337195
 C    2.528686    4.004222    0.581989
 C    4.257135    1.344699   -1.047903
 N    5.507043    1.219264   -0.566243
 N    3.894770    0.541543   -2.069352
 O   -2.533263    2.110475   -0.166171
 C   -1.735282   -1.416932    0.412424
 O   -2.056255   -2.465307    0.937788
 C   -0.350280   -0.804297    0.751436
 C   -0.259224   -0.796049    2.278033
 C    1.036450   -0.266950    2.884973
 C    1.280385    1.200732    2.542053
 C    1.010954   -0.477326    4.398129
Cl   -1.667664    0.172561    2.819113
 N    0.631660   -1.679815    0.143735
 C    1.210254   -1.458527   -1.030523
 C    1.855606   -2.695858   -1.668157
 O    1.013139   -3.820392   -1.546779
 C   -0.174971   -3.741996   -2.299182
 C    3.189153   -3.083074   -1.013191
 O    4.031863   -1.987542   -0.852487
 S    3.935131   -1.255693    0.629296
 O    3.147436   -0.055158    0.406386
 O    5.327807   -0.942604    0.876655
 O    3.317832   -2.193407    1.519677
 O    1.125649   -0.403383   -1.662105
 O   -6.829337    1.522924    0.206804
 H   -6.880523   -0.299832   -0.757370
 H   -4.420331    1.493074   -0.873757
 H   -5.592479    1.334421   -2.193764
 H   -4.997633   -0.946903   -2.607298
 H   -3.619750   -2.333079   -1.286745
 H   -4.238325   -2.043788    1.151795
 H   -5.560219   -2.238591    0.008445
 H   -4.664537    0.409553    1.230438
 H   -6.841164    0.153082    2.059748
 H   -1.040161   -0.206441   -1.858408
 H   -3.179003    1.008244   -3.134418
 H   -2.747379   -0.693867   -3.357441
 H   -0.252704    1.734413   -2.282574
 H   -0.142727    4.077678   -2.337228
 H   -1.634307    4.136297   -1.369068
 H    0.039278    4.984287    0.074617
 H   -0.360490    3.362620    0.619494
 H    1.641664    1.553049   -1.024421
 H    2.049238    2.831132   -2.210039
 H    4.629800    4.022369    0.064089
 H    4.141925    2.750087    1.224967
 H    2.420869    4.735098    1.361128
 H    5.765150    1.896996    0.136202
 H    5.711698    0.261887   -0.218974
 H    2.895725    0.377227   -2.165432
 H   -0.221766    0.200926    0.349015
 H   -0.453851   -1.812665    2.634787
 H    1.852261   -0.859541    2.455646
 H    2.085987    1.589667    3.159152
 H    1.585419    1.289461    1.504893
 H    0.387723    1.795661    2.723077
 H    0.852429   -1.525959    4.637675
 H    0.212046    0.108126    4.848561
 H    1.958078   -0.169532    4.832529
 H    0.764935   -2.581930    0.581861
 H    2.022097   -2.448808   -2.731649
 H   -0.676956   -4.697697   -2.166880
 H   -0.831640   -2.939973   -1.943878
 H    0.040718   -3.581794   -3.362227
 H    3.699213   -3.819179   -1.642343
 H    2.985490   -3.520938   -0.031619
 H    4.411495   -0.330123   -2.086349
 H   -7.162058    2.061159   -0.518331
