35 
2gfj_ligand_dft.xyz
 O    1.460290    3.429658   -0.052305
 C    1.804855    2.173036   -0.236860
 O    2.924225    1.848879   -0.551810
 C    0.733323    1.118219   -0.050712
 N    1.072453   -0.194743   -0.056444
 C    2.362496   -0.825491   -0.022122
 C    3.213332   -0.604150    1.053194
 C    4.429741   -1.272196    1.097768
 C    4.779055   -2.159961    0.082343
 C    3.908731   -2.381818   -0.980342
 C    2.690044   -1.713346   -1.036635
 N    0.005886   -1.011039   -0.032033
 C   -0.670500    1.145880    0.008429
 C   -1.530140    2.331645    0.198100
 O   -2.829568    2.146003    0.410937
 O   -1.111777    3.477958    0.199647
 C   -1.055937   -0.222342   -0.007110
 C   -2.402408   -0.837916   -0.008112
 C   -2.732151   -1.794867    0.957488
 C   -3.985270   -2.395058    0.946846
 C   -4.921922   -2.046490   -0.024346
 C   -4.599194   -1.102502   -0.994022
 C   -3.342148   -0.503925   -0.992048
 H    0.482383    3.540632    0.094011
 H    2.928590    0.089835    1.836675
 H    5.105626   -1.099855    1.929085
 H    5.730766   -2.680620    0.121796
 H    4.176883   -3.075175   -1.771052
 H    1.995479   -1.875588   -1.853414
 H   -3.073779    1.205113    0.402799
 H   -1.996192   -2.063167    1.708452
 H   -4.233593   -3.135376    1.700871
 H   -5.901571   -2.514129   -0.026737
 H   -5.319750   -0.837332   -1.761091
 H   -3.080011    0.213852   -1.764958
