35 
2gfj_ligand_xtb.xyz
 O    1.517763    3.374245   -0.076224
 C    1.817562    2.111092   -0.271753
 O    2.908588    1.757497   -0.645831
 C    0.741822    1.092475   -0.044236
 N    1.054986   -0.220880   -0.053878
 C    2.328169   -0.833360   -0.012844
 C    3.221952   -0.523767    1.003076
 C    4.442032   -1.170888    1.048456
 C    4.761539   -2.126952    0.097768
 C    3.856320   -2.444218   -0.900281
 C    2.632318   -1.802197   -0.956859
 N   -0.015393   -0.998793   -0.031234
 C   -0.667166    1.152784    0.007513
 C   -1.499027    2.338327    0.210264
 O   -2.806261    2.161944    0.380976
 O   -1.044338    3.465888    0.275304
 C   -1.075097   -0.211374   -0.005502
 C   -2.413487   -0.809874   -0.007468
 C   -2.713993   -1.811077    0.912702
 C   -3.963463   -2.401991    0.912029
 C   -4.920225   -2.010793   -0.010966
 C   -4.619832   -1.035536   -0.946974
 C   -3.372530   -0.435695   -0.950940
 H    0.548873    3.544437    0.115143
 H    2.965238    0.219417    1.742407
 H    5.144301   -0.929550    1.831536
 H    5.717492   -2.626797    0.137838
 H    4.102505   -3.191321   -1.639386
 H    1.913434   -2.038210   -1.725947
 H   -3.087161    1.232679    0.305522
 H   -1.958699   -2.115526    1.620289
 H   -4.190638   -3.174234    1.631242
 H   -5.895041   -2.474056   -0.008761
 H   -5.354340   -0.743703   -1.682000
 H   -3.130500    0.296240   -1.709812
