60 
2gg8_ligand_dft.xyz
 O    0.847474    1.657905   -0.164445
 C    2.014086    1.783624   -0.514141
 O    2.471989    2.861359   -1.109781
 C    1.535769    3.913734   -1.379852
 C    3.121416    0.770455   -0.255736
 C    3.736532    1.035740    1.125894
 C    4.885171    0.090245    1.515244
 C    5.992536    0.057015    0.460409
 C    5.437695    0.506969    2.881017
 N    2.611927   -0.575419   -0.351390
 C    2.057411   -1.000029   -1.515581
 O    2.004767   -0.300353   -2.513205
 C    1.438273   -2.408477   -1.461637
 C    1.429920   -3.066865   -2.829923
 N    0.066713   -2.253978   -0.962700
 C   -0.207348   -2.042550    0.329962
 O    0.629077   -2.067115    1.233422
 C   -1.658020   -1.696622    0.701887
 O   -1.756087   -1.712720    2.100396
 C   -2.024706   -0.277382    0.194708
 N   -1.295477    0.672826    1.116816
 C   -3.497914    0.043386    0.172210
 C   -4.381664   -0.439544    1.142202
 C   -5.724311   -0.087285    1.094017
 C   -6.222289    0.750727    0.091254
 C   -7.686345    1.097053    0.031272
 C   -5.329119    1.231919   -0.869305
 C   -3.984936    0.882272   -0.833181
 H    2.115838    4.699723   -1.858667
 H    0.755144    3.550633   -2.050747
 H    1.092731    4.274829   -0.449483
 H    3.872130    0.923943   -1.035261
 H    4.107635    2.068097    1.129440
 H    2.942999    0.979734    1.884089
 H    4.480187   -0.926455    1.615674
 H    5.644746   -0.362276   -0.489514
 H    6.827245   -0.561630    0.803613
 H    6.382250    1.064307    0.269163
 H    6.207502   -0.193806    3.217841
 H    5.892782    1.503089    2.828265
 H    4.651328    0.533992    3.643360
 H    2.459489   -1.118137    0.489320
 H    1.973274   -3.027628   -0.736056
 H    0.923230   -4.034699   -2.786718
 H    0.941755   -2.420160   -3.564302
 H    2.455563   -3.228479   -3.168709
 H   -0.675242   -2.210523   -1.648634
 H   -2.356897   -2.410575    0.250048
 H   -0.900840   -2.062960    2.421406
 H   -1.595052   -0.108094   -0.796411
 H   -1.768360    1.578134    1.144185
 H   -1.323701    0.242950    2.053715
 H   -0.313436    0.844189    0.801040
 H   -4.026694   -1.092493    1.933761
 H   -6.401309   -0.472119    1.851538
 H   -8.123039    1.162536    1.031718
 H   -7.851862    2.050251   -0.477900
 H   -8.238684    0.326884   -0.519305
 H   -5.690730    1.882713   -1.660318
 H   -3.312825    1.261104   -1.600648
