59 
2gg8_ligand_xtb.xyz
 O   -5.266021   -5.085671    8.256346
 C   -4.594547   -4.898806    7.279820
 O   -3.580964   -5.675917    6.897818
 C   -3.179526   -6.669491    7.833098
 C   -4.865094   -3.817986    6.220551
 C   -5.959500   -2.860722    6.702091
 C   -6.773572   -2.197427    5.588189
 C   -5.907218   -1.341385    4.665875
 C   -7.868417   -1.338139    6.218605
 N   -3.611359   -3.141275    5.942880
 C   -2.736227   -2.880755    6.927421
 O   -2.886322   -3.265943    8.070519
 C   -1.490518   -2.114737    6.490931
 C   -0.520026   -3.077964    5.795921
 N   -0.894153   -1.546961    7.677458
 C   -0.215923   -0.389938    7.655640
 O    0.062558    0.213454    6.632335
 C    0.200664    0.172451    9.004699
 O    1.295686    1.030481    8.826946
 C   -1.003184    0.973402    9.614794
 N   -0.633018    1.633250   10.850380
 C   -2.204982    0.088940    9.813471
 C   -2.163085   -1.002211   10.676238
 C   -3.270291   -1.808636   10.851757
 C   -4.458649   -1.551055   10.178969
 C   -5.644181   -2.441608   10.369757
 C   -4.499162   -0.459539    9.322502
 C   -3.388963    0.344724    9.136896
 H   -2.408596   -7.257074    7.341593
 H   -2.786445   -6.187601    8.729963
 H   -4.029656   -7.296751    8.107959
 H   -5.178336   -4.339277    5.308743
 H   -6.634027   -3.433198    7.341353
 H   -5.488508   -2.098782    7.324861
 H   -7.251469   -2.981780    4.989660
 H   -5.295256   -0.654788    5.247097
 H   -5.258512   -1.957168    4.046705
 H   -6.536832   -0.755400    3.999892
 H   -7.427248   -0.529108    6.796241
 H   -8.504200   -0.902840    5.451370
 H   -8.490458   -1.934324    6.881472
 H   -3.472099   -2.742429    5.029213
 H   -1.746431   -1.295308    5.808553
 H   -0.973024   -3.504893    4.905191
 H    0.378916   -2.536328    5.513620
 H   -0.250452   -3.883313    6.474820
 H   -1.192517   -1.970922    8.548069
 H    0.501476   -0.624893    9.693341
 H    1.266025    1.307955    7.894648
 H   -1.247370    1.767113    8.896765
 H   -0.463210    0.949595   11.580916
 H    0.229784    2.148214   10.701704
 H   -1.256619   -1.225879   11.222730
 H   -3.215575   -2.654752   11.520825
 H   -5.770481   -2.692306   11.420951
 H   -6.553544   -1.968004   10.007470
 H   -5.494879   -3.371229    9.820511
 H   -5.417098   -0.224194    8.800566
 H   -3.444364    1.189132    8.464294
