65 
2gg9_ligand_xtb.xyz
 O    0.004465   -0.126756    6.425249
 C   -0.521219   -0.458716    7.475806
 C   -0.235391    0.336050    8.741339
 C   -1.404262    1.352412    8.990109
 C   -2.702690    0.640235    9.258269
 C   -2.849043   -0.195584   10.360336
 C   -4.043499   -0.844137   10.605502
 C   -5.133143   -0.678352    9.760629
 C   -6.440086   -1.382451   10.023995
 C   -7.113599   -0.807899   11.272835
 C   -6.229847   -2.892083   10.159682
 C   -4.987945    0.163243    8.666648
 C   -3.791250    0.809085    8.414742
 N   -1.090041    2.271723   10.066053
 O    0.967395    1.036989    8.573010
 N   -1.359001   -1.497593    7.594731
 C   -1.804926   -2.261619    6.451846
 C   -0.945436   -3.517528    6.262128
 C   -3.247459   -2.688412    6.706828
 O   -3.699582   -2.788530    7.829589
 N   -3.958288   -2.940719    5.590953
 C   -5.290971   -3.510557    5.679037
 C   -6.310902   -2.510153    6.230476
 C   -6.751012   -1.410758    5.253510
 C   -7.528380   -1.974644    4.065373
 C   -5.588946   -0.545281    4.770661
 C   -5.171830   -4.780181    6.536182
 O   -4.191034   -5.476302    6.520990
 O   -6.264901   -5.044942    7.241021
 C   -6.205448   -6.199714    8.070988
 H   -0.128386   -0.324927    9.608975
 H   -1.497589    1.957542    8.078962
 H   -2.021669   -0.344285   11.040970
 H   -4.123015   -1.489575   11.466998
 H   -7.101437   -1.203629    9.168555
 H   -6.485481   -0.953800   12.148371
 H   -7.289693    0.258998   11.153037
 H   -8.067989   -1.300499   11.446614
 H   -5.594455   -3.250053    9.354395
 H   -5.752349   -3.132201   11.106330
 H   -7.184802   -3.411500   10.117540
 H   -5.826282    0.322357    8.002115
 H   -3.701468    1.458196    7.555079
 H   -1.055958    1.779378   10.952955
 H   -0.168878    2.666287    9.898935
 H    1.114095    1.079746    7.610902
 H   -1.850190   -1.691029    8.458569
 H   -1.728964   -1.619464    5.566985
 H   -1.288983   -4.092529    5.406593
 H    0.090169   -3.227236    6.105523
 H   -1.011523   -4.144686    7.147689
 H   -3.485657   -2.938728    4.702765
 H   -5.585834   -3.840818    4.678245
 H   -7.192977   -3.069272    6.543380
 H   -5.871727   -2.051805    7.116223
 H   -7.434858   -0.766943    5.819311
 H   -8.348094   -2.603472    4.404964
 H   -7.943010   -1.163381    3.471699
 H   -6.885863   -2.565242    3.416087
 H   -5.968854    0.347519    4.278449
 H   -4.963868   -0.239002    5.605605
 H   -4.972446   -1.083972    4.055697
 H   -5.988266   -7.086448    7.472470
 H   -5.423127   -6.078620    8.821852
 H   -7.180299   -6.282734    8.543644
