56 
2ggb_ligand_dft.xyz
 O    1.173141   -0.551425    1.631980
 C    1.696577   -1.159091    0.699009
 C    3.008260   -0.637590    0.118416
 C    2.840756    0.870782   -0.165312
 C    3.965008    1.406128   -1.064823
 C    5.284623    0.996149   -0.588168
 C    6.361278    0.622496   -0.190266
 C    7.681898    0.214037    0.283699
 N    1.519931    1.122956   -0.845048
 O    3.314513   -1.346244   -1.056795
 N    1.137496   -2.195997    0.051576
 C   -0.312790   -2.383069    0.064465
 C   -0.878212   -2.893703    1.404397
 O   -1.131748   -1.896176    2.366743
 C   -0.929555   -1.088098   -0.517372
 O   -0.462789   -0.616344   -1.560300
 N   -1.948024   -0.542511    0.154453
 C   -2.625373    0.659916   -0.283750
 C   -4.130735    0.569989   -0.015761
 C   -4.796505   -0.671081   -0.629301
 C   -4.551082   -0.777489   -2.137011
 C   -6.295359   -0.648282   -0.319291
 C   -1.941444    1.887583    0.328375
 O   -0.734056    1.999767    0.471891
 O   -2.790116    2.840375    0.651831
 C   -2.237847    4.052512    1.190906
 H    3.794289   -0.737871    0.874222
 H    2.805896    1.406237    0.784382
 H    3.903604    2.500600   -1.110901
 H    3.810560    1.027466   -2.083402
 H    8.289812   -0.166778   -0.542332
 H    7.602277   -0.570809    1.041931
 H    8.205714    1.064809    0.729397
 H    1.564037    1.941720   -1.455810
 H    0.736114    1.305398   -0.176020
 H    1.174558    0.326589   -1.414885
 H    4.272817   -1.323997   -1.189500
 H    1.645592   -2.519680   -0.761888
 H   -0.512122   -3.160367   -0.679747
 H   -1.840058   -3.376542    1.210240
 H   -0.190345   -3.659052    1.785456
 H   -0.313945   -1.372210    2.460360
 H   -2.096641   -0.882188    1.106471
 H   -2.442754    0.746037   -1.361059
 H   -4.602126    1.472874   -0.418193
 H   -4.307935    0.585074    1.067110
 H   -4.366521   -1.561306   -0.150633
 H   -5.104547   -1.623133   -2.556679
 H   -4.891438    0.129117   -2.652835
 H   -3.493152   -0.930855   -2.379359
 H   -6.480571   -0.578993    0.757987
 H   -6.782747   -1.556180   -0.687511
 H   -6.780025    0.209800   -0.800180
 H   -3.093108    4.697076    1.381956
 H   -1.699660    3.838114    2.115719
 H   -1.561938    4.511155    0.466761
