66 
2ggu_ligand_xtb.xyz
 C   -5.616626    0.528638    1.689065
 C   -5.693673   -0.659774    0.708813
 C   -4.271679   -1.083271    0.351152
 C   -3.493941    0.120355   -0.195114
 C   -3.552993    1.290381    0.804407
 C   -2.924722    2.594874    0.250028
 O   -6.886937    0.981601    2.014624
 O   -6.360526   -1.754555    1.285037
 O   -4.251909   -2.096898   -0.626597
 O   -2.162386   -0.310052   -0.411262
 O   -4.901317    1.586333    1.118798
 O   -2.994506    2.716275   -1.141805
 C   -1.645403   -0.222184   -1.706983
 C   -0.855305   -1.509533   -1.982316
 C    0.343605   -1.556027   -1.023963
 C    1.187502   -0.283043   -1.184262
 C    0.279044    0.937026   -0.969988
 C    1.006294    2.257962   -1.202348
 O   -1.640646   -2.660130   -1.846621
 O    1.136259   -2.694557   -1.292947
 O    2.212830   -0.249020   -0.215331
 O   -0.826762    0.905587   -1.864692
 O    0.272952    3.271151   -0.556416
 C    3.448662   -0.814353   -0.583460
 C    3.931846   -1.740014    0.543219
 C    4.199444   -0.885497    1.785785
 C    5.220498    0.203744    1.444868
 C    4.730360    1.014747    0.240648
 C    5.823995    1.962926   -0.266520
 O    3.001216   -2.740970    0.861872
 O    4.711074   -1.658754    2.845304
 O    5.385776    1.089621    2.521692
 O    4.393366    0.176164   -0.864623
 O    6.906773    1.260773   -0.808751
 H   -5.142240    0.181967    2.625582
 H   -6.216287   -0.328881   -0.204314
 H   -3.771956   -1.443651    1.264620
 H   -3.953485    0.442755   -1.137374
 H   -3.024692    0.990747    1.722790
 H   -3.506455    3.418709    0.672737
 H   -1.890211    2.675380    0.594077
 H   -7.101920    1.699424    1.405532
 H   -7.123237   -1.413664    1.770061
 H   -4.890820   -2.768797   -0.355799
 H   -2.195318    2.323822   -1.525111
 H   -2.446109   -0.107398   -2.450535
 H   -0.479114   -1.484805   -3.014038
 H   -0.028536   -1.599840    0.010588
 H    1.612185   -0.253016   -2.197204
 H   -0.082716    0.916260    0.065952
 H    1.064975    2.437760   -2.282940
 H    2.018486    2.179084   -0.787405
 H   -2.405415   -2.467366   -1.275345
 H    0.521241   -3.418482   -1.482534
 H    0.653812    4.128592   -0.773028
 H    3.348244   -1.387432   -1.514870
 H    4.878675   -2.205023    0.220266
 H    3.251645   -0.411040    2.086091
 H    6.179083   -0.277881    1.193709
 H    3.852052    1.591652    0.558256
 H    5.387976    2.638096   -1.017031
 H    6.204724    2.545381    0.573234
 H    2.351880   -2.815200    0.142507
 H    4.193039   -2.472673    2.871713
 H    5.532921    0.545720    3.306058
 H    6.544069    0.617511   -1.430699
