39 
2gh6_ligand_dft.xyz
 C   -6.155249    1.095589   -0.019733
 C   -7.513070    1.400911   -0.017105
 C   -8.479756    0.401356    0.017467
 C   -8.075886   -0.930420    0.050020
 C   -6.725438   -1.252236    0.047811
 C   -5.755466   -0.243990    0.012948
 N   -4.405750   -0.648115    0.013047
 C   -3.268985    0.122795   -0.020066
 O   -3.268601    1.339899   -0.051376
 C   -1.983385   -0.699926   -0.017171
 C   -0.732976    0.171827   -0.009576
 C    0.553329   -0.652630   -0.018557
 C    1.810833    0.216116   -0.011798
 C    3.098615   -0.606077   -0.024678
 C    4.344000    0.272751   -0.018308
 C    5.627848   -0.516559   -0.039825
 O    5.708224   -1.716284   -0.098637
 C    6.926899    0.325859    0.028227
 F    6.944307    1.227789   -0.967884
 F    6.969491    0.999848    1.190339
 F    8.012340   -0.428587   -0.064243
 H   -5.407756    1.875524   -0.046608
 H   -7.813478    2.444332   -0.042715
 H   -9.534988    0.655389    0.019103
 H   -8.813564   -1.726891    0.077365
 H   -6.419802   -2.296268    0.073389
 H   -4.260298   -1.647116    0.037126
 H   -1.984479   -1.354918   -0.899866
 H   -1.989272   -1.365081    0.857696
 H   -0.755144    0.823172    0.871536
 H   -0.757410    0.839825   -0.877775
 H    0.568670   -1.303995   -0.904002
 H    0.570785   -1.321103    0.854008
 H    1.797408    0.866061    0.874286
 H    1.792939    0.885591   -0.883143
 H    3.119720   -1.254940   -0.908061
 H    3.124274   -1.275103    0.843665
 H    4.366604    0.928170    0.863103
 H    4.355931    0.951605   -0.882160
