66 
2gh9_ligand_dft.xyz
 C   -5.705730    0.927132    1.380980
 C   -5.770311   -0.315097    0.485746
 C   -4.369355   -0.836687    0.209908
 C   -3.488271    0.274559   -0.344177
 C   -3.508928    1.482324    0.590116
 C   -2.830524    2.713200    0.006749
 O   -5.258360    0.577228    2.660747
 O   -6.532653   -1.292650    1.164923
 O   -4.501810   -1.928408   -0.671330
 O   -2.159250   -0.212063   -0.438891
 O   -4.861171    1.886890    0.815921
 O   -2.889256    3.792402    0.904571
 C   -1.690579   -0.584581   -1.696029
 C   -0.986728   -1.937100   -1.586754
 C    0.238195   -1.815669   -0.695840
 C    1.149838   -0.714478   -1.231319
 C    0.360351    0.585081   -1.377337
 C    1.128792    1.708738   -2.049577
 O   -1.882612   -2.903465   -1.079483
 O    0.853304   -3.084026   -0.673818
 O    2.205676   -0.492612   -0.314579
 O   -0.785169    0.363213   -2.206089
 O    0.339448    2.869373   -2.140570
 C    3.423900   -1.127591   -0.566685
 C    3.907982   -1.799787    0.719322
 C    4.169958   -0.739840    1.770596
 C    5.179296    0.270660    1.247271
 C    4.683533    0.835396   -0.094596
 C    5.730805    1.682555   -0.802787
 O    2.937114   -2.728393    1.160287
 O    4.628382   -1.410875    2.927018
 O    5.300362    1.258906    2.242705
 O    4.391119   -0.213883   -1.013532
 O    6.123360    2.720878    0.082573
 H   -6.688010    1.413161    1.431309
 H   -6.243930   -0.039815   -0.467601
 H   -3.926672   -1.158630    1.164395
 H   -3.856931    0.574894   -1.335695
 H   -3.037373    1.219043    1.544217
 H   -1.775705    2.512292   -0.195728
 H   -3.320480    2.955666   -0.952012
 H   -5.632854   -0.300170    2.835715
 H   -6.345469   -2.128313    0.712717
 H   -3.644636   -2.391972   -0.713079
 H   -3.810753    3.844036    1.193500
 H   -2.508616   -0.636876   -2.421138
 H   -0.659901   -2.222270   -2.597453
 H   -0.088687   -1.523781    0.312169
 H    1.549540   -1.012564   -2.211389
 H    0.034365    0.920014   -0.384768
 H    1.469982    1.367657   -3.040702
 H    2.009597    1.958399   -1.453715
 H   -1.331467   -3.637135   -0.769040
 H    1.493854   -3.093703    0.062217
 H   -0.490019    2.596114   -2.555537
 H    3.320501   -1.866020   -1.367532
 H    4.849400   -2.319696    0.492953
 H    3.229513   -0.210726    1.980636
 H    6.139766   -0.246720    1.079995
 H    3.787450    1.439449    0.097752
 H    6.581397    1.038174   -1.067160
 H    5.301329    2.087381   -1.728101
 H    3.127474   -2.906011    2.092308
 H    4.832615   -0.728209    3.580180
 H    5.808537    1.988695    1.854444
 H    6.824979    3.234629   -0.330991
