39 
2giu_ligand_xtb.xyz
 C   -1.075943    0.188069    0.762090
 C   -1.642247   -0.812540    1.766374
 C   -1.784221   -2.189138    1.130394
 C   -0.515827   -2.674850    0.456393
 O   -0.319461   -3.849089    0.236924
 C    0.460650   -1.645248    0.090394
Br    2.079532   -2.402752   -0.573298
 C    0.259018   -0.322945    0.244003
 C    1.125386    0.817508    0.055766
 C    2.330504    0.962398   -0.623295
 C    2.952031    2.196055   -0.632909
 C    2.394460    3.289187    0.028171
 O    2.989358    4.505200    0.033848
 C    1.182321    3.152292    0.707605
 C    0.561110    1.927537    0.710553
 C   -0.723841    1.555052    1.381300
 C   -1.981129    0.395674   -0.473506
 C   -3.426914    0.774154   -0.157486
 C   -4.198498    1.112313   -1.431916
 C   -5.640139    1.502788   -1.130938
 H   -2.604982   -0.472336    2.149459
 H   -0.953094   -0.881600    2.612877
 H   -2.566396   -2.181454    0.366500
 H   -2.072472   -2.937077    1.872136
 H    2.779149    0.139428   -1.152805
 H    3.886626    2.319082   -1.163479
 H    3.817652    4.474319   -0.461000
 H    0.762489    4.008059    1.211835
 H   -1.499459    2.302905    1.224024
 H   -0.566784    1.460675    2.458973
 H   -1.977007   -0.511168   -1.081951
 H   -1.531347    1.186903   -1.079618
 H   -3.453334    1.636292    0.512043
 H   -3.930870   -0.052103    0.346771
 H   -3.700254    1.935034   -1.949591
 H   -4.187841    0.247815   -2.099473
 H   -6.174477    1.727932   -2.050547
 H   -5.672302    2.382624   -0.491769
 H   -6.158428    0.692252   -0.623087
