37 
2gmk_ligand_xtb.xyz
 P   -1.154238   -2.468093   -0.363939
 O    0.360117   -2.452810   -0.804956
 O   -1.871021   -3.210597   -1.576652
 O   -1.455209   -3.030533    0.953822
 O   -1.618890   -0.947960   -0.578539
 C   -2.851975   -0.587515    0.025816
 C   -2.800241    0.858366    0.529339
 O   -1.792550    1.020500    1.520581
 C   -2.478935    1.884435   -0.568832
 O   -3.065419    3.115711   -0.262293
 C   -0.945851    1.952177   -0.509682
 O   -0.473814    3.211580   -0.873115
 C   -0.650280    1.595014    0.972456
 N    0.480586    0.695489    1.025519
 C    0.586011   -0.541831    1.579462
 N    1.714902   -1.138532    1.311292
 C    2.419609   -0.242441    0.541783
 C    3.689462   -0.249948   -0.064507
 N    4.539221   -1.283407    0.025108
 N    4.056181    0.824171   -0.770821
 C    3.224779    1.842559   -0.886472
 N    2.014031    1.976061   -0.370931
 C    1.645771    0.910186    0.348085
 H    0.932062   -2.271535   -0.042647
 H   -1.942575   -4.145849   -1.390867
 H   -3.659675   -0.695592   -0.703717
 H   -3.034735   -1.253700    0.874623
 H   -3.755811    1.100713    1.003980
 H   -2.822157    1.533715   -1.551355
 H   -2.440597    3.803287   -0.536859
 H   -0.530314    1.164759   -1.152462
 H    0.501668    3.164480   -0.844364
 H   -0.392521    2.505942    1.538263
 H   -0.195402   -0.967024    2.176756
 H    5.444791   -1.206489   -0.402140
 H    4.298577   -2.075597    0.592242
 H    3.580012    2.674661   -1.478996
