39 
2gnf_ligand_xtb.xyz
 O    7.333976    8.862097    1.636915
 C    7.818316    8.859996    2.743082
 C    9.262613    8.473511    3.028493
 C    9.815642    7.593567    1.910618
 C   11.284239    7.263405    2.152595
 C   12.135327    8.531198    2.256271
 C   11.572575    9.417197    3.371341
 C   10.104200    9.751876    3.126737
 C   13.623576    8.193996    2.495331
 C   14.251358    7.542812    1.264749
 N   14.364523    9.421259    2.774705
 N    7.146145    9.237025    3.877754
 C    5.840118    9.699254    4.006667
 C    5.380923   10.045038    5.279135
 C    4.083746   10.502843    5.414898
 N    3.244333   10.634008    4.401662
 C    3.683294   10.305740    3.198355
 C    4.959180    9.835846    2.935965
 H    9.315983    7.931454    3.980016
 H    9.701464    8.121151    0.962713
 H    9.232318    6.672600    1.847423
 H   11.637349    6.634566    1.335648
 H   11.380643    6.691014    3.079674
 H   12.069111    9.086627    1.316293
 H   12.137703   10.347860    3.416612
 H   11.675182    8.901901    4.330865
 H    9.733809   10.391516    3.932619
 H   10.009378   10.305747    2.190669
 H   13.680816    7.477759    3.338056
 H   14.205732    8.231845    0.425553
 H   15.295663    7.304325    1.459202
 H   13.741230    6.622711    0.998635
 H   14.208605    9.730464    3.726762
 H   15.359192    9.256988    2.667723
 H    7.662006    9.195519    4.746780
 H    6.027249    9.956435    6.140725
 H    3.694140   10.779773    6.385834
 H    2.969618   10.425976    2.394238
 H    5.266727    9.582102    1.936688
