40 
2gnj_ligand_dft.xyz
 O    0.184421    0.392721    0.807606
 C    0.515064   -0.695849    0.354205
 C   -0.509745   -1.798522    0.073336
 C   -1.607378   -1.862504    1.164041
 C   -2.945668   -1.236279    0.731609
 C   -2.690903    0.068045   -0.031972
 C   -1.930470   -0.226423   -1.352555
 C   -1.143800   -1.547913   -1.308303
 C   -3.969597    0.866299   -0.289679
 C   -4.763193    1.270759    0.942504
 N   -3.546442    2.152919   -1.005604
 N    1.793176   -1.012337   -0.002732
 C    2.946258   -0.202541    0.034655
 C    4.116926   -0.718102   -0.525593
 C    5.267388    0.057740   -0.497325
 N    5.329118    1.279092    0.036710
 C    4.202835    1.751971    0.569744
 C    2.988949    1.071027    0.601472
 H    0.007002   -2.763431    0.034261
 H   -1.783026   -2.905934    1.439134
 H   -1.253094   -1.348947    2.062034
 H   -3.517471   -1.929682    0.101374
 H   -3.544709   -1.059482    1.629254
 H   -2.035252    0.675402    0.605827
 H   -1.228544    0.589705   -1.565094
 H   -2.635164   -0.289552   -2.196081
 H   -1.814922   -2.384762   -1.527954
 H   -0.380786   -1.546177   -2.092766
 H   -4.612900    0.352525   -1.012234
 H   -5.221814    0.386275    1.387457
 H   -5.577346    1.960990    0.696500
 H   -4.118570    1.731845    1.698712
 H   -2.918884    2.698201   -0.404116
 H   -4.348255    2.744404   -1.242483
 H   -3.035234    1.942834   -1.868985
 H    1.944062   -1.945873   -0.358083
 H    4.138899   -1.705377   -0.979289
 H    6.188466   -0.326220   -0.928928
 H    4.266382    2.744741    1.009408
 H    2.114837    1.512783    1.055750
