39 
2gpp_ligand_dft.xyz
 N   -0.131779    0.282260    0.119393
 C    4.948528    0.096521    0.022802
 C    4.440785   -1.160740   -0.314300
 C    3.071550   -1.387039   -0.365572
 C    2.167919   -0.359856   -0.080097
 C    0.727452   -0.625538   -0.142004
 C   -3.821361    0.354214    0.088025
 C   -6.476642   -0.508315   -0.083359
 C   -4.824470    1.224919   -0.340130
 C    4.037151    1.118449    0.306401
 C    7.120456   -0.514295    1.152963
 C    6.443848    0.349930    0.080481
 C    7.103036    0.145513   -1.290142
 N   -1.439896   -0.065049    0.046408
 C   -2.428560    0.897159    0.164469
 O   -2.190581    2.078696    0.302982
 C   -4.173660   -0.949964    0.453077
 C   -5.488106   -1.383390    0.369926
 O   -7.744259   -0.983824   -0.152345
 C   -6.141335    0.801384   -0.435206
 C    2.667691    0.902178    0.257971
 H    5.121809   -1.977244   -0.540693
 H    2.698845   -2.374120   -0.630537
 H    0.423481   -1.644277   -0.423980
 H   -4.552217    2.243824   -0.594791
 H    4.410327    2.105026    0.570587
 H    7.032687   -1.580347    0.913373
 H    8.187286   -0.274992    1.223755
 H    6.664856   -0.352457    2.134918
 H    6.585348    1.400970    0.363316
 H    8.169456    0.392752   -1.245240
 H    7.015633   -0.896743   -1.618203
 H    6.634332    0.777292   -2.051178
 H   -1.686225   -0.991526   -0.288470
 H   -3.426522   -1.633801    0.847106
 H   -5.770452   -2.388591    0.663416
 H   -8.332545   -0.284067   -0.461013
 H   -6.911158    1.488722   -0.779075
 H    1.969804    1.703352    0.479174
