31 
2gss_ligand_dft.xyz
 C   -1.563057   -0.378419   -0.075375
 O   -2.882892   -0.137439    0.096279
 C   -0.735903    0.753018   -0.160111
Cl   -1.467998    2.320753   -0.068117
 C    0.639831    0.595027   -0.325597
Cl    1.650633    1.997589   -0.493034
 C    1.203120   -0.683276   -0.405753
 C    0.360475   -1.787866   -0.352917
 C   -1.009852   -1.650727   -0.176390
 C    2.679086   -0.937443   -0.616955
 O    3.034397   -1.535357   -1.613703
 C    3.661213   -0.533485    0.434601
 C    5.102138   -0.533461   -0.010363
 C    6.116181   -0.165674    1.066456
 C    3.237928   -0.280160    1.676186
 C   -3.798163   -1.213737    0.141993
 C   -5.205933   -0.640619    0.298427
 O   -6.156517   -1.368743    0.387227
 O   -5.294979    0.688860    0.323923
 H    0.792728   -2.778154   -0.450650
 H   -1.636128   -2.533163   -0.125135
 H    5.192203    0.155387   -0.860194
 H    5.328299   -1.522882   -0.424204
 H    5.932384    0.837782    1.465798
 H    6.090213   -0.874203    1.901609
 H    7.127911   -0.178853    0.651046
 H    2.184376   -0.308664    1.937151
 H    3.927960   -0.040224    2.478750
 H   -3.597254   -1.873205    0.993725
 H   -3.766042   -1.803289   -0.781449
 H   -4.403912    1.070004    0.238089
