63 
2gvd_ligand_xtb.xyz
 P   -5.943865   -2.132914    0.182680
 O   -7.502498   -2.277746    0.256989
 O   -5.691055   -2.155472   -1.345827
 O   -5.227536   -3.102389    1.032183
 P   -4.791579    0.589362    0.348499
 O   -4.775917    0.558703   -1.206726
 O   -5.172801    1.812750    1.018660
 O   -5.724116   -0.634226    0.734627
 P   -2.707410   -1.315362    0.441796
 O   -2.913947   -2.278441    1.643013
 O   -3.148843   -1.811697   -0.871485
 O   -3.318578    0.098748    0.825252
 N   -0.321566    1.137639   -1.151231
 C   -1.343941    0.709600   -1.940487
 N   -2.436220    1.402241   -1.798098
 C   -2.145305    2.360393   -0.854871
 C   -2.864748    3.433817   -0.284564
 N   -4.089182    3.817901   -0.680025
 N   -2.237625    4.172885    0.634132
 C   -0.997221    3.891322    0.976425
 N   -0.217293    2.939448    0.494033
 C   -0.819265    2.192405   -0.429006
 C    3.872206   -0.008860    0.261149
 C    5.079027    0.293734    1.131884
 C    6.272434   -0.280168    0.936587
 C    6.465763   -1.208824   -0.148074
 C    5.534434   -1.406409   -1.095666
 C    4.350760   -0.523287   -1.153209
 N    4.840920    1.102473    2.310182
 N    7.691899   -1.997784   -0.157031
 N    4.715591    0.738961   -1.919648
 O    3.698035    1.224610    2.675701
 O    5.812914    1.571977    2.848238
 O    8.471809   -1.815263    0.742884
 O    7.827013   -2.779981   -1.066863
 O    5.785148    1.222205   -1.689805
 O    3.874600    1.149935   -2.666349
 O   -1.156799   -0.960622    0.507328
 C   -0.327792   -2.035025    0.089078
 C    1.059532   -1.531962   -0.306711
 O    1.054031   -0.744582   -1.488515
 C    1.731948   -0.665144    0.776096
 O    3.104410   -0.983860    0.910214
 C    1.714140    0.764622    0.209660
 O    3.073967    1.121816    0.088562
 C    1.030135    0.620070   -1.167792
 H   -7.778168   -2.732201    1.052652
 H   -4.733268   -2.074360   -1.520062
 H   -3.904762    0.871135   -1.632403
 H   -3.795457   -2.745725    1.557322
 H   -1.236556   -0.117668   -2.613272
 H   -4.673396    3.142633   -1.144629
 H   -4.555805    4.460117   -0.058335
 H   -0.557550    4.519802    1.737913
 H    7.094092   -0.097356    1.617603
 H    5.684377   -2.143360   -1.871949
 H    3.499823   -0.968433   -1.676384
 H   -0.231343   -2.757751    0.904095
 H   -0.788259   -2.527934   -0.772809
 H    1.675266   -2.414157   -0.519495
 H    1.257835   -0.768039    1.750857
 H    1.224898    1.523211    0.825989
 H    1.604092    1.148020   -1.945580
