115 
2gvf_ligand_xtb.xyz
 C    3.792197   -3.119808    1.612193
 C    4.771221   -2.216977    2.385356
 C    6.037429   -2.021004    1.597147
 C    6.270940   -0.829656    0.922340
 C    6.958379   -3.053872    1.505870
 C    7.419686   -0.670784    0.157151
 C    8.098379   -2.902101    0.736537
 C    8.331315   -1.721341    0.063816
 C    3.414574   -2.437791    0.312417
 O    4.055025   -2.550484   -0.713630
 O    7.770102    0.461645   -0.527956
 C    6.965952    1.607468   -0.434222
 C    5.726035    1.554179   -1.340511
 O    4.797267    2.474417   -0.809745
 N    2.290233   -1.688172    0.388226
 C    1.931831   -0.765563   -0.661637
 C    0.622131   -1.088476   -1.428304
 C    0.836440   -2.046764   -2.604770
 C   -0.500504   -1.589527   -0.514252
 C    0.991501   -3.498940   -2.168387
 C   -0.380834   -3.063667   -0.130563
 C   -0.229999   -3.938168   -1.369876
 C    1.743652    0.599330   -0.007027
 O    1.275307    0.670422    1.128516
 N    2.043308    1.692441   -0.713802
 C    2.748248    1.796873   -1.969985
 C    1.929661    3.021842   -0.110516
 C    2.920330    3.898809   -0.879563
 C    3.768581    2.905900   -1.672718
 C    0.477369    3.532377   -0.262920
 O    0.178468    4.373357   -1.086394
 N   -0.361032    2.948802    0.602296
 C   -1.791722    3.216918    0.638980
 C   -2.056859    4.685865    0.978823
 C   -1.496503    5.066455    2.347181
 C   -1.775411    6.529695    2.665652
 O   -1.986370    1.531571   -1.119828
 C   -2.420387    2.814609   -0.708782
 O   -4.617360    3.298496    0.246263
 N   -4.502312    2.217777   -1.732976
 C   -5.896745    1.854771   -1.756143
 C   -6.230018    0.644108   -0.870986
 O   -7.365439    0.363791   -0.556504
 C   -3.956143    2.829487   -0.653507
 N   -5.155408   -0.077275   -0.498728
 C   -5.200700   -1.053625    0.566989
 C   -5.367765   -2.448388    0.001579
 C   -4.283510   -3.104761   -0.566550
 C   -6.613888   -3.059861   -0.001822
 C   -4.437487   -4.367922   -1.109366
 C   -6.767869   -4.320455   -0.551609
 C   -5.679842   -4.979103   -1.099518
 C   -3.891920   -0.917746    1.349287
 O   -3.006368   -0.170305    0.944546
 N   -3.756585   -1.652469    2.460022
 C   -4.755178   -2.561916    2.969059
 C   -2.496838   -1.638246    3.172799
 H    4.284462   -4.063306    1.375425
 H    2.904744   -3.314737    2.216728
 H    4.295780   -1.254095    2.586304
 H    5.001517   -2.691746    3.342138
 H    5.540325   -0.038344    1.001591
 H    6.781214   -3.979430    2.033818
 H    8.810835   -3.710097    0.661362
 H    9.213334   -1.581996   -0.540501
 H    7.608982    2.439578   -0.731606
 H    6.631158    1.783179    0.595002
 H    5.989620    1.819051   -2.373168
 H    5.324316    0.530360   -1.339906
 H    1.876639   -1.471451    1.285651
 H    2.765732   -0.782514   -1.368707
 H    0.290322   -0.129175   -1.846797
 H   -0.032274   -1.969357   -3.264287
 H    1.714114   -1.738615   -3.176419
 H   -1.441413   -1.443933   -1.050486
 H   -0.538583   -0.969850    0.382899
 H    1.105663   -4.129380   -3.052680
 H    1.892640   -3.608968   -1.565896
 H    0.483344   -3.219497    0.514416
 H   -1.271621   -3.359991    0.430597
 H   -1.121746   -3.845869   -1.995879
 H   -0.131167   -4.985490   -1.076262
 H    2.062684    2.122303   -2.759370
 H    3.218418    0.862731   -2.265389
 H    2.170524    2.939889    0.953885
 H    2.363113    4.555146   -1.550033
 H    3.541597    4.494273   -0.216241
 H    4.195163    3.328413   -2.593208
 H   -0.000298    2.172351    1.145496
 H   -2.218049    2.576173    1.418357
 H   -1.601334    5.309830    0.209697
 H   -3.133554    4.848753    0.969537
 H   -0.418361    4.891264    2.363238
 H   -1.951442    4.434270    3.113255
 H   -1.314221    7.173695    1.920427
 H   -2.846144    6.719322    2.666225
 H   -1.377556    6.793812    3.642908
 H   -2.130708    0.918480   -0.376985
 H   -2.080322    3.510312   -1.484224
 H   -3.868942    1.784486   -2.389389
 H   -6.214375    1.652074   -2.780059
 H   -6.481317    2.693056   -1.366060
 H   -4.222257    0.262066   -0.700755
 H   -6.062594   -0.805741    1.199466
 H   -3.317154   -2.624212   -0.581912
 H   -7.464314   -2.538835    0.411494
 H   -3.586858   -4.874286   -1.541152
 H   -7.740552   -4.788944   -0.553745
 H   -5.800844   -5.964399   -1.524279
 H   -4.582349   -2.702690    4.035143
 H   -5.758061   -2.163669    2.833548
 H   -4.696489   -3.534134    2.471929
 H   -2.648554   -1.304902    4.200615
 H   -2.059133   -2.638338    3.179727
 H   -1.820492   -0.951215    2.669235
