58 
2gvj_ligand_xtb.xyz
 C    7.397415    1.386871   -0.332823
 C    7.666075    2.703503   -0.663668
 C    6.764319    3.701190   -0.333121
 C    5.594575    3.382073    0.335586
 C    5.322344    2.066893    0.669068
 C    6.219218    1.062010    0.328031
 C    5.957799   -0.354930    0.747956
 O    6.340419   -0.778859    1.823123
 N    5.298212   -1.123255   -0.148192
 C    4.732095   -0.655397   -1.389639
 C    3.203882   -0.716809   -1.325928
 C    4.922298   -2.477619    0.196055
 C    3.401497   -2.589489    0.301268
 C    2.753443   -2.145805   -1.012162
 C    1.226947   -2.302037   -1.011670
 C    0.489953   -1.515788    0.070979
 C   -1.022676   -1.676504   -0.059279
 C   -1.757029   -0.909339    1.041913
 N   -3.189954   -0.977113    0.889446
 C   -3.940645    0.107244    0.565223
 O   -3.462484    1.218327    0.432190
 C   -5.383023   -0.180945    0.407573
 C   -6.234012    0.810977    0.126945
 C   -7.668027    0.713977   -0.057227
 C   -8.375213   -0.491597   -0.067211
 C   -9.745175   -0.472092   -0.249715
 C  -10.374535    0.753507   -0.419572
 N   -9.723580    1.904743   -0.414683
 C   -8.418090    1.882656   -0.240402
 H    8.100265    0.605653   -0.583540
 H    8.582539    2.951302   -1.178829
 H    6.975887    4.728144   -0.592068
 H    4.893056    4.159440    0.600122
 H    4.414676    1.816133    1.198769
 H    5.091163   -1.301729   -2.200919
 H    5.067749    0.363961   -1.584816
 H    2.786300   -0.386898   -2.278336
 H    2.860816   -0.035930   -0.546158
 H    5.399594   -2.717741    1.147885
 H    5.298303   -3.157453   -0.577595
 H    3.064081   -1.951153    1.118526
 H    3.126926   -3.619864    0.531762
 H    3.137077   -2.795736   -1.809677
 H    0.990356   -3.362851   -0.895520
 H    0.851084   -1.988317   -1.988853
 H    0.733901   -0.455998   -0.005790
 H    0.797840   -1.864902    1.057596
 H   -1.285911   -2.736446   -0.003710
 H   -1.349890   -1.299467   -1.030548
 H   -1.496901    0.150863    0.998450
 H   -1.475413   -1.304545    2.024349
 H   -3.621074   -1.885533    0.948552
 H   -5.700950   -1.205966    0.532969
 H   -5.810186    1.803978    0.033172
 H   -7.858879   -1.431634    0.060064
 H  -10.315630   -1.388209   -0.262978
 H  -11.444113    0.820345   -0.567918
 H   -7.929492    2.848902   -0.242553
