35 
2gvv_ligand_dft.xyz
 C    3.585079   -0.269977    0.065991
 C    3.208528   -1.521476   -0.759183
 C    1.858894   -2.022416   -0.175513
 C    1.588107   -1.128477    1.045192
 C    2.268531    0.193625    0.680827
 O    1.574084    0.908661   -0.354797
 P    0.094485    1.512161   -0.215582
 N   -0.181299    1.935704    1.378387
 O   -0.167119    2.619137   -1.148285
 O   -0.766749    0.173000   -0.402835
 C   -2.178428    0.218145   -0.710704
 C   -2.524767   -1.152659   -1.277917
 C   -2.545062   -2.072250   -0.039943
 C   -2.870811   -1.144134    1.164259
 C   -2.997980    0.276221    0.575891
 H    4.047677    0.521715   -0.527905
 H    4.273581   -0.530479    0.878178
 H    3.990362   -2.283823   -0.697346
 H    3.093944   -1.260681   -1.814224
 H    1.884274   -3.082001    0.093866
 H    1.054758   -1.884839   -0.903576
 H    2.089090   -1.522331    1.938398
 H    0.522449   -1.033984    1.270142
 H    2.403965    0.866175    1.536189
 H    0.114890    2.866356    1.640262
 H   -0.028757    1.245993    2.102162
 H   -2.359969    1.048829   -1.397471
 H   -1.813403   -1.467160   -2.045728
 H   -3.517949   -1.095769   -1.738321
 H   -1.563834   -2.537663    0.094334
 H   -3.272832   -2.881119   -0.149414
 H   -2.060764   -1.179100    1.900178
 H   -3.783927   -1.445991    1.684998
 H   -4.038583    0.491319    0.305375
 H   -2.657441    1.066214    1.248867
