35 
2gvv_ligand_xtb.xyz
 C    3.535950    0.136109    0.531105
 C    4.183737   -1.187605    0.115521
 C    3.135066   -1.830054   -0.787586
 C    1.832104   -1.529992   -0.052421
 C    2.014758   -0.101580    0.478222
 O    1.449643    0.846782   -0.423738
 P   -0.026494    1.418688   -0.246405
 N   -0.068555    2.426935    1.105538
 O   -0.523004    2.084509   -1.443535
 O   -0.810801    0.114849    0.257714
 C   -2.225119    0.232447    0.417298
 C   -2.949392   -0.004658   -0.910904
 C   -3.233625   -1.503394   -0.914204
 C   -3.646265   -1.766391    0.531867
 C   -2.683004   -0.901677    1.352948
 H    3.771943    0.916707   -0.192203
 H    3.864952    0.466406    1.515427
 H    4.350197   -1.815910    0.992408
 H    5.138265   -1.037238   -0.385366
 H    3.298380   -2.896516   -0.933084
 H    3.129769   -1.336814   -1.759597
 H    1.704084   -2.216402    0.785776
 H    0.954855   -1.586558   -0.692303
 H    1.540950    0.013188    1.458335
 H    0.063983    3.388691    0.836321
 H    0.535369    2.172976    1.872067
 H   -2.438107    1.226902    0.819624
 H   -2.333637    0.327497   -1.742830
 H   -3.884281    0.556544   -0.917890
 H   -2.320819   -2.052341   -1.147798
 H   -4.004300   -1.783190   -1.630219
 H   -3.585489   -2.819031    0.803323
 H   -4.672933   -1.430864    0.685831
 H   -3.147431   -0.515957    2.258678
 H   -1.800416   -1.475309    1.636207
