66 
2gvz_ligand_xtb.xyz
 C   -0.520884    5.449527    1.008401
 N   -0.982675    4.314208    0.275688
 C   -2.190886    3.961730    0.136549
 C   -3.432936    4.650529    0.643943
 C   -4.423895    4.809185   -0.508385
 C   -4.853259    3.438433   -1.019934
 C   -3.699503    2.515260   -1.161373
 C   -2.486885    2.743079   -0.635906
 C   -1.442579    1.710988   -0.798477
 O   -1.419320    0.896150   -1.700315
 P   -0.319322   -2.390256    1.083377
 O    0.701117   -2.928263    0.021642
 O   -1.147366   -3.341450    1.821214
 O   -1.152899   -1.258308    0.293532
 P   -2.713024   -1.126737   -0.012823
 O   -2.833958   -1.315640   -1.573307
 O   -3.304407    0.061200    0.572012
 O   -3.344512   -2.485525    0.495780
 P   -2.859401   -3.888556   -0.153484
 O   -3.059330   -4.933439    0.978402
 O   -4.047961   -4.266025   -1.114141
 O   -1.570591   -3.807107   -0.854649
 N    4.025280    1.417611    0.285063
 C    5.274378    1.785621    0.718682
 N    6.219636    0.969175    0.381103
 C    5.587639   -0.028211   -0.319345
 C    4.209205    0.235865   -0.382810
 N    3.316940   -0.546322   -0.996503
 C    3.861868   -1.615851   -1.547961
 N    5.132772   -1.977681   -1.560394
 C    6.034885   -1.202762   -0.951606
 N    7.324284   -1.573986   -0.969335
 O   -0.537304    1.777887    0.165828
 C    0.673699    1.054097    0.049100
 C    1.758303    1.987111   -0.569784
 O    1.281176    3.211186   -1.007413
 C    1.166801    0.732171    1.466602
 C    1.639396   -0.716997    1.660207
 O    0.573428   -1.557580    2.076443
 O    2.202653    1.656390    1.755556
 C    2.798847    2.123348    0.574431
 H   -1.292478    6.143263    1.354425
 H    0.184392    5.983846    0.369768
 H    0.031150    5.079274    1.874751
 H   -3.205101    5.623768    1.077791
 H   -3.871641    4.019583    1.420896
 H   -5.294597    5.378091   -0.177333
 H   -3.944197    5.366758   -1.316256
 H   -5.548881    2.972360   -0.313297
 H   -5.379633    3.526256   -1.973157
 H   -3.872596    1.584830   -1.681446
 H    0.197504   -3.471734   -0.605210
 H   -2.374065   -0.580829   -2.014989
 H   -2.435261   -4.735359    1.688862
 H   -3.893726   -3.926348   -1.995989
 H    5.428667    2.684218    1.282855
 H    3.176280   -2.282800   -2.052260
 H    7.581321   -2.427292   -1.431054
 H    8.007185   -1.001950   -0.507757
 H    0.530528    0.159973   -0.559043
 H    2.223987    1.500967   -1.431124
 H    0.532370    3.526196   -0.446401
 H    0.363547    0.921888    2.187756
 H    2.099143   -1.102463    0.748173
 H    2.363785   -0.730828    2.480397
 H    3.063909    3.175996    0.735571
