66 
2gvz_ligand_dft.xyz
 C    5.536474   -2.976362    0.148753
 N    4.526879   -1.988721   -0.197453
 C    4.847650   -0.757722   -0.326948
 C    6.233569   -0.175918   -0.154220
 C    6.478280    1.002444   -1.102269
 C    5.410387    2.081534   -0.933230
 C    4.028934    1.502042   -0.933781
 C    3.783413    0.212411   -0.661187
 C    2.378771   -0.286345   -0.691592
 O    1.672889   -0.281481   -1.683502
 P   -0.871557    1.805975    1.897224
 O   -2.386358    1.638365    2.306436
 O   -0.231614    3.117863    2.133682
 O   -0.915543    1.425645    0.308549
 P   -0.280557    2.207425   -0.963485
 O   -0.554496    1.199788   -2.138668
 O    1.084566    2.701274   -0.749328
 O   -1.387729    3.332244   -1.293757
 P   -2.183088    4.297505   -0.245399
 O   -1.087695    5.105534    0.530439
 O   -2.795926    5.389998   -1.214406
 O   -3.173753    3.522624    0.541512
 N   -1.427527   -3.844575    0.165328
 C   -2.065544   -5.056207   -0.004448
 N   -3.241882   -4.973287   -0.558713
 C   -3.406612   -3.616835   -0.763039
 C   -2.304550   -2.897523   -0.319383
 N   -2.159266   -1.567988   -0.367628
 C   -3.218932   -0.968971   -0.905590
 N   -4.341843   -1.526215   -1.372315
 C   -4.459262   -2.860632   -1.314220
 N   -5.576912   -3.439138   -1.797631
 O    1.992089   -0.757507    0.491944
 C    0.749679   -1.460758    0.533076
 C    0.897249   -2.885439   -0.030266
 O    2.137501   -3.447942    0.286399
 C    0.351563   -1.701009    1.991155
 C   -0.692450   -0.736075    2.532873
 O   -0.133655    0.594791    2.577039
 O   -0.262370   -2.987114    2.026586
 C   -0.132358   -3.663165    0.799949
 H    6.276316   -3.097320   -0.652991
 H    5.041671   -3.938174    0.299007
 H    6.070212   -2.717641    1.071572
 H    6.994629   -0.946133   -0.304057
 H    6.324431    0.161376    0.888869
 H    7.475050    1.418765   -0.926854
 H    6.458933    0.637215   -2.136246
 H    5.556947    2.623806    0.012636
 H    5.489456    2.834515   -1.724819
 H    3.188567    2.164808   -1.127813
 H   -2.925684    2.281987    1.780907
 H    0.167659    0.529188   -2.165796
 H   -0.636299    4.536356    1.211642
 H   -3.733687    5.220782   -1.378027
 H   -1.588160   -5.976000    0.309039
 H   -3.164206    0.114208   -0.973575
 H   -6.339018   -2.849612   -2.090442
 H   -5.725376   -4.426819   -1.670315
 H   -0.022860   -0.914792   -0.005404
 H    0.676060   -2.925988   -1.104381
 H    2.865281   -2.836320    0.030466
 H    1.247760   -1.703062    2.621638
 H   -1.576991   -0.770835    1.893236
 H   -0.967974   -1.002863    3.554488
 H    0.258359   -4.667026    0.983820
