35 
2gz7_ligand_xtb.xyz
 C   -4.324106   -0.424023    0.870664
 C   -4.137216    0.804353    0.259978
 C   -2.969604    1.056732   -0.452136
 C   -2.008896    0.058509   -0.524363
 C   -2.211502   -1.169526    0.078669
 C   -3.369883   -1.443943    0.788881
 C   -3.592347   -2.771195    1.433542
 S   -0.473646    0.217764   -1.435504
 O   -0.212514    1.523532   -1.954749
 O   -0.367084   -0.889543   -2.337466
 C    0.998625   -0.032972   -0.321270
 C    1.543138    1.057887    0.344023
 C    2.865334    1.089120    0.762321
 C    3.671482   -0.008927    0.498632
 C    3.152456   -1.128255   -0.140646
 C    1.822968   -1.126884   -0.542177
 N    1.300858   -2.362966   -1.131033
 O    1.906815   -2.841211   -2.044787
 O    0.360841   -2.843313   -0.545351
 C    5.115882   -0.019421    0.946148
 F    5.910215   -0.633480    0.065415
 F    5.601060    1.208510    1.134467
 F    5.253179   -0.674685    2.111200
 N    0.679979    2.183027    0.654742
 O   -0.497619    1.921188    0.747394
 O    1.192736    3.251977    0.839355
Cl   -2.765332    2.563267   -1.220632
Cl   -5.780116   -0.696371    1.740574
 H   -4.892315    1.570670    0.327766
 H   -1.456318   -1.932835   -0.029116
 H   -3.712189   -2.653109    2.509523
 H   -4.505071   -3.225526    1.051448
 H   -2.756025   -3.434581    1.237160
 H    3.247198    1.967644    1.263532
 H    3.776343   -1.987036   -0.345741
