75 
2gzl_ligand_dft.xyz
 C    7.463107    2.552476    2.134484
 N    6.081557    2.312309    1.761989
 C    5.379532    3.564212    1.492231
 C    5.868857    1.318634    0.770880
 C    6.806765    1.005333   -0.184774
 C    6.531090    0.035556   -1.170019
 C    5.323614   -0.606990   -1.222802
 C    4.330552   -0.333768   -0.243919
 C    4.617591    0.615150    0.782390
 C    3.677420    0.836810    1.821481
 C    2.459300    0.213993    1.821402
 C    2.125727   -0.670774    0.778750
 C    3.040305   -0.957306   -0.204925
 S    2.518642   -2.028128   -1.537405
 O    1.987441   -1.184861   -2.625774
 O    3.576603   -2.976903   -1.842071
 N    1.180323   -2.774495   -0.953649
 C    1.240791   -3.885941   -0.020340
 C   -0.114389   -4.024894    0.654347
 O   -0.364080   -2.842694    1.425686
 P   -1.713175   -2.009820    1.285307
 O   -2.920940   -2.768963    0.919334
 O   -1.657821   -1.217614    2.640829
 O   -1.360728   -0.820974    0.204203
 P   -1.413404   -0.834353   -1.410171
 O   -0.245491    0.145062   -1.833198
 O   -1.385611   -2.179690   -2.022067
 O   -2.712259    0.056022   -1.631580
 C   -2.955614    0.780993   -2.846899
 C   -3.160303    2.259569   -2.544764
 O   -4.255129    2.452778   -1.640175
 C   -1.982570    2.977568   -1.890661
 O   -2.092442    4.346940   -2.189176
 C   -2.237292    2.737338   -0.399590
 O   -1.722526    3.808992    0.335268
 C   -3.785433    2.638156   -0.336265
 N   -4.245062    1.506865    0.507165
 C   -5.178445    0.634495    0.056765
 C   -5.560853   -0.434968    0.795807
 C   -4.858462   -0.646252    2.014016
 N   -5.113215   -1.740426    2.770296
 N   -3.942188    0.206401    2.461175
 C   -3.669937    1.359997    1.777742
 O   -2.915124    2.224259    2.213832
 H    7.966648    1.600635    2.321003
 H    8.034759    3.112217    1.372834
 H    7.480344    3.139997    3.058231
 H    5.842577    4.124234    0.661723
 H    5.400131    4.192047    2.389253
 H    4.336812    3.370196    1.232253
 H    7.761767    1.519468   -0.203826
 H    7.287718   -0.189101   -1.915665
 H    5.138184   -1.341393   -1.995050
 H    3.960218    1.501746    2.630030
 H    1.740464    0.388233    2.614871
 H    1.151965   -1.139575    0.768953
 H    0.420483   -2.791827   -1.639276
 H    1.502317   -4.829911   -0.514576
 H    2.004505   -3.672938    0.733592
 H   -0.910770   -4.177117   -0.080645
 H   -0.105286   -4.872377    1.344519
 H   -2.437863   -0.593754    2.757796
 H    0.573989   -0.304265   -2.171995
 H   -3.863193    0.360749   -3.286448
 H   -2.128063    0.659045   -3.552342
 H   -3.425858    2.761630   -3.479774
 H   -1.015879    2.568136   -2.208142
 H   -1.781885    4.814495   -1.398334
 H   -1.790290    1.790474   -0.086935
 H   -1.941437    3.595378    1.259511
 H   -4.207823    3.559910    0.074671
 H   -5.580761    0.853848   -0.922585
 H   -6.308551   -1.129832    0.438967
 H   -5.411523   -2.569779    2.277691
 H   -4.446434   -1.917654    3.509388
