49 
2h02_ligand_dft.xyz
 O   -5.927466    0.643518    0.931262
 S   -5.933022   -0.416624   -0.038487
 O   -6.959510   -1.431685   -0.098588
 O   -5.858160    0.347908   -1.458282
 N   -4.503705   -1.276308   -0.054592
 C   -3.261884   -0.711191    0.340874
 C   -2.872363    0.552562   -0.099839
 C   -2.404444   -1.456435    1.147445
 C   -1.160645   -0.945304    1.495654
 C   -0.751203    0.317776    1.066433
 C   -1.635334    1.056914    0.276524
 C    0.609638    0.864007    1.429480
 C    1.708875    0.556519    0.368229
 C    3.038986    1.187092    0.779432
 O    3.757855    1.826367    0.053289
 O    3.344641    0.880459    2.049014
 C    4.652423    1.277292    2.465647
 C    1.295693    1.173978   -0.970429
 O    1.090466    2.490927   -0.849646
 C    0.724261    3.164430   -2.053123
 O    1.119965    0.568738   -1.999978
 C    1.918371   -0.978509    0.225632
 C    3.267309   -1.402863   -0.315852
 C    3.542305   -1.402664   -1.685389
 C    4.797814   -1.776403   -2.153722
 C    5.798349   -2.156127   -1.263205
 C    5.533405   -2.166134    0.102718
 C    4.275951   -1.794202    0.569149
 H   -5.912349   -0.313249   -2.167555
 H   -4.678751   -2.222086    0.265153
 H   -3.531998    1.142255   -0.726605
 H   -2.709018   -2.434994    1.509662
 H   -0.505151   -1.538329    2.127510
 H   -1.348410    2.050156   -0.056108
 H    0.944584    0.439334    2.379469
 H    0.549783    1.947948    1.563644
 H    5.405173    0.779287    1.849086
 H    4.771467    2.359382    2.378600
 H    4.736429    0.963501    3.505673
 H    1.507841    3.047426   -2.804776
 H   -0.213761    2.762858   -2.445432
 H    0.610008    4.212493   -1.779061
 H    1.112767   -1.364773   -0.403905
 H    1.793907   -1.415033    1.221547
 H    2.766935   -1.096456   -2.379324
 H    4.995229   -1.769875   -3.221760
 H    6.777618   -2.446637   -1.632195
 H    6.302822   -2.470622    0.806660
 H    4.071786   -1.806722    1.637144
