81 
2h13_ligand_xtb.xyz
 N   -1.849105    1.282703   -0.306632
 C   -1.441826    1.622589   -1.684832
 C    0.008673    2.123733   -1.724047
 O    0.341863    3.127523   -2.310871
 C   -2.383877    2.663729   -2.264670
 N    0.889542    1.317278   -1.092551
 C    2.304383    1.661823   -1.051113
 C    3.086634    0.386873   -0.742242
 O    3.850740    0.298099    0.200732
 C    2.587799    2.797984   -0.058779
 C    2.136981    2.464191    1.363847
 C    1.735265    3.707805    2.168999
 N    0.749931    4.543951    1.507338
 C   -0.467939    4.115246    1.095859
 N   -1.128933    4.927977    0.228138
 N   -1.038049    3.006289    1.440219
 N    2.838190   -0.590148   -1.637250
 C    3.030727   -2.033035   -1.477111
 C    1.843913   -2.485953   -0.607601
 O    0.768926   -2.788151   -1.099022
 C    4.430139   -2.476862   -0.981581
 O    4.672037   -2.211643    0.375458
 C    5.516571   -1.873147   -1.870241
 N    2.035351   -2.375369    0.709834
 C    0.949444   -2.691217    1.608304
 C    1.278318   -2.220542    3.031926
 C    1.564641   -0.728376    3.135383
 C   -0.327199   -2.028501    1.070394
 O   -0.382480   -0.831268    0.828965
 N   -1.375217   -2.870123    1.015893
 C   -2.732177   -2.571370    0.587661
 C   -2.778582   -2.116960   -0.873704
 O   -2.076818   -1.288363   -1.377350
 C   -3.394641   -1.547530    1.527273
 C   -4.890472   -1.396058    1.257583
 C   -5.197271   -0.565173    0.024917
 O   -4.459655    0.313217   -0.391195
 N   -6.364371   -0.845821   -0.570700
 O   -3.730881   -2.772304   -1.532353
 H   -1.381424    0.413158    0.006696
 H   -1.603543    2.091942    0.434042
 H   -2.862843    1.080889   -0.306394
 H   -1.488272    0.707305   -2.284912
 H   -2.274947    3.604697   -1.734745
 H   -3.411185    2.317411   -2.194244
 H   -2.139682    2.841342   -3.307292
 H    0.577482    0.514478   -0.562296
 H    2.580040    2.020707   -2.052547
 H    3.654178    3.020424   -0.078810
 H    2.046691    3.669020   -0.431278
 H    2.938280    1.956961    1.898574
 H    1.290085    1.780197    1.313134
 H    2.610760    4.331407    2.348593
 H    1.343938    3.392930    3.143184
 H    1.090560    5.398870    1.098820
 H   -2.123635    4.799799    0.160078
 H   -0.786372    5.857658    0.061673
 H   -0.519151    2.474410    2.125035
 H    2.159839   -0.364866   -2.351489
 H    2.888409   -2.469156   -2.470401
 H    4.452522   -3.570508   -1.065947
 H    4.703757   -1.235519    0.478234
 H    5.513298   -0.788819   -1.785332
 H    5.362784   -2.149156   -2.909143
 H    6.486772   -2.241213   -1.548306
 H    2.993007   -2.300410    1.057537
 H    0.797779   -3.781548    1.629133
 H    2.153577   -2.780580    3.367144
 H    0.442460   -2.484762    3.683110
 H    2.382714   -0.446663    2.478377
 H    1.841142   -0.479199    4.156147
 H    0.685134   -0.151081    2.864749
 H   -1.161911   -3.851772    1.094810
 H   -3.296574   -3.506907    0.640733
 H   -3.248424   -1.905379    2.547799
 H   -2.901654   -0.581026    1.433418
 H   -5.347427   -0.874068    2.102604
 H   -5.363862   -2.374467    1.170839
 H   -6.995131   -1.544413   -0.219335
 H   -6.662543   -0.287965   -1.355424
 H   -3.754859   -2.513670   -2.468835
