44 
2h15_ligand_xtb.xyz
 C   -1.121070    3.371293    1.416790
 C   -0.799288    2.990921   -0.027417
 C   -1.222300    4.081700   -1.009868
 O   -1.457655    1.779896   -0.397972
 O    0.599987    2.737202   -0.134717
 C    0.789048    1.456430   -0.683743
 C    2.050519    0.817943   -0.126990
 O    2.463851   -0.242920   -0.954452
 C    3.270705   -1.104263   -0.161886
 C    4.758753   -0.802993   -0.368264
 C    2.951204   -2.554243   -0.522704
 O    2.944839   -0.825592    1.202352
 C    1.913712    0.130832    1.238399
 C    0.547618   -0.556293    1.379678
 O   -0.531314    0.277865    1.001319
 C   -0.531916    0.739029   -0.341303
 C   -0.917080   -0.343368   -1.365021
 N   -2.250876   -0.853880   -1.215980
 S   -2.503883   -2.010985   -0.062576
 O   -1.253511   -2.676028    0.168735
 O   -3.622140   -2.804217   -0.446123
 N   -2.998392   -1.118585    1.253573
 H   -0.872783    2.538911    2.069153
 H   -0.531833    4.238888    1.697045
 H   -2.179260    3.595335    1.507117
 H   -0.726939    5.011790   -0.750720
 H   -2.298833    4.209566   -0.963088
 H   -0.941107    3.794758   -2.019322
 H    0.897710    1.517607   -1.778551
 H    2.826236    1.599547   -0.077993
 H    5.032916   -1.006698   -1.398609
 H    4.960241    0.240982   -0.143545
 H    5.344392   -1.425516    0.300431
 H    3.201071   -2.725982   -1.565032
 H    3.534648   -3.215573    0.110005
 H    1.895132   -2.762321   -0.373872
 H    2.098701    0.817110    2.068895
 H    0.361618   -0.803944    2.426643
 H    0.535807   -1.484939    0.801275
 H   -0.817872    0.085350   -2.365914
 H   -0.240342   -1.192375   -1.271921
 H   -2.962549   -0.142168   -1.176862
 H   -2.244960   -0.527652    1.579654
 H   -3.356883   -1.711243    1.984110
