66 
2h1h_ligand_dft.xyz
 N    4.114033    0.275262   -0.600524
 C    3.341283    0.357226   -1.724142
 N    2.617096    1.446078   -1.801590
 C    2.940806    2.137522   -0.646664
 C    2.489490    3.325086   -0.060068
 N    1.416786    4.041716   -0.554090
 N    3.027176    3.740889    1.088247
 C    3.934783    2.965354    1.689365
 N    4.392329    1.780765    1.286533
 C    3.875753    1.424405    0.105334
 P    0.246758   -1.074213   -0.844487
 O   -0.834645   -2.073307   -0.775576
 O    0.511157   -0.574825   -2.326115
 O    0.071400    0.265649    0.035711
 P   -0.877505    1.541099   -0.371256
 O   -0.569404    2.551400    0.796175
 O   -0.636309    2.022659   -1.745316
 O   -2.318095    0.974787   -0.053319
 C   -3.430345    1.076639   -0.997048
 C   -3.318154   -0.054793   -2.027541
 C   -3.975546   -1.339776   -1.522738
 C   -4.099448   -1.356658    0.002844
 C   -4.889707   -0.142918    0.489145
 C   -4.672837    0.199010    1.962830
 C   -5.190089   -0.862219    2.925754
 F   -3.976880    0.387871   -3.161803
 O   -3.353586   -2.520507   -1.967225
 O   -4.802330   -2.514700    0.390196
 O   -4.591576    1.054258   -0.276041
 O   -5.381272    1.383489    2.287177
 O   -5.001577   -0.440627    4.256345
 C    4.718934   -0.941006   -0.041034
 C    4.129914   -1.216390    1.367599
 O    5.002567   -0.888007    2.408481
 C    3.891213   -2.726124    1.326562
 C    3.592528   -2.969993   -0.153626
 O    4.400177   -2.021640   -0.863853
 O    5.069725   -3.416984    1.649440
 C    2.137016   -2.857347   -0.576613
 O    1.633015   -1.557834   -0.214388
 H    3.334625   -0.443987   -2.447669
 H    1.430851    5.027160   -0.319259
 H    1.139143    3.827549   -1.506934
 H    4.332672    3.343164    2.626597
 H    0.874835    0.337709   -2.378285
 H    0.081825    3.224441    0.467784
 H   -3.380039    2.040696   -1.505312
 H   -2.272306   -0.219687   -2.300405
 H   -4.990243   -1.354163   -1.934678
 H   -3.092258   -1.355972    0.446175
 H   -5.952666   -0.331133    0.309871
 H   -3.596630    0.342697    2.138722
 H   -6.252613   -1.053824    2.707733
 H   -4.647833   -1.800030    2.792861
 H   -2.431601   -2.498571   -1.648977
 H   -4.445264   -3.221275   -0.170157
 H   -5.100168    2.056482    1.653779
 H   -5.350905    0.460428    4.294450
 H    5.803687   -0.811409    0.004970
 H    3.168589   -0.701021    1.464542
 H    5.066327    0.083954    2.409882
 H    3.054397   -3.024884    1.972769
 H    3.943251   -3.967301   -0.434870
 H    5.512548   -2.894579    2.335372
 H    2.072168   -2.986168   -1.662117
 H    1.531267   -3.625971   -0.087821
