52 
2h21_ligand_xtb.xyz
 N    2.617926    2.047500    0.624073
 C    3.097460    0.715111    0.219113
 C    4.575719    0.822124   -0.155276
 O    5.228866   -0.323387   -0.050080
 O    5.066672    1.859407   -0.512301
 C    2.316741    0.202262   -1.007424
 C    2.459144   -1.299246   -1.180274
 S    1.551794   -2.209504    0.364204
 C    2.584182   -3.679074    0.062304
 C    0.033102   -2.425670   -0.655930
 C   -1.205132   -2.816668    0.145803
 O   -1.433781   -1.938715    1.245106
 C   -2.492604   -2.730684   -0.695219
 O   -3.435564   -3.598803   -0.161564
 C   -2.897367   -1.249041   -0.511659
 O   -4.271047   -1.094504   -0.594547
 C   -2.312816   -0.930174    0.896217
 N   -1.598018    0.342084    0.858600
 C   -0.335084    0.551436    1.237632
 N    0.054552    1.789310    0.976075
 C   -1.012761    2.435689    0.392050
 C   -1.280021    3.731208   -0.113458
 N   -0.403294    4.739067   -0.125128
 N   -2.488863    3.941520   -0.635724
 C   -3.390823    2.983016   -0.664736
 N   -3.265314    1.744220   -0.209578
 C   -2.068735    1.512216    0.317646
 H    3.114521    2.341588    1.462798
 H    2.885564    2.702817   -0.111766
 H    1.137780    2.033328    0.909007
 H    2.977038    0.016501    1.050070
 H    6.158908   -0.227102   -0.317409
 H    2.668975    0.738290   -1.895367
 H    1.260927    0.454038   -0.877163
 H    3.506090   -1.577484   -1.126566
 H    2.061821   -1.611119   -2.142233
 H    2.158222   -4.522167    0.592187
 H    3.578133   -3.463347    0.441464
 H    2.632180   -3.861021   -1.004781
 H    0.256757   -3.198626   -1.387282
 H   -0.116313   -1.477909   -1.169891
 H   -1.094331   -3.814762    0.574031
 H   -2.306895   -2.954205   -1.756097
 H   -4.318992   -3.258648   -0.363083
 H   -2.380380   -0.634305   -1.264399
 H   -4.488214   -0.150682   -0.561547
 H   -3.117300   -0.852556    1.641123
 H    0.268751   -0.214449    1.685766
 H   -0.725018    5.628354   -0.471778
 H    0.481719    4.682657    0.345734
 H   -4.341828    3.235533   -1.110221
 H    0.827051   -3.055566    1.478269
