27 
2h3e_ligand_dft.xyz
 O   -4.749836    0.530013   -0.028662
 P   -3.323989   -0.199840   -0.221417
 O   -3.313412   -1.232238    0.994434
 O   -3.089977   -0.703418   -1.590798
 C   -2.122115    1.065902    0.322794
 C   -0.777102    0.410430    0.575782
 O   -0.684783   -0.653413    1.200660
 N    0.299224    1.039645    0.084583
 C    1.644042    0.546789    0.273519
 C    1.882468   -0.714816   -0.578125
 C    3.045881   -1.557087   -0.123521
 O    3.090349   -2.724668   -0.771148
 O    3.859841   -1.259076    0.727678
 C    2.568287    1.720157   -0.109909
 O    2.114491    2.718009   -0.653495
 N    3.867441    1.550371    0.193692
 H   -5.257796    0.453291   -0.847770
 H   -2.376485   -1.343192    1.283885
 H   -2.483630    1.496570    1.262648
 H   -2.067273    1.858880   -0.426646
 H    0.244059    1.933400   -0.393239
 H    1.795294    0.289968    1.327631
 H    0.989271   -1.343930   -0.520567
 H    2.020232   -0.461188   -1.635413
 H    3.855737   -3.212819   -0.425935
 H    4.518241    2.276821   -0.062630
 H    4.193381    0.689781    0.618781
