67 
2h44_ligand_dft.xyz
 C   -4.526566    3.983495    0.232715
 O   -3.331050    4.058602   -0.522500
 C   -2.357292    3.170052   -0.232900
 C   -2.299977    2.424681    0.947928
 C   -1.300461    1.474185    1.113242
 C   -1.360058    3.010863   -1.203123
 C   -0.371028    2.060917   -1.029269
 C   -0.351424    1.253139    0.115710
 C    0.569677    0.111644    0.180046
 O    1.828741    0.424238   -0.198606
 C    0.209765   -1.153216    0.520469
 C    1.183362   -2.235534    0.497352
 C    2.515008   -1.852508    0.072941
 C    2.803367   -0.521993   -0.263449
 O    0.881787   -3.404032    0.804908
 C    3.566043   -2.802258   -0.000782
 C    4.829901   -2.392595   -0.398069
 C    5.062096   -1.050622   -0.716275
 C    4.057077   -0.078826   -0.671971
 O    3.359207   -4.084208    0.305734
 O    6.296020   -0.628249   -1.084331
 C    4.325075    1.380618   -0.965737
 C    4.619893    2.141089    0.303668
 C    3.879171    3.087724    0.888637
 C    2.573305    3.619469    0.359432
 C    4.318405    3.710938    2.189690
 O   -1.068387   -1.406261    0.929614
 C   -1.842954   -2.278487    0.101750
 O   -2.089876   -1.754815   -1.157143
 C   -3.110022   -2.548701    0.923533
 O   -3.865786   -3.615125    0.372791
 C   -4.028764   -1.334451    0.892512
 O   -5.262911   -1.599490    1.531872
 C   -4.265008   -0.883810   -0.547226
 O   -5.051399    0.291732   -0.553086
 C   -2.931927   -0.595863   -1.230005
 C   -3.073417   -0.244416   -2.695545
 H   -5.237397    4.641396   -0.268174
 H   -4.376889    4.336535    1.260679
 H   -4.910731    2.956646    0.240328
 H   -3.043318    2.552162    1.725601
 H   -1.285550    0.867782    2.011700
 H   -1.411456    3.612296   -2.104161
 H    0.369645    1.905790   -1.807715
 H    5.626077   -3.129566   -0.445823
 H    2.408040   -4.165840    0.565624
 H    6.901474   -1.379380   -1.089248
 H    5.185106    1.446934   -1.639397
 H    3.469091    1.806310   -1.494446
 H    5.540387    1.832335    0.799559
 H    1.752308    3.371185    1.044001
 H    2.308374    3.221558   -0.620872
 H    2.607295    4.713719    0.284905
 H    4.466075    4.792717    2.075069
 H    3.550359    3.578412    2.963050
 H    5.251883    3.276009    2.558619
 H   -1.285923   -3.202686   -0.068728
 H   -2.815380   -2.770108    1.956655
 H   -3.398461   -4.442817    0.533291
 H   -3.559578   -0.509246    1.437495
 H   -5.514153   -2.488977    1.238928
 H   -4.774003   -1.694203   -1.093045
 H   -5.773041    0.109374    0.066129
 H   -2.457816    0.234544   -0.702405
 H   -3.536618   -1.070121   -3.245612
 H   -2.089684   -0.042660   -3.128679
 H   -3.696357    0.647551   -2.798981
