29 
2h4k_ligand_dft.xyz
 C    5.319896   -0.754671    0.226822
 C    4.984799    0.347047   -0.554935
 C    3.665051    0.777660   -0.623970
 C    2.665704    0.108495    0.091138
 C    3.010570   -0.994319    0.881028
 C    4.330453   -1.423371    0.942999
 C    1.270677    0.576396    0.032306
 C    0.114146   -0.144019   -0.124919
 C   -1.050780    0.670261   -0.143308
 C   -0.779966    2.004778   -0.008491
 S    0.915037    2.267034    0.164903
 C   -1.708379    3.162058    0.019395
 O   -1.330397    4.280721    0.255756
 O   -2.996109    2.884041   -0.232132
 O   -2.318393    0.182150   -0.333917
 C   -2.895050   -0.513618    0.786473
 C   -3.694268   -1.719090    0.299384
 O   -4.435944   -2.302437    1.041144
 O   -3.491847   -2.078622   -0.968670
Br   -0.005778   -1.998615   -0.387657
 H    6.350540   -1.091662    0.278612
 H    5.750748    0.870601   -1.118209
 H    3.404177    1.625740   -1.250735
 H    2.244485   -1.510268    1.450209
 H    4.587773   -2.278355    1.560250
 H   -3.095458    1.944285   -0.465836
 H   -3.556375    0.161362    1.335324
 H   -2.109989   -0.871044    1.458947
 H   -2.829843   -1.484144   -1.359974
