19 
2h4n_ligand_dft.xyz
 C   -0.986301    0.279653    0.006106
 C    1.308125    0.716185   -0.001717
 C    3.514271   -0.329741    0.006665
 C    4.988299   -0.009484   -0.014949
 N   -3.573538    0.934706    0.512081
 N    0.600762    1.813824   -0.010832
 N   -0.734715    1.548156   -0.009148
 N    2.683068    0.776531   -0.003750
 O   -3.007720   -0.501431   -1.455181
 O   -2.754965   -1.401091    0.903355
 O    3.054493   -1.453637    0.028439
 S   -2.673532   -0.322806   -0.059643
 S    0.401398   -0.765186    0.024877
 H    5.261779    0.622371    0.836389
 H    5.548361   -0.942793    0.032091
 H    5.251194    0.524110   -0.934368
 H   -3.479551    1.769206   -0.059262
 H   -3.402286    1.118880    1.495247
 H    3.064766    1.713173   -0.021838
