25 
2h5a_ligand_xtb.xyz
 C   -0.037877   -0.530350    0.955357
 O   -0.792190   -0.675005   -0.218914
 P   -2.293537   -0.071723   -0.194118
 O   -2.241314    1.248566   -1.057133
 O   -3.034779   -1.022556   -1.216026
 O   -2.861673    0.001692    1.151244
 C    0.743905    0.791147    0.900486
 O   -0.160716    1.848245    0.706691
 C    1.763316    0.724302   -0.239322
 O    2.498241    1.925250   -0.234324
 C    2.657638   -0.503413   -0.036033
 O    3.541310   -0.562249   -1.133254
 C    1.761282   -1.745349    0.065767
 O    0.815286   -1.611907    1.113391
 H   -0.713784   -0.527106    1.818786
 H   -1.759792    1.913291   -0.556585
 H   -3.578291   -1.642635   -0.731563
 H    1.280346    0.916763    1.852980
 H    0.378628    2.633940    0.535160
 H    1.226701    0.612006   -1.194169
 H    3.239016    1.808667   -0.841421
 H    3.219894   -0.376889    0.903545
 H    4.072677   -1.363076   -1.072472
 H    1.250103   -1.899773   -0.892150
 H    2.344653   -2.633651    0.318731
