68 
2h5d_ligand_xtb.xyz
 C   -2.000822    2.947118    0.055410
 O   -1.495455    3.907745   -0.495359
 C   -3.118532    2.129336   -0.570191
 C   -2.458845    1.115000   -1.525834
 C   -3.424493    0.004652   -1.860176
 O   -4.104803   -0.079451   -2.841308
 O   -3.457700   -0.899383   -0.857870
 C   -4.319712   -2.017691   -1.038033
 N   -1.591014    2.486977    1.256947
 C   -0.311546    2.916741    1.809027
 C    0.718134    2.099893    1.012659
 O    1.051725    0.973838    1.339683
 C   -0.231954    2.629038    3.296866
 N    1.094418    2.682354   -0.131214
 C    1.885609    1.965674   -1.114270
 C    3.010141    1.241083   -0.355096
 O    3.754802    1.849734    0.387276
 C    2.498152    2.955888   -2.096346
 N    3.155033   -0.077034   -0.586158
 C    2.439792   -0.902438   -1.535258
 C    1.002591   -1.274418   -1.119278
 O    0.114872   -1.316427   -1.955889
 C    3.303016   -2.171584   -1.634115
 C    3.973342   -2.265927   -0.264948
 C    4.214452   -0.805617    0.099723
 N    0.846480   -1.624605    0.161625
 C   -0.422536   -2.122477    0.676010
 C   -0.260437   -3.574223    1.178081
 C   -1.617158   -4.105346    1.635300
 C    0.316252   -4.477360    0.091537
 B   -0.990709   -1.146203    1.834358
 O   -2.094383   -0.367599    1.640586
 O   -0.377400   -1.150692    3.025135
 H   -3.781365    2.784205   -1.135315
 H   -3.689907    1.616532    0.203877
 H   -1.575124    0.670138   -1.063266
 H   -2.162742    1.615505   -2.446909
 H   -5.310478   -1.683432   -1.350017
 H   -4.367628   -2.525509   -0.077872
 H   -3.912397   -2.680073   -1.803423
 H   -1.905007    1.572665    1.569012
 H   -0.203969    3.984381    1.598580
 H   -0.100909    1.560055    3.446693
 H    0.627001    3.139941    3.722899
 H   -1.134200    2.966513    3.800445
 H    0.669377    3.556249   -0.412548
 H    1.237939    1.253328   -1.639071
 H    3.048513    2.426137   -2.869870
 H    1.718092    3.550973   -2.566285
 H    3.183639    3.612455   -1.565614
 H    2.367350   -0.416645   -2.514940
 H    4.057015   -2.037539   -2.410919
 H    2.706141   -3.047417   -1.882157
 H    3.305514   -2.738020    0.455455
 H    4.899657   -2.835814   -0.300025
 H    5.187043   -0.452840   -0.261609
 H    4.163123   -0.603273    1.171448
 H    1.519157   -1.312594    0.844476
 H   -1.094272   -2.141472   -0.191268
 H    0.418762   -3.559653    2.036047
 H   -1.515177   -5.110753    2.036779
 H   -2.037939   -3.466669    2.408228
 H   -2.309261   -4.139886    0.796275
 H    1.319679   -4.163903   -0.182679
 H   -0.307450   -4.442018   -0.799084
 H    0.363654   -5.506289    0.441369
 H   -2.539008   -0.506098    0.796186
 H   -0.731660   -0.548183    3.680469
