69 
2h5j_ligand_xtb.xyz
 C   -5.747717    2.175396   -0.564520
 O   -6.244156    1.197582   -0.044376
 C   -6.548187    3.342033   -1.105102
 N   -4.414669    2.325185   -0.708910
 C   -3.444141    1.354077   -0.267066
 C   -2.067416    2.007962   -0.399683
 O   -1.895299    2.995025   -1.091013
 C   -3.507736    0.092115   -1.147558
 C   -2.722066   -1.096114   -0.647535
 O   -2.192902   -1.175305    0.443264
 O   -2.709772   -2.065692   -1.528831
 N   -1.105777    1.411223    0.322666
 C    0.293589    1.614898    0.018961
 C    0.744792    0.415490   -0.828176
 O   -0.083745   -0.271940   -1.414508
 C    1.108342    1.824102    1.296202
 C    0.614067    3.046017    2.058484
 S    1.692280    3.440588    3.472893
 C    3.098521    4.174755    2.588012
 N    2.054426    0.171437   -0.867851
 C    2.639029   -0.904443   -1.649640
 C    2.483485   -2.230311   -0.867716
 O    3.426106   -2.824729   -0.389852
 C    4.118041   -0.619662   -1.896864
 C    4.392875    0.749131   -2.536085
 C    4.691564    1.835413   -1.518361
 O    4.138697    1.921424   -0.434647
 N    5.615751    2.733651   -1.899716
 N    1.204204   -2.631769   -0.775197
 C    0.800848   -3.722284    0.084583
 C   -0.173596   -4.663085   -0.656922
 O   -1.523606   -4.283693   -0.565298
 C    0.205807   -3.125442    1.380265
 C   -0.335164   -4.155950    2.329483
 O    0.262972   -4.122652    3.514349
 O   -1.226814   -4.933091    2.077736
 H   -6.311266    4.242407   -0.542762
 H   -7.608040    3.126736   -1.007313
 H   -6.306622    3.510537   -2.151830
 H   -4.011010    3.123268   -1.184201
 H   -3.646845    1.070198    0.772591
 H   -4.554691   -0.223114   -1.194258
 H   -3.177463    0.314990   -2.163605
 H   -2.224872   -2.873359   -1.205931
 H   -1.344310    0.517030    0.743234
 H    0.346686    2.513745   -0.610609
 H    1.030817    0.941825    1.934513
 H    2.156350    1.973593    1.039200
 H   -0.374978    2.874086    2.479451
 H    0.576443    3.925036    1.414444
 H    3.551053    3.443213    1.924807
 H    3.813839    4.478880    3.344492
 H    2.756490    5.042080    2.029736
 H    2.726313    0.800169   -0.429542
 H    2.083798   -0.991624   -2.593138
 H    4.640380   -0.698052   -0.941504
 H    4.503796   -1.409827   -2.540734
 H    5.232504    0.671932   -3.227099
 H    3.518324    1.071462   -3.108065
 H    6.091486    2.680782   -2.782371
 H    5.848847    3.487593   -1.273211
 H    0.475570   -2.019323   -1.138247
 H    1.715512   -4.277641    0.319996
 H    0.080043   -4.661622   -1.719868
 H   -0.050064   -5.681063   -0.271665
 H   -1.812763   -4.485191    0.344740
 H    0.978650   -2.549618    1.888944
 H   -0.621056   -2.457447    1.107440
 H   -0.118417   -4.779221    4.119974
