19 
2h6b_ligand_xtb.xyz
 O    3.855217   -1.202172    0.269550
 C    3.040140   -0.329859    0.228601
 O    2.811600    0.469087    1.278048
 C    2.205419   -0.017858   -1.016661
 C    0.783964    0.313079   -0.667921
 C    0.376057    1.628576   -0.467480
 C   -0.922997    1.923883   -0.099278
 C   -1.853697    0.906911    0.086434
 O   -3.112419    1.215308    0.445031
Cl   -2.597540   -1.691653    0.117038
 C   -1.435967   -0.412668   -0.112292
 C   -0.139629   -0.709618   -0.480410
 H    2.093795    1.099361    1.108366
 H    2.263859   -0.882578   -1.677235
 H    2.685043    0.828489   -1.515672
 H    1.072939    2.440256   -0.624297
 H   -1.243932    2.942244    0.047699
 H   -3.624790    0.394979    0.528893
 H    0.156350   -1.737125   -0.624405
