97 
2h9m_ligand_dft.xyz
 N    0.055903   -0.919016   -3.102354
 C   -1.084297   -1.886187   -3.242929
 C   -2.012684   -1.531022   -2.075209
 O   -1.562724   -1.538168   -0.941553
 C   -0.578865   -3.319768   -3.176042
 N   -3.288208   -1.152940   -2.383227
 C   -3.845256   -0.005192   -1.665838
 C   -2.817033    1.145325   -1.822262
 O   -1.941762    1.083085   -2.682515
 C   -4.298438   -0.288386   -0.223410
 C   -5.170675   -1.552814   -0.113451
 C   -4.431115   -2.818175    0.340880
 N   -4.233178   -2.888292    1.782945
 C   -3.074867   -2.694707    2.461115
 N   -3.131835   -2.986952    3.798433
 N   -1.961290   -2.210616    1.971927
 N   -2.946167    2.219302   -1.020284
 C   -1.846721    3.150225   -0.920177
 C   -0.628213    2.416212   -0.318953
 O   -0.726524    1.269465    0.106268
 C   -2.282346    4.346133   -0.060393
 O   -2.756746    3.763890    1.148845
 C   -3.342395    5.201311   -0.740203
 N    0.522802    3.114633   -0.258595
 C    1.798233    2.490524    0.060628
 C    2.134824    1.420905   -1.011913
 O    1.464995    1.285902   -2.027946
 C    1.927097    1.912877    1.489143
 C    1.393563    2.776798    2.644369
 C   -0.082309    2.651530    3.054196
 C   -0.535729    1.311959    3.642518
 N   -0.686573    0.236655    2.617823
 N    3.249934    0.697701   -0.749556
 C    3.625393   -0.455024   -1.552299
 C    2.907853   -1.674389   -0.956356
 O    1.866256   -2.109095   -1.464269
 C    5.161545   -0.634600   -1.730334
 C    6.081506    0.380737   -1.037884
 C    6.163240    0.203202    0.467820
 O    5.169681   -0.110656    1.140241
 N    7.351476    0.429645    1.042686
 N    3.418384   -2.211965    0.161293
 C    2.639641   -3.191175    0.883896
 C    1.391399   -2.559931    1.489773
 O    1.372783   -1.372637    1.790956
 O    0.415152   -3.405726    1.662864
 H    0.740463   -1.249187   -2.374907
 H    0.577830   -0.832485   -3.975860
 H   -0.273880    0.025259   -2.841156
 H   -1.559948   -1.673984   -4.203265
 H   -0.118713   -3.510926   -2.203918
 H    0.158350   -3.511637   -3.960998
 H   -1.412916   -4.011081   -3.321782
 H   -3.475644   -1.110596   -3.375828
 H   -4.737145    0.287303   -2.232427
 H   -4.891564    0.574164    0.101608
 H   -3.431220   -0.346717    0.440131
 H   -5.991791   -1.371022    0.588014
 H   -5.639903   -1.758814   -1.081825
 H   -3.459910   -2.911338   -0.148810
 H   -5.012714   -3.699300    0.052851
 H   -5.046455   -3.132309    2.329411
 H   -3.765948   -3.708912    4.109335
 H   -2.238205   -3.000269    4.267605
 H   -2.043817   -1.947198    0.990816
 H   -3.521262    2.159643   -0.190099
 H   -1.578432    3.496340   -1.923097
 H   -1.394881    4.960836    0.147173
 H   -3.161690    4.455568    1.687367
 H   -2.951806    5.642489   -1.661962
 H   -3.644997    6.024851   -0.084956
 H   -4.228540    4.609550   -0.985816
 H    0.570243    3.970255   -0.793547
 H    2.540414    3.290341   -0.040843
 H    1.514284    0.905561    1.503015
 H    2.999724    1.785246    1.671766
 H    1.998583    2.545025    3.529356
 H    1.589020    3.832912    2.423055
 H   -0.763453    2.936502    2.247186
 H   -0.250721    3.388337    3.848365
 H   -1.512708    1.440461    4.113149
 H    0.160136    0.949447    4.403732
 H   -0.918776    0.632730    1.690201
 H   -1.393415   -0.493573    2.813856
 H    0.173012   -0.323987    2.444085
 H    3.673652    0.713921    0.174355
 H    3.168459   -0.301315   -2.529860
 H    5.375056   -0.576052   -2.800616
 H    5.448243   -1.644889   -1.423321
 H    5.731731    1.402287   -1.230927
 H    7.077998    0.304028   -1.483168
 H    7.433124    0.346203    2.046624
 H    8.176096    0.672090    0.515333
 H    4.135035   -1.681859    0.655099
 H    3.249936   -3.606406    1.690383
 H    2.347237   -4.008367    0.223539
 H   -0.445905   -2.942908    1.950697
