61 
2h9p_ligand_xtb.xyz
 N    5.187792    0.879740   -0.494161
 C    4.284084    0.027805   -1.266174
 C    3.444257   -0.800711   -0.280506
 O    3.935551   -1.277016    0.724062
 C    5.013617   -0.963874   -2.180489
 N    2.161814   -0.934058   -0.652592
 C    1.152307   -1.857073   -0.167333
 C   -0.165503   -1.348178   -0.761502
 O   -0.193044   -0.378849   -1.502215
 C    1.097644   -2.071609    1.357004
 C    0.349778   -1.032757    2.200209
 C    1.143025    0.241814    2.487393
 N    1.084875    1.151024    1.364192
 C    2.100560    1.732433    0.745443
 N    3.337778    1.755265    1.240214
 N    1.853056    2.341767   -0.420921
 N   -1.263440   -2.052751   -0.456477
 C   -2.567908   -1.534055   -0.816789
 C   -2.596437   -0.046015   -0.476270
 O   -2.317291    0.336033    0.656141
 C   -3.629004   -2.255370    0.059458
 O   -3.181975   -2.288243    1.388102
 C   -3.855505   -3.686029   -0.413101
 N   -2.971596    0.797521   -1.433886
 C   -3.097523    2.224270   -1.174020
 C   -4.559058    2.609252   -0.970331
 C   -2.214399    2.580458    0.027955
 O   -1.002475    2.597253   -0.031268
 O   -2.894352    3.028634    1.062341
 H    4.140572    1.735630    0.574004
 H    5.705242    0.286417    0.152104
 H    5.861552    1.330532   -1.105407
 H    3.637423    0.676964   -1.866785
 H    4.300340   -1.559568   -2.744118
 H    5.651201   -0.431486   -2.883497
 H    5.630394   -1.633275   -1.583772
 H    1.818900   -0.410680   -1.452919
 H    1.350299   -2.843671   -0.617642
 H    2.127488   -2.153617    1.707501
 H    0.625311   -3.040799    1.526670
 H    0.122170   -1.500290    3.158980
 H   -0.598052   -0.753656    1.739255
 H    2.179412   -0.024366    2.701803
 H    0.723126    0.739433    3.368201
 H    0.165371    1.300157    0.957654
 H    3.513533    1.221791    2.077638
 H    0.885685    2.465251   -0.692742
 H    2.541903    2.966805   -0.802875
 H   -1.260134   -2.735653    0.290088
 H   -2.760152   -1.695209   -1.882013
 H   -4.574535   -1.695056   -0.018744
 H   -3.043989   -1.378867    1.693709
 H   -4.540423   -4.177035    0.271556
 H   -4.284984   -3.691699   -1.410012
 H   -2.922127   -4.241749   -0.420982
 H   -3.158759    0.470963   -2.368271
 H   -2.674873    2.755829   -2.035376
 H   -5.136823    2.342975   -1.851680
 H   -4.645665    3.678652   -0.805120
 H   -4.968000    2.092096   -0.106882
 H   -2.314282    3.268978    1.802101
