19 
2hb1_ligand_xtb.xyz
 C    1.529453    1.815134   -0.328447
 C    1.490509    0.500279   -0.003075
 S   -0.024186    2.517868   -0.269220
 C   -0.761763    1.008554    0.234526
 C    0.188705    0.007449    0.318472
 C   -2.201458    0.997893    0.517717
 O   -2.923766    1.980116   -0.025376
 O    0.118328   -1.292993    0.622128
 C   -1.111392   -1.975593    0.649771
 C   -1.922402   -1.726923   -0.627315
 O   -3.188144   -2.132629   -0.584094
 O   -2.734665    0.174782    1.224358
 O   -1.446809   -1.217192   -1.599692
Br    2.988398   -0.628985    0.037898
 H    2.383350    2.401493   -0.602922
 H   -2.422657    2.550947   -0.623669
 H   -1.700703   -1.691120    1.529969
 H   -0.841966   -3.036114    0.703287
 H   -3.494444   -2.354041    0.305959
