18 
2hdr_ligand_xtb.xyz
 C   -0.968292   -1.613602    0.001148
 C    0.934532   -0.128372    0.000625
 C    2.409965   -0.019824   -0.000333
 O   -2.201484    1.811093   -0.000056
 C   -1.849081   -0.532388    0.000215
 C    0.393691   -1.413632    0.001169
 C    0.057417    0.964544    0.000498
 C   -1.305192    0.770317    0.000231
 O    2.946676    1.221274    0.000260
 O    3.138046   -0.978476   -0.001767
 N   -3.197541   -0.687087   -0.002159
 H   -1.373124   -2.614308    0.001546
 H   -1.725991    2.649053   -0.000884
 H    1.075586   -2.249178    0.001483
 H    0.415798    1.989197    0.000397
 H    2.273734    1.911885    0.001805
 H   -3.608720   -1.600311    0.001448
 H   -3.778646    0.129874    0.000506
