23 
2hds_ligand_xtb.xyz
 C   -0.624427    1.627318    0.155418
 C   -2.407309    0.019705   -0.015187
 N    1.658327    0.949613   -0.183542
 C    0.315522    0.636159   -0.134042
 C   -1.969290    1.324145    0.206451
 C   -3.837566   -0.384207    0.060252
 C   -1.462868   -0.968722   -0.293792
 C    2.774944   -0.841365    1.540600
 C   -0.119507   -0.670424   -0.363638
 O   -4.748918    0.584797   -0.155871
 O   -4.187038   -1.508468    0.294947
 S    2.943542   -0.122714   -0.108339
 O    2.785059   -1.148527   -1.087149
 O    4.102227    0.711490   -0.146580
 H   -0.290391    2.637902    0.339548
 H    1.921666    1.906368   -0.016327
 H   -2.664381    2.112980    0.463317
 H   -1.812091   -1.975807   -0.461861
 H    1.775888   -1.244657    1.641312
 H    3.512694   -1.628349    1.628232
 H    2.963875   -0.060414    2.264581
 H    0.601876   -1.428115   -0.620823
 H   -4.341731    1.426233   -0.398909
