23 
2hds_ligand_dft.xyz
 C   -0.573061    1.581461    0.071773
 C   -2.414596    0.018445   -0.036040
 N    1.683358    0.888537   -0.414881
 C    0.321121    0.567111   -0.286090
 C   -1.928375    1.309453    0.181661
 C   -3.858270   -0.348330    0.107896
 C   -1.511065   -0.993255   -0.366281
 C    2.686053   -0.614495    1.639127
 C   -0.158838   -0.728624   -0.515328
 O   -4.756229    0.649490   -0.055566
 O   -4.232644   -1.464112    0.358412
 S    2.967890   -0.130418   -0.058823
 O    2.858302   -1.324266   -0.873959
 O    4.128007    0.737479   -0.120043
 H   -0.204568    2.583807    0.272178
 H    1.942886    1.859254   -0.289663
 H   -2.591588    2.112926    0.493212
 H   -1.890546   -1.997473   -0.522768
 H    1.703932   -1.085154    1.717338
 H    3.466630   -1.331002    1.901702
 H    2.749007    0.269576    2.274848
 H    0.523594   -1.512987   -0.821359
 H   -4.326386    1.428652   -0.431198
