70 
2hh5_ligand_dft.xyz
 O    0.826545    2.369328    0.995310
 S    0.744615    1.789795   -0.357564
 O   -0.401927    2.130429   -1.197673
 C    2.267664    2.191751   -1.250375
 C    2.551517    3.663070   -1.159757
 C    1.885153    4.563589   -1.993079
 C    2.133202    5.927953   -1.889373
 C    3.047336    6.402128   -0.952324
 C    3.710461    5.508472   -0.115758
 C    3.459909    4.144519   -0.216847
 C    0.796012   -0.004164   -0.183870
 C    1.779621   -0.510126    0.905023
 N    2.429851   -1.724102    0.503913
 C    3.420689   -1.693596   -0.433554
 O    3.704266   -0.642080   -1.012762
 N    4.085729   -2.870858   -0.688878
 C    4.866495   -2.932590   -1.920870
 C    5.996275   -3.937767   -1.765475
 O    5.501795   -5.203985   -1.379213
 C    4.850804   -5.118206   -0.135057
 C    3.656856   -4.166133   -0.180052
 C    1.017526   -0.828443    2.205441
 O    0.824093   -1.990298    2.544748
 N    0.572553    0.250369    2.874784
 C   -0.439903    0.159743    3.922529
 C   -0.572365    1.521261    4.598433
 C   -1.764235   -0.356329    3.342292
 N   -2.228329    0.479501    2.251897
 C   -3.085971   -0.026493    1.287366
 C   -3.148664    0.578108    0.019321
 C   -4.007544    0.091775   -0.953161
 C   -3.911043   -1.131278    1.547901
 C   -4.771003   -1.616648    0.569199
 C   -4.813990   -1.003243   -0.671449
 O   -5.630781   -1.534368   -1.679014
 C   -6.885245   -1.050072   -1.757366
 F   -7.488979   -1.652204   -2.775476
 F   -7.597372   -1.284613   -0.644929
 F   -6.915759    0.273243   -1.969309
 H    3.058314    1.563644   -0.829267
 H    2.086741    1.856152   -2.275177
 H    1.164325    4.193352   -2.716550
 H    1.610095    6.621248   -2.540727
 H    3.241032    7.467523   -0.872087
 H    4.422893    5.873320    0.617778
 H    3.973017    3.446941    0.439399
 H   -0.242076   -0.299214    0.007167
 H    1.090917   -0.393148   -1.160598
 H    2.531704    0.261389    1.105076
 H    2.114854   -2.547080    0.999023
 H    4.221946   -3.237175   -2.759288
 H    5.253666   -1.934875   -2.127108
 H    6.510678   -4.079217   -2.718800
 H    6.721327   -3.572274   -1.020564
 H    5.555584   -4.774624    0.639645
 H    4.513461   -6.126287    0.117921
 H    2.863286   -4.591504   -0.812621
 H    3.275926   -4.068954    0.839623
 H    0.745619    1.161132    2.454332
 H   -0.100565   -0.581383    4.652827
 H   -1.317543    1.470788    5.396813
 H    0.382459    1.831251    5.033080
 H   -0.894580    2.291801    3.889762
 H   -1.608933   -1.389530    3.002757
 H   -2.508139   -0.382677    4.150246
 H   -1.550546    1.139055    1.894507
 H   -2.507462    1.424986   -0.210396
 H   -4.049754    0.553324   -1.933521
 H   -3.892094   -1.611684    2.519909
 H   -5.408905   -2.471115    0.767295
