45 
2hha_ligand_xtb.xyz
 C   -3.164050    0.494134   -0.433842
 C   -4.479161    1.187548    0.019966
 O   -4.363427    2.204421    0.673407
 C   -5.891899   -0.509260   -1.101575
 C   -7.226537   -0.710896   -1.160210
 C   -7.857808    0.315043   -0.385488
 C   -6.886121    1.107129    0.111067
 C   -1.467031   -1.174273    0.289551
 C    0.640295   -1.202646    0.182920
 C    2.012337   -0.754782    0.108104
 C    2.330806    0.586696    0.327055
 C    3.644892    1.001476    0.220263
 C    4.322275   -1.250671   -0.321456
 C    3.012939   -1.677388   -0.209408
 C   -2.890463   -0.757075    0.438824
 N   -5.650789    0.614503   -0.314782
 N   -2.112519    1.513228   -0.208346
 N   -0.446193   -0.357982    0.269933
 N    0.259361   -2.452113    0.158449
 O   -1.092841   -2.437765    0.226922
 C    4.624041    0.082247   -0.106393
 S    6.323785    0.661085   -0.334052
 O    6.896775   -0.109536   -1.397414
 O    6.269810    2.089360   -0.456587
 C    7.139469    0.227903    1.223680
 C   -3.152826   -0.507774    1.931772
 H   -3.200644    0.218580   -1.489957
 H   -5.100676   -1.057513   -1.569210
 H   -7.730703   -1.493669   -1.690247
 H   -8.912474    0.426209   -0.237396
 H   -6.924680    1.978023    0.733108
 H    1.554471    1.291856    0.582134
 H    3.930340    2.031993    0.361494
 H    5.112177   -1.929470   -0.600995
 H    2.741377   -2.707374   -0.376554
 H   -3.528081   -1.579597    0.105035
 H   -1.934292    2.081330   -1.039235
 H   -1.198093    0.993040    0.085815
 H   -2.525148    2.146757    0.519612
 H    6.631655    0.744583    2.027496
 H    7.094477   -0.846210    1.346352
 H    8.169376    0.557059    1.153902
 H   -2.534593    0.299093    2.317342
 H   -4.197383   -0.263516    2.102977
 H   -2.926167   -1.408319    2.496792
