70 
2hhn_ligand_dft.xyz
 O    0.826548    2.369319    0.995325
 S    0.744621    1.789792   -0.357553
 O   -0.401919    2.130431   -1.197663
 C    2.267672    2.191752   -1.250357
 C    2.551528    3.663070   -1.159730
 C    1.885164    4.563596   -1.993044
 C    2.133220    5.927959   -1.889330
 C    3.047362    6.402124   -0.952285
 C    3.710488    5.508461   -0.115726
 C    3.459928    4.144509   -0.216822
 C    0.796018   -0.004169   -0.183868
 C    1.779622   -0.510131    0.905030
 N    2.429862   -1.724102    0.503924
 C    3.420682   -1.693596   -0.433561
 O    3.704246   -0.642079   -1.012773
 N    4.085721   -2.870857   -0.688895
 C    4.866468   -2.932590   -1.920898
 C    5.996257   -3.937758   -1.765516
 O    5.501794   -5.203978   -1.379235
 C    4.850825   -5.118193   -0.135069
 C    3.656867   -4.166129   -0.180048
 C    1.017518   -0.828457    2.205440
 O    0.824078   -1.990314    2.544734
 N    0.572545    0.250350    2.874790
 C   -0.439912    0.159720    3.922531
 C   -0.572367    1.521233    4.598449
 C   -1.764246   -0.356342    3.342290
 N   -2.228334    0.479493    2.251896
 C   -3.085977   -0.026500    1.287363
 C   -3.148661    0.578101    0.019317
 C   -4.007542    0.091773   -0.953167
 C   -3.911059   -1.131275    1.547898
 C   -4.771020   -1.616641    0.569194
 C   -4.813997   -1.003239   -0.671457
 O   -5.630788   -1.534357   -1.679024
 C   -6.885247   -1.050049   -1.757388
 F   -7.488976   -1.652171   -2.775507
 F   -7.597389   -1.284590   -0.644961
 F   -6.915746    0.273267   -1.969325
 H    3.058319    1.563642   -0.829248
 H    2.086754    1.856158   -2.275160
 H    1.164330    4.193368   -2.716514
 H    1.610113    6.621260   -2.540677
 H    3.241064    7.467517   -0.872042
 H    4.422927    5.873301    0.617807
 H    3.973036    3.446926    0.439416
 H   -0.242071   -0.299219    0.007163
 H    1.090931   -0.393148   -1.160595
 H    2.531699    0.261386    1.105093
 H    2.114849   -2.547085    0.999018
 H    4.221907   -3.237183   -2.759303
 H    5.253629   -1.934874   -2.127147
 H    6.510646   -4.079211   -2.718847
 H    6.721319   -3.572255   -1.020619
 H    5.555616   -4.774597    0.639619
 H    4.513496   -6.126275    0.117926
 H    2.863288   -4.591514   -0.812598
 H    3.275958   -4.068943    0.839633
 H    0.745622    1.161117    2.454348
 H   -0.100576   -0.581414    4.652823
 H   -1.317545    1.470756    5.396828
 H    0.382457    1.831214    5.033099
 H   -0.894579    2.291780    3.889784
 H   -1.608951   -1.389544    3.002755
 H   -2.508153   -0.382686    4.150244
 H   -1.550539    1.139031    1.894500
 H   -2.507455    1.424974   -0.210399
 H   -4.049745    0.553322   -1.933527
 H   -3.892119   -1.611678    2.519907
 H   -5.408928   -2.471103    0.767289
