52 
2hiw_ligand_xtb.xyz
 O   -3.652648    2.191294    1.397106
 C   -3.685881    1.078138    0.914298
 N   -4.746623    0.214612    1.176902
 C   -5.824104    0.687201    2.020414
 C   -4.943893   -0.928995    0.448721
 N   -6.145151   -1.486214    0.472550
 C   -6.306084   -2.587357   -0.268642
 N   -7.536270   -3.140852   -0.274801
 N   -5.374145   -3.163242   -1.028129
 C   -4.175561   -2.598997   -1.028806
 C   -3.881211   -1.470423   -0.291460
 C   -2.542790   -0.818003   -0.169361
 N   -2.724449    0.604731    0.067052
 C   -1.693609    1.478610   -0.355220
 C   -1.999824    2.643460   -1.065393
 C   -3.405920    3.014975   -1.408941
 C   -0.944591    3.458096   -1.457843
 C    0.368153    3.130217   -1.188584
 C   -0.374877    1.132542   -0.089847
 C    0.663058    1.951521   -0.509007
 N    2.007581    1.650103   -0.255224
 C    2.542076    0.481716    0.194183
 O    1.913325   -0.524753    0.442727
 C    4.033314    0.533450    0.346142
 C    4.754829   -0.615558    0.043737
 C    4.700851    1.657780    0.822300
 C    6.076457    1.639528    0.975896
 C    6.802079    0.507607    0.648244
 C    6.133905   -0.616851    0.180400
 C    6.909403   -1.863449   -0.144418
 F    7.008518   -2.687798    0.915553
 F    8.168677   -1.602748   -0.531711
 F    6.350067   -2.581023   -1.129073
 H   -6.724741    0.846893    1.426946
 H   -6.035734   -0.057821    2.786201
 H   -5.503611    1.621621    2.475434
 H   -8.211696   -2.812887    0.390686
 H   -7.648948   -4.036484   -0.712985
 H   -3.424949   -3.086493   -1.637576
 H   -1.958291   -0.945297   -1.084552
 H   -1.981420   -1.281082    0.658991
 H   -3.980892    2.135014   -1.694628
 H   -3.890032    3.459561   -0.539181
 H   -3.423640    3.733298   -2.224782
 H   -1.160326    4.367291   -1.999414
 H    1.167130    3.782854   -1.511242
 H   -0.149253    0.230071    0.451242
 H    2.654885    2.378845   -0.522287
 H    4.228967   -1.493182   -0.300563
 H    4.147163    2.541561    1.105770
 H    6.587739    2.510859    1.354905
 H    7.875592    0.491957    0.756123
