40 
2hl4_ligand_dft.xyz
 S    5.004627    0.161704   -0.296359
 O    5.100302    0.839999   -1.579861
 O    5.827964   -0.990860    0.034951
 N    5.288731    1.293834    0.911414
 C    3.306815   -0.290279   -0.057294
 C    2.984604   -1.302397    0.844245
 C    1.658924   -1.652845    1.027603
 C    0.639364   -0.994897    0.324131
 C    0.977864    0.029866   -0.567699
 C    2.310097    0.369608   -0.765308
 N   -0.682426   -1.424396    0.519074
 C   -1.776054   -0.718323   -0.064695
 C   -3.068778   -1.519218    0.114593
 C   -4.238227   -0.724206   -0.448110
 C   -4.284165    0.679640    0.144099
 C   -2.931577    1.353376   -0.068724
 C   -2.803433    2.728419    0.563778
 O   -1.915167    0.556404    0.534161
 O   -3.024206   -2.745685   -0.576629
 O   -5.478896   -1.337408   -0.171789
 O   -5.277558    1.456407   -0.478480
 O   -1.515599    3.254652    0.348754
 H    6.117199    1.028860    1.435207
 H    5.378323    2.223846    0.514049
 H    3.772039   -1.824535    1.377180
 H    1.402054   -2.458968    1.709551
 H    0.209930    0.584811   -1.093929
 H    2.575134    1.148763   -1.471949
 H   -0.865192   -1.698880    1.477904
 H   -1.584834   -0.607659   -1.142768
 H   -3.237533   -1.673207    1.194290
 H   -4.090819   -0.629582   -1.536475
 H   -4.467458    0.593279    1.227887
 H   -2.737196    1.443832   -1.149570
 H   -3.036692    2.649295    1.637690
 H   -3.522243    3.410603    0.106128
 H   -2.183011   -3.170238   -0.358323
 H   -5.454824   -2.220528   -0.562754
 H   -6.083295    0.921665   -0.474934
 H   -0.897074    2.584788    0.670592
