88 
2hm1_ligand_xtb.xyz
 C    2.954007    2.425767   -1.088430
 C   -0.800746    1.145798   -0.322943
 N   -1.122707   -1.150135    0.329336
 C   -1.346932   -2.584996    0.245775
 C   -3.642995   -2.191956   -0.643905
 C   -5.729182   -1.869187    0.487299
 C   -3.874363   -1.024478   -1.359021
 C   -0.021142   -3.385651    0.120512
 C    0.777426   -3.138421   -1.182675
 C    3.221088   -2.926128   -0.847492
 C    4.209408   -1.509244    0.956896
 C    5.110239   -0.197270    2.891197
 C    5.523290    3.545828    0.379695
 C    6.753812    4.437420    0.495255
 C    5.464971    2.853755   -0.980658
 C    4.344505    1.817763   -1.082992
 S    1.762903    1.063944   -1.122627
 O    2.070103    0.193817   -2.238422
 O    1.774828    0.366337    0.145410
 C    0.105255    1.841913   -1.318809
 C   -0.821866   -0.350979   -0.698152
 O   -0.550759   -0.711398   -1.829874
 C   -2.365055   -2.956869   -0.851117
 C   -4.577818   -2.611813    0.292496
 C   -5.982622   -0.699507   -0.208439
 C   -5.028654   -0.301024   -1.124194
 O    0.846844   -3.082349    1.190431
 N    1.917224   -2.227209   -0.945418
 C    4.303444   -2.016831   -0.332390
 C    5.212743   -0.707486    1.484002
 C    6.329756   -0.435092    0.701212
 C    6.427714   -0.932347   -0.585855
 C    5.412956   -1.715844   -1.108809
 C    5.575728   -1.265895    3.882750
 N   -2.134492    1.705875   -0.267109
 C   -2.915036    1.477546    0.822917
 O   -2.527045    0.749344    1.727260
 F   -5.209308    0.850077   -1.804008
 F   -6.623560   -2.293183    1.386772
 C   -4.230341    2.146113    0.848072
 C   -5.206504    1.638392    1.710903
 N   -6.420922    2.134288    1.807535
 C   -6.736033    3.175925    1.056757
 C   -5.843274    3.777614    0.179065
 C   -4.566398    3.256114    0.073834
 H    2.773550    3.031196   -1.972724
 H    2.745042    2.985192   -0.181577
 H   -0.374744    1.230234    0.684782
 H   -1.475469   -0.667965    1.158753
 H   -1.785998   -2.864433    1.210861
 H   -3.174647   -0.684407   -2.105853
 H   -0.302271   -4.449450    0.152268
 H    1.165543   -4.084977   -1.559415
 H    0.128835   -2.697410   -1.937314
 H    3.484378   -3.314765   -1.833123
 H    3.091223   -3.759782   -0.151640
 H    3.350302   -1.748302    1.567381
 H    4.074530    0.071992    3.108372
 H    5.730015    0.692992    3.010181
 H    5.546677    2.787064    1.164841
 H    4.629614    4.154437    0.529716
 H    6.743511    5.203925   -0.275735
 H    7.662765    3.851839    0.381666
 H    6.780693    4.927807    1.464633
 H    5.349980    3.600594   -1.768249
 H    6.411417    2.338143   -1.149639
 H    4.410084    1.127763   -0.240279
 H    4.464566    1.237179   -1.999356
 H    0.208445    2.903629   -1.117872
 H   -0.206072    1.655506   -2.343984
 H   -1.963196   -2.718250   -1.833631
 H   -2.553731   -4.029163   -0.797435
 H   -4.432809   -3.516302    0.861847
 H   -6.881786   -0.131365   -0.039024
 H    0.397581   -3.218581    2.031069
 H    1.961838   -1.459277   -1.655288
 H    1.761366   -1.733427   -0.047103
 H    7.126937    0.170902    1.105109
 H    7.298498   -0.713259   -1.184049
 H    5.493749   -2.106001   -2.111897
 H    6.609233   -1.539886    3.685629
 H    4.962397   -2.159723    3.797059
 H    5.504699   -0.892177    4.900645
 H   -2.527046    2.111931   -1.101057
 H   -4.978019    0.787970    2.339242
 H   -7.745746    3.545611    1.170517
 H   -6.139569    4.634603   -0.403836
 H   -3.846786    3.723941   -0.582737
