88 
2hm1_ligand_dft.xyz
 C    2.893198    2.401432   -1.058199
 C   -0.787837    0.984709   -0.251675
 N   -1.179921   -1.277849    0.535988
 C   -1.471943   -2.702203    0.467602
 C   -3.721540   -2.176339   -0.585853
 C   -5.783782   -1.449077    0.403560
 C   -3.817507   -1.134014   -1.508506
 C   -0.205894   -3.586686    0.386385
 C    0.652729   -3.470685   -0.885823
 C    3.105065   -3.108995   -0.598323
 C    4.389583   -1.586563    0.931661
 C    5.654381   -0.176160    2.604961
 C    5.111441    4.161102    0.261763
 C    6.222245    5.208648    0.305595
 C    5.325076    3.130666   -0.849061
 C    4.336917    1.962097   -0.828299
 S    1.820768    0.966640   -1.045794
 O    2.165179    0.103744   -2.183932
 O    1.860525    0.350142    0.291871
 C    0.140080    1.649182   -1.263495
 C   -0.845584   -0.525919   -0.527571
 O   -0.575611   -0.975710   -1.640241
 C   -2.514986   -3.083848   -0.610150
 C   -4.713637   -2.333277    0.381983
 C   -5.903253   -0.398644   -0.495272
 C   -4.894575   -0.266080   -1.432595
 O    0.689805   -3.338617    1.451402
 N    1.751580   -2.457445   -0.727700
 C    4.229991   -2.147297   -0.336959
 C    5.473245   -0.761185    1.224766
 C    6.416316   -0.524890    0.219101
 C    6.262458   -1.067933   -1.050877
 C    5.163608   -1.873855   -1.334912
 C    6.525153   -1.066480    3.500403
 N   -2.107387    1.584908   -0.245973
 C   -2.848572    1.507491    0.911258
 O   -2.397596    0.960930    1.914100
 F   -4.927863    0.778399   -2.279287
 F   -6.724736   -1.601253    1.335004
 C   -4.203029    2.116869    0.890156
 C   -5.102985    1.727124    1.888091
 N   -6.355611    2.165009    1.964386
 C   -6.758351    3.033652    1.031906
 C   -5.942998    3.497442    0.002179
 C   -4.637893    3.031556   -0.068446
 H    2.754646    2.887361   -2.030210
 H    2.527571    3.061358   -0.265800
 H   -0.383431    1.131539    0.751652
 H   -1.491550   -0.757817    1.353549
 H   -1.926192   -2.933750    1.439082
 H   -3.060058   -0.987875   -2.270646
 H   -0.566237   -4.625253    0.417175
 H    1.138889   -4.428108   -1.078387
 H    0.058500   -3.188543   -1.750437
 H    3.265299   -3.658976   -1.528734
 H    2.998369   -3.825246    0.219592
 H    3.657818   -1.799752    1.709163
 H    4.674098   -0.029336    3.072456
 H    6.114129    0.815761    2.520708
 H    5.053744    3.641939    1.228388
 H    4.147297    4.669039    0.125724
 H    6.291435    5.748311   -0.645334
 H    7.194908    4.740974    0.493592
 H    6.044699    5.943843    1.095903
 H    5.296002    3.628317   -1.827674
 H    6.332027    2.705449   -0.751987
 H    4.394652    1.448673    0.136426
 H    4.610391    1.230088   -1.594258
 H    0.182523    2.727718   -1.090721
 H   -0.143038    1.436811   -2.296686
 H   -2.063259   -3.047174   -1.603284
 H   -2.817396   -4.120961   -0.425807
 H   -4.677708   -3.134929    1.112673
 H   -6.729275    0.299885   -0.442030
 H    0.237362   -3.446760    2.296704
 H    1.753787   -1.773443   -1.502385
 H    1.587058   -1.887060    0.113777
 H    7.278969    0.100306    0.437072
 H    7.001016   -0.868357   -1.820809
 H    5.045975   -2.304014   -2.325819
 H    7.516369   -1.212730    3.059200
 H    6.068335   -2.052996    3.631080
 H    6.654509   -0.615462    4.488669
 H   -2.600065    1.676012   -1.124492
 H   -4.783329    1.016974    2.645388
 H   -7.785114    3.380832    1.118124
 H   -6.321983    4.212979   -0.718836
 H   -3.972416    3.396527   -0.845143
