42 
2hmv_ligand_xtb.xyz
 P   -0.533127   -2.178229    0.590196
 O   -0.525418   -0.792511    1.048404
 O   -0.398457   -3.271293    1.709569
 O   -1.737938   -2.701433   -0.249214
 P    2.121018   -1.916936    0.073708
 O    2.367457   -2.127706    1.498988
 O    3.172663   -2.613548   -0.890370
 O    0.722508   -2.493045   -0.419493
 N   -0.603125    1.318627   -1.088083
 C   -0.622763    0.181336   -1.824422
 N   -1.737679   -0.490632   -1.723087
 C   -2.513498    0.234652   -0.846582
 C   -3.773026    0.040743   -0.252738
 N   -4.586312   -0.994983   -0.539554
 N   -4.206020    0.957190    0.617432
 C   -3.437528    1.987182    0.914951
 N   -2.231226    2.268296    0.452105
 C   -1.799203    1.365627   -0.431468
 O    2.028308   -0.444516   -0.476852
 C    3.186885    0.359381   -0.649649
 C    2.740967    1.827258   -0.657005
 O    1.623867    1.993178   -1.523312
 C    2.321147    2.352391    0.726593
 O    2.707686    3.689635    0.863580
 C    0.792405    2.201692    0.710476
 O    0.192315    3.236950    1.430424
 C    0.459561    2.257229   -0.803307
 H    0.305780   -3.019391    2.314489
 H   -1.863124   -2.067811   -0.996765
 H    3.498683   -3.432174   -0.517229
 H    0.205065   -0.108493   -2.438972
 H   -5.394195   -1.112707    0.048130
 H   -4.205548   -1.796939   -1.010256
 H   -3.841893    2.684067    1.636527
 H    3.642513    0.105281   -1.610993
 H    3.908079    0.181224    0.152111
 H    3.556466    2.447262   -1.046661
 H    2.767582    1.748560    1.527977
 H    1.982491    4.141212    1.323621
 H    0.506578    1.215139    1.096388
 H   -0.775599    3.119373    1.342879
 H    0.085679    3.262766   -1.066371
