14 
2hnc_ligand_xtb.xyz
 S    1.738178   -0.054514    0.131922
 O    1.943249   -1.465517    0.204701
 O    2.317954    0.809676    1.108222
 N    2.150605    0.460547   -1.398747
 N   -0.569972    1.364131    0.084665
 N   -1.899251    1.279400    0.020976
 S   -1.090100   -1.150222    0.006447
 C   -0.018889    0.215243    0.087664
 C   -2.479058    0.039156   -0.029071
 N   -3.714432   -0.126981   -0.087622
 H    2.648467   -0.241586   -1.920372
 H    2.628841    1.345850   -1.390270
 H   -2.451802    2.123350    0.028613
 H   -4.065353   -1.071176   -0.121724
