50 
2hnx_ligand_xtb.xyz
 C   -4.027982   -1.178914   -0.065712
 O   -4.587590   -0.415674    0.665630
 O   -4.333240   -1.224597   -1.375922
 C   -2.924113   -2.122142    0.366019
 C   -1.564341   -1.567600   -0.078313
 C   -0.418578   -2.506407    0.293896
 C    0.929466   -1.934618   -0.137299
 C    2.095571   -2.853919    0.220553
 C    3.447163   -2.259940   -0.182889
 C    3.899583   -1.106864    0.726440
 C    4.469798    0.083524   -0.048973
 C    3.398817    0.884752   -0.793439
 C    2.571909    1.777358    0.131723
 C    1.314232    2.305277   -0.554895
 C    0.520046    3.240030    0.355036
 C   -0.801507    3.703380   -0.261621
 C   -1.894113    2.631927   -0.298921
 C   -2.426918    2.272059    1.083438
 H   -3.804894   -1.877431   -1.853582
 H   -3.085986   -3.112686   -0.068081
 H   -2.947330   -2.206793    1.452433
 H   -1.409765   -0.597887    0.398162
 H   -1.559647   -1.408655   -1.161072
 H   -0.571302   -3.478540   -0.182121
 H   -0.417584   -2.664522    1.374295
 H    1.067333   -0.962740    0.337927
 H    0.921849   -1.775659   -1.219035
 H    1.958905   -3.810307   -0.290334
 H    2.091389   -3.051831    1.294766
 H    3.376761   -1.912661   -1.215300
 H    4.199873   -3.050342   -0.164372
 H    4.660305   -1.471201    1.419599
 H    3.060591   -0.765059    1.332466
 H    5.208953   -0.285695   -0.763706
 H    4.988117    0.749424    0.644849
 H    2.732293    0.197236   -1.316928
 H    3.878092    1.510942   -1.549361
 H    3.185139    2.616556    0.468329
 H    2.275450    1.217270    1.021114
 H    0.690915    1.457674   -0.847682
 H    1.593075    2.838995   -1.466755
 H    1.133569    4.118302    0.570948
 H    0.325144    2.740954    1.305731
 H   -0.608410    4.050779   -1.279859
 H   -1.177260    4.555274    0.310152
 H   -1.516257    1.734237   -0.792514
 H   -2.723084    3.006873   -0.903290
 H   -1.653973    1.818090    1.699688
 H   -2.786160    3.163805    1.592386
 H   -3.253656    1.570351    1.003215
