38 
2hr6_ligand_dft.xyz
 N    3.250579    0.422812    0.022347
 C    2.758050   -0.857039   -0.168249
 N    3.690132   -1.856935   -0.079709
 C    5.071693   -1.751034    0.180561
 C    5.491032   -0.374095    0.387068
 C    4.588966    0.617428    0.311569
 O    1.581909   -1.090741   -0.416085
 O    5.766593   -2.742293    0.215999
 C    2.344634    1.574418    0.043984
 C    1.513790    1.836164   -1.209099
 C    0.414469    2.716679   -0.629603
 C    0.207334    2.095429    0.773046
 O    1.425179    1.421036    1.095489
 O    0.941319    4.028759   -0.540650
 C   -0.969769    1.144478    0.877892
 O   -1.093087    0.400464   -0.343330
 P   -1.721327   -1.061647   -0.370399
 O   -2.128107   -1.431708   -1.743562
 O   -0.759243   -2.004564    0.445247
 O   -2.981035   -1.018486    0.642046
 P   -4.393422   -0.277728    0.237667
 O   -4.736636   -0.876478   -1.180252
 O   -4.319124    1.181452    0.421034
 O   -5.432828   -1.020367    1.191069
 H    3.336737   -2.793240   -0.236502
 H    6.531094   -0.178388    0.606836
 H    4.866313    1.652585    0.472513
 H    2.991281    2.438830    0.237817
 H    1.091985    0.907782   -1.592827
 H    2.076297    2.354592   -1.987345
 H   -0.502505    2.689391   -1.227798
 H    0.059216    2.891813    1.513770
 H    0.248527    4.614872   -0.213600
 H   -1.906214    1.692669    1.017989
 H   -0.812604    0.471161    1.725980
 H    0.180309   -1.854711    0.181448
 H   -3.926211   -1.132740   -1.685735
 H   -5.738657   -0.416291    1.880920
