38 
2hr6_ligand_xtb.xyz
 N    3.170588    0.492034    0.017584
 C    2.692361   -0.802504   -0.040162
 N    3.649937   -1.776070   -0.052232
 C    5.041791   -1.632579   -0.012249
 C    5.442390   -0.241699    0.061085
 C    4.516260    0.729285    0.081260
 O    1.509551   -1.081237   -0.084641
 O    5.757386   -2.602084   -0.035899
 C    2.241758    1.608951    0.074087
 C    1.352937    1.788088   -1.158267
 C    0.227380    2.635645   -0.569626
 C    0.121239    2.080804    0.872453
 O    1.368007    1.457196    1.165472
 O    0.628098    3.985234   -0.593181
 C   -1.039631    1.095101    1.028125
 O   -1.159812    0.323659   -0.160000
 P   -1.639525   -1.185007   -0.109632
 O   -1.780286   -1.711372   -1.468215
 O   -0.776037   -1.968893    0.933285
 O   -3.033386   -1.158615    0.687660
 P   -4.227071   -0.267853    0.016240
 O   -4.234098   -0.667072   -1.494060
 O   -4.112903    1.148994    0.352823
 O   -5.508278   -0.975222    0.610469
 H    3.302480   -2.728552   -0.106301
 H    6.494403   -0.021243    0.104559
 H    4.795539    1.771184    0.143127
 H    2.850948    2.516118    0.218963
 H    0.957050    0.829214   -1.485288
 H    1.862940    2.302711   -1.967820
 H   -0.715117    2.492794   -1.105190
 H   -0.015750    2.898718    1.592900
 H   -0.111218    4.543689   -0.330698
 H   -1.980842    1.632925    1.174636
 H   -0.847130    0.445351    1.885182
 H    0.152538   -1.892330    0.658972
 H   -3.423773   -1.155312   -1.750144
 H   -5.911648   -0.425356    1.280573
