40 
2hrm_ligand_dft.xyz
 O    3.673764   -4.180057   -0.390256
 C    3.332078   -3.018100   -0.321032
 C    2.084203   -2.444729   -0.804579
 C    1.844873   -1.131211   -0.662603
 N    4.176373   -2.064984    0.277486
 C    3.968031   -0.715504    0.444934
 O    4.779039    0.019742    0.972318
 N    2.743371   -0.266708   -0.062448
 C    2.447162    1.141966    0.056766
 C    2.338520    1.917252   -1.250148
 C    1.538925    3.142071   -0.804237
 O    2.337329    4.085313   -0.122355
 O    1.159436    1.299629    0.655187
 C    0.576403    2.543463    0.233941
 C   -0.808040    2.286188   -0.341434
 O   -1.615245    1.580534    0.597474
 P   -1.598446   -0.029090    0.610794
 O   -1.265408   -0.620950   -0.721759
 O   -0.642343   -0.435858    1.823379
 C   -3.239001   -0.485298    1.190103
 P   -4.387165   -0.596990   -0.228076
 O   -5.658693   -1.353434    0.405953
 O   -4.689063    0.703900   -0.858126
 O   -3.748485   -1.748144   -1.132598
 H    1.353977   -3.100681   -1.257197
 H    0.903030   -0.689840   -0.973571
 H    5.058241   -2.410175    0.634989
 H    3.215646    1.566475    0.703715
 H    1.779327    1.337380   -1.993266
 H    3.316570    2.169001   -1.667402
 H    0.992827    3.610444   -1.635202
 H    2.975535    4.454181   -0.745020
 H    0.512420    3.205695    1.101842
 H   -0.749438    1.720234   -1.277309
 H   -1.313126    3.236226   -0.529513
 H    0.214527    0.027248    1.716425
 H   -3.600190    0.252363    1.910667
 H   -3.171164   -1.459917    1.682728
 H   -6.470748   -0.906950    0.129502
 H   -2.813053   -1.520614   -1.331431
