40 
2hrm_ligand_xtb.xyz
 O    4.354946   -3.770195   -0.449399
 C    3.803409   -2.700377   -0.352430
 C    2.451113   -2.369388   -0.752574
 C    1.974609   -1.124664   -0.589691
 N    4.481491   -1.607790    0.200047
 C    4.030822   -0.330714    0.378296
 O    4.713286    0.546980    0.851645
 N    2.721506   -0.117744   -0.042356
 C    2.191506    1.217178    0.089879
 C    2.062427    1.981270   -1.232416
 C    1.047664    3.067337   -0.854946
 O    1.642188    4.222440   -0.325878
 O    0.878910    1.183363    0.618755
 C    0.234347    2.407749    0.280710
 C   -1.212569    2.103501   -0.107915
 O   -1.814160    1.314454    0.892936
 P   -1.637714   -0.272769    0.793834
 O   -1.154768   -0.741906   -0.518322
 O   -0.738915   -0.702658    2.035614
 C   -3.280487   -0.879801    1.256276
 P   -4.152239   -0.714747   -0.342120
 O   -5.612843   -1.265924   -0.025469
 O   -4.127161    0.622798   -0.939393
 O   -3.550149   -1.863716   -1.262945
 H    1.844392   -3.149556   -1.176701
 H    0.960608   -0.859165   -0.848917
 H    5.435225   -1.778071    0.502177
 H    2.863314    1.757491    0.775502
 H    1.652540    1.324309   -1.999541
 H    3.015283    2.389612   -1.561330
 H    0.396322    3.324318   -1.701038
 H    2.172335    4.657194   -1.003687
 H    0.256447    3.070057    1.155986
 H   -1.237970    1.559804   -1.057201
 H   -1.794225    3.022568   -0.188510
 H    0.144353   -0.332282    1.960765
 H   -3.725426   -0.244737    2.014115
 H   -3.240202   -1.912545    1.587232
 H   -6.244892   -0.869281   -0.625589
 H   -2.617488   -1.665853   -1.424326
