220 
2hug_ligand_dft.xyz
 N  -17.010319   -0.372442    1.699691
 C  -15.623331   -0.849589    2.045409
 C  -14.916413    0.448032    2.483767
 O  -15.418787    1.513006    2.107920
 C  -14.945279   -1.411960    0.798688
 N  -13.778324    0.344706    3.159541
 C  -12.898716    1.507933    3.278722
 C  -12.617202    2.106418    1.897830
 O  -12.639744    1.406886    0.879782
 C  -11.616801    0.909034    3.890573
 C  -12.125485   -0.291113    4.692278
 C  -13.231417   -0.863556    3.804471
 N  -12.280328    3.401681    1.849897
 C  -11.866017    3.967746    0.567247
 C  -10.652179    3.189389    0.052698
 O   -9.688013    2.963263    0.778888
 C  -11.521979    5.428153    0.911167
 C  -11.125641    5.370881    2.389907
 C  -12.084555    4.330528    2.970900
 N  -10.711082    2.812236   -1.243176
 C   -9.685793    1.973114   -1.837413
 C   -9.830812    0.502266   -1.436299
 O  -10.245388   -0.331045   -2.237755
 N   -9.489919    0.232867   -0.153010
 C   -9.373227   -1.101464    0.434289
 C   -8.183720   -1.849661   -0.193137
 O   -7.146961   -2.030744    0.431085
 C  -10.704172   -1.878096    0.428956
 O  -11.662855   -1.183238    1.211609
 C  -10.539382   -3.255838    1.047473
 N   -8.373247   -2.266928   -1.471972
 C   -7.223415   -2.611703   -2.275571
 C   -6.272473   -1.403435   -2.352930
 O   -6.669887   -0.248670   -2.293086
 C   -7.675257   -3.015323   -3.679003
 N   -4.969828   -1.729221   -2.536071
 C   -3.918288   -0.743709   -2.479849
 C   -2.615199   -1.453993   -2.833499
 O   -2.523004   -2.679376   -2.788194
 C   -3.778415   -0.113290   -1.074108
 C   -3.602162   -1.174862    0.012790
 C   -3.001798   -0.594966    1.293272
 N   -2.662019   -1.614268    2.277726
 C   -1.630735   -2.489952    2.076344
 N   -0.705593   -2.393528    1.173770
 N   -1.618994   -3.570135    2.938129
 N   -1.570789   -0.645903   -3.138348
 C   -0.202312   -1.115357   -3.074549
 C    0.484420   -0.470083   -1.859540
 O   -0.168845   -0.159845   -0.866308
 C    0.541802   -1.006547   -4.412471
 C   -0.199307   -1.639410   -5.593229
 C   -0.548068   -3.126002   -5.424606
 N    0.591851   -3.954426   -5.064725
 C    0.864850   -4.447357   -3.823508
 N    2.151015   -4.939580   -3.668312
 N    0.077322   -4.460298   -2.793075
 N    1.828287   -0.356098   -1.925534
 C    2.612943    0.264462   -0.880662
 C    3.584536    1.225659   -1.576255
 O    3.808994    1.143392   -2.774191
 C    3.434386   -0.747011   -0.051135
 C    2.643261   -1.959212    0.464293
 C    2.753545   -3.177414   -0.461255
 C    2.107918   -4.444363    0.093528
 N    0.629803   -4.439362   -0.073833
 N    4.247520    2.094204   -0.767826
 C    5.273642    2.983928   -1.290541
 C    6.577227    2.251247   -1.647713
 O    7.435391    2.814722   -2.319463
 C    5.523965    4.118031   -0.281942
 C    6.442832    5.228162   -0.795967
 C    6.518242    6.402836    0.183719
 N    7.457344    7.424099   -0.248419
 C    8.813388    7.285742   -0.189964
 N    9.512564    8.282754   -0.802316
 N    9.447080    6.313424    0.401636
 N    6.723589    1.006381   -1.157275
 C    7.906862    0.215321   -1.401292
 C    7.636871   -1.164114   -0.797658
 O    6.760064   -1.333745    0.040523
 C    9.177776    0.839399   -0.761912
 C   10.213008    1.311299   -1.787666
 C   11.222010    2.305739   -1.201137
 C   10.545861    3.634097   -0.893845
 N   11.438603    4.610528   -0.204291
 N    8.466309   -2.155216   -1.204377
 C    8.488504   -3.449780   -0.535938
 C    9.191452   -3.390436    0.832643
 O    8.869040   -4.127497    1.747240
 C    9.156128   -4.498138   -1.423143
 N   10.214272   -2.502942    0.908149
 C   10.963814   -2.252105    2.113969
 C   11.585041   -0.864185    1.929827
 O   11.727959   -0.372614    0.811184
 C   12.033622   -3.340676    2.345002
 C   12.896768   -3.172479    3.574593
 O   14.058038   -3.467215    3.649349
 O   12.204612   -2.656864    4.624438
 N   11.951157   -0.213023    3.052170
 C   12.648427    1.044703    2.961336
 C   13.430645    1.244468    4.245773
 O   14.019687    2.454715    4.265228
 C   11.668591    2.209448    2.699629
 O   12.322703    3.359603    2.197641
 O   13.501302    0.448189    5.144216
 H  -17.393369   -0.826002    0.867636
 H  -16.854752    0.658786    1.535895
 H  -17.678145   -0.477296    2.467110
 H  -15.701760   -1.593942    2.838838
 H  -13.891590   -1.626198    1.005416
 H  -14.961841   -0.667771   -0.004306
 H  -15.436259   -2.331228    0.465334
 H  -13.362632    2.249196    3.936957
 H  -11.072459    1.634388    4.498060
 H  -10.963904    0.565688    3.082559
 H  -11.343433   -1.027784    4.885106
 H  -12.536798    0.033753    5.653394
 H  -12.813093   -1.531849    3.048460
 H  -14.006994   -1.371862    4.384064
 H  -12.692184    3.898267   -0.146813
 H  -10.730236    5.825529    0.272599
 H  -12.411950    6.049849    0.772524
 H  -11.213468    6.336762    2.891220
 H  -10.097560    5.012796    2.484083
 H  -13.043620    4.776631    3.259756
 H  -11.658371    3.819883    3.836759
 H  -11.610903    2.830799   -1.699890
 H   -8.704403    2.349406   -1.538790
 H   -9.770416    2.024177   -2.922464
 H   -9.165040    1.023365    0.394393
 H   -9.095846   -0.948713    1.479935
 H  -11.064365   -1.972586   -0.601171
 H  -11.844920   -0.297450    0.844200
 H  -11.510128   -3.757218    1.095730
 H   -9.863813   -3.875087    0.451778
 H  -10.138774   -3.176564    2.064057
 H   -9.152770   -1.833972   -1.965699
 H   -6.700642   -3.443892   -1.792343
 H   -6.816753   -3.296814   -4.294664
 H   -8.359931   -3.866069   -3.626297
 H   -8.188582   -2.179633   -4.165880
 H   -4.663822   -2.691595   -2.473182
 H   -4.125609    0.048758   -3.208508
 H   -4.674865    0.484853   -0.891376
 H   -2.917326    0.566648   -1.077232
 H   -2.935558   -1.968587   -0.344347
 H   -4.568010   -1.643292    0.233105
 H   -2.095817   -0.021914    1.067669
 H   -3.697768    0.098685    1.773783
 H   -3.446693   -1.983867    2.796611
 H   -0.823595   -1.597652    0.550534
 H   -0.712979   -4.008430    3.017897
 H   -2.052712   -3.429581    3.840204
 H   -1.719227    0.349756   -3.048470
 H   -0.261987   -2.173257   -2.804281
 H    1.509180   -1.513312   -4.308099
 H    0.752314    0.044168   -4.647260
 H   -1.132838   -1.098982   -5.784159
 H    0.421461   -1.510488   -6.488074
 H   -0.967009   -3.504956   -6.361895
 H   -1.324781   -3.250146   -4.668895
 H    1.318534   -4.028001   -5.761186
 H    2.639568   -5.220937   -4.507328
 H    2.212262   -5.642055   -2.945228
 H   -0.856269   -4.103604   -2.982220
 H    2.297151   -0.388043   -2.823014
 H    1.919747    0.800857   -0.224651
 H    3.864206   -0.206000    0.799572
 H    4.289690   -1.092845   -0.644384
 H    3.051305   -2.243760    1.441498
 H    1.596788   -1.687511    0.639458
 H    3.816643   -3.400149   -0.612708
 H    2.339988   -2.964906   -1.454359
 H    2.486617   -5.327154   -0.429253
 H    2.333242   -4.564966    1.157443
 H    0.146730   -3.618117    0.435667
 H    0.220082   -5.295455    0.303311
 H    0.393609   -4.427317   -1.117764
 H    3.974483    2.177309    0.200745
 H    4.915808    3.407233   -2.234410
 H    4.545820    4.547558   -0.027062
 H    5.934727    3.691124    0.645140
 H    7.445112    4.832631   -0.978455
 H    6.080541    5.594965   -1.762426
 H    5.541454    6.886708    0.270313
 H    6.767801    6.052185    1.196293
 H    7.100503    8.352113   -0.415652
 H   10.516554    8.259467   -0.727719
 H    9.128228    8.751994   -1.607233
 H    8.820086    5.763735    0.981561
 H    6.026259    0.581754   -0.559206
 H    8.054023    0.123553   -2.485560
 H    8.828535    1.673410   -0.146962
 H    9.654866    0.138560   -0.072377
 H   10.764161    0.446596   -2.174791
 H    9.693040    1.777465   -2.631354
 H   12.033492    2.468456   -1.920697
 H   11.674891    1.879752   -0.297719
 H    9.689277    3.508430   -0.229105
 H   10.170013    4.113975   -1.800525
 H   10.812761    5.459352    0.052785
 H   12.215589    4.897755   -0.800682
 H   11.831855    4.205059    0.666585
 H    9.124593   -1.975828   -1.949900
 H    7.457691   -3.737423   -0.319396
 H   10.194397   -4.226276   -1.645933
 H    9.165140   -5.460774   -0.907067
 H    8.612045   -4.611358   -2.365195
 H   10.464170   -1.920761    0.120844
 H   10.277501   -2.246027    2.966598
 H   11.497753   -4.292053    2.441503
 H   12.698996   -3.413341    1.481879
 H   12.826978   -2.603027    5.370207
 H   11.946868   -0.701445    3.943450
 H   13.352174    1.019110    2.119771
 H   14.508859    2.540260    5.101818
 H   11.094761    2.441067    3.606275
 H   10.973419    1.883956    1.923482
 H   12.988642    3.639243    2.843407
