35 
2hvc_ligand_xtb.xyz
 N    3.141667   -2.453579   -0.401555
 C    4.348343   -1.801071   -0.254473
 C    4.216960   -0.379303    0.043282
 C    3.013310    0.221430    0.149685
 F    2.229605    1.934523    1.591223
 F    4.148171    2.238244    0.679924
 F    2.366568    2.410665   -0.502417
 C    1.784309   -0.507381   -0.028573
 C    0.514144    0.071374    0.050965
 C   -0.637172   -0.687364   -0.104999
 C   -0.496573   -2.062765   -0.360071
 C    0.743893   -2.642190   -0.466749
 C    1.904444   -1.883822   -0.303418
 C    2.946303    1.693589    0.474928
 C   -3.057642   -0.712345   -0.607424
 N   -1.904156   -0.117373    0.014594
 C   -2.085566    1.192956    0.577759
 F   -4.968823   -2.065936   -0.245593
 F   -3.277543   -2.463571    1.022136
 F   -4.452951   -0.694328    1.332140
 C   -3.937214   -1.490617    0.384591
 F   -3.283685    2.418517   -1.087458
 F   -1.823908    3.502944    0.062424
 F   -1.194450    2.105825   -1.454595
 C   -2.086775    2.312209   -0.481523
 O    5.396458   -2.399097   -0.367020
 H    3.199545   -3.445801   -0.601406
 H    5.140374    0.162381    0.177587
 H    0.448922    1.131329    0.215077
 H   -1.360108   -2.698785   -0.453817
 H    0.826299   -3.699809   -0.666005
 H   -2.759365   -1.402252   -1.400228
 H   -3.702555    0.053841   -1.051323
 H   -1.293988    1.406581    1.298980
 H   -3.044827    1.251809    1.102083
