35 
2hvc_ligand_dft.xyz
 N    3.175293   -2.478865   -0.271582
 C    4.379604   -1.810945   -0.148652
 C    4.236588   -0.365168    0.052575
 C    3.033874    0.239527    0.106529
 F    2.268650    2.036889    1.428089
 F    4.184603    2.280540    0.458278
 F    2.368487    2.349185   -0.710582
 C    1.797935   -0.515737   -0.030231
 C    0.519026    0.062128   -0.000683
 C   -0.632423   -0.708058   -0.116998
 C   -0.483845   -2.098770   -0.292106
 C    0.765633   -2.678366   -0.360405
 C    1.919874   -1.901330   -0.223256
 C    2.971844    1.734899    0.321118
 C   -3.052478   -0.745591   -0.670087
 N   -1.909720   -0.122226   -0.051106
 C   -2.117434    1.144362    0.605519
 F   -4.967130   -2.072592   -0.403945
 F   -3.292709   -2.544207    0.888578
 F   -4.458190   -0.760687    1.246404
 C   -3.942029   -1.540693    0.278781
 F   -2.343441    3.468758    0.406961
 F   -1.005059    2.517892   -1.007754
 F   -3.141242    2.274708   -1.218144
 C   -2.142502    2.358254   -0.317346
 O    5.446779   -2.398469   -0.205197
 H    3.255788   -3.478034   -0.408759
 H    5.160902    0.188065    0.157085
 H    0.440095    1.135169    0.079838
 H   -1.352269   -2.742390   -0.340473
 H    0.852487   -3.752782   -0.494948
 H   -2.731276   -1.416997   -1.469884
 H   -3.691078    0.012328   -1.130867
 H   -1.340796    1.310178    1.356008
 H   -3.074825    1.138405    1.132891
