43 
2hvx_ligand_xtb.xyz
 C    1.765180    1.118659    0.225325
 C    1.079982    1.001241   -0.985437
 C    0.774424    2.148968   -1.684117
Cl   -0.088830    2.022781   -3.172653
 C    1.135288    3.416584   -1.220400
 C    1.821539    3.546159   -0.033092
 C    2.129753    2.399228    0.684843
 S    2.972699    2.317678    2.205332
 C    2.816915    0.596349    2.220551
 C    2.169764    0.089193    1.142923
 C    1.944955   -1.361369    0.915964
 P    3.039610   -1.978052   -0.448342
 O    3.056597   -3.569049   -0.342471
 O    4.467371   -1.613134    0.170436
 O    2.822180   -1.439629   -1.790553
 C    0.560339   -1.757499    0.446515
 O    0.440964   -2.723070   -0.285698
 N   -0.442348   -0.984720    0.911295
 C   -1.804990   -0.993095    0.574680
 C   -2.596450    0.010532    1.079960
 C   -3.971428    0.064730    0.787156
 C   -4.806649    1.081910    1.296098
 C   -6.139459    1.104049    0.996021
 C   -6.699510    0.113160    0.173988
 C   -5.915916   -0.883939   -0.336197
 C   -4.537312   -0.936016   -0.046086
 C   -3.696302   -1.947783   -0.554048
 C   -2.364649   -1.984551   -0.255110
 H    0.822880    0.033747   -1.383281
 H    0.876965    4.287558   -1.800796
 H    2.114651    4.516270    0.335767
 H    3.234096    0.049386    3.043986
 H    2.201446   -1.932190    1.812845
 H    2.248081   -3.913032   -0.732410
 H    5.093332   -1.476484   -0.540992
 H   -0.169324   -0.211142    1.505126
 H   -2.166614    0.777438    1.710956
 H   -4.371979    1.843160    1.928177
 H   -6.773144    1.885298    1.389458
 H   -7.755160    0.147295   -0.051528
 H   -6.341309   -1.648569   -0.970203
 H   -4.125329   -2.706177   -1.192422
 H   -1.729101   -2.758869   -0.649754
