43 
2hvx_ligand_dft.xyz
 C    1.861119    1.097526    0.353477
 C    1.207202    1.250927   -0.882113
 C    0.932912    2.528532   -1.326105
Cl    0.114255    2.744048   -2.853170
 C    1.295493    3.669359   -0.593004
 C    1.949255    3.530967    0.616421
 C    2.224499    2.244150    1.086181
 S    3.020785    1.827319    2.581446
 C    2.833228    0.140141    2.237195
 C    2.217004   -0.125700    1.056885
 C    1.949222   -1.532489    0.593819
 P    2.941611   -2.009499   -0.892429
 O    2.726407   -3.586109   -0.959988
 O    4.458517   -1.922984   -0.361798
 O    2.665710   -1.188725   -2.090080
 C    0.483481   -1.923858    0.340403
 O    0.220353   -3.003770   -0.188345
 N   -0.445723   -1.039181    0.760417
 C   -1.846053   -1.069976    0.553815
 C   -2.515214    0.129988    0.593137
 C   -3.919367    0.183721    0.425656
 C   -4.635169    1.409560    0.459544
 C   -5.994456    1.428277    0.287541
 C   -6.706889    0.223939    0.073263
 C   -6.041744   -0.973479    0.034694
 C   -4.634340   -1.025917    0.208497
 C   -3.909861   -2.244457    0.172565
 C   -2.551679   -2.281531    0.342958
 H    0.962458    0.389196   -1.491986
 H    1.065436    4.653556   -0.985219
 H    2.237645    4.407795    1.186984
 H    3.202547   -0.589569    2.946639
 H    2.295538   -2.222655    1.373436
 H    1.762513   -3.751986   -0.835253
 H    4.940551   -1.257962   -0.871879
 H   -0.091215   -0.172995    1.141565
 H   -1.966830    1.058771    0.738436
 H   -4.087480    2.334343    0.621038
 H   -6.531860    2.371422    0.313890
 H   -7.783640    0.255091   -0.062544
 H   -6.582507   -1.901618   -0.131140
 H   -4.451862   -3.171748    0.007524
 H   -2.010052   -3.216175    0.305505
