8 
2hwg_ligand_dft.xyz
 C   -0.753881    0.160968    0.001041
 C    0.753902   -0.160978    0.000440
 O   -1.515805   -0.915282   -0.000162
 O    1.144776   -1.301471   -0.000424
 O   -1.144732    1.301476   -0.000584
 O    1.515765    0.915298   -0.000081
 H   -0.917372   -1.687649    0.000413
 H    0.917204    1.687541    0.000710
