40 
2hwh_ligand_dft.xyz
 C   -5.638740   -0.943174   -0.308443
 C   -4.327270   -0.785041    0.249289
 C   -3.968762    0.501956    0.012076
 O   -4.965786    1.147611   -0.652243
 C   -5.979785    0.257201   -0.842214
 C   -7.180916    0.757036   -1.562495
 C   -1.584781    0.512978    0.772587
 S   -0.770060   -0.627958   -0.270255
 C    0.379305   -0.908332    0.998391
 N    1.400788   -1.850395    0.905607
 S    2.433511   -1.952760   -0.429906
 C    3.251183   -0.378562   -0.512757
 C    2.697555    0.643074   -1.279427
 C    3.317042    1.886691   -1.288494
 C    4.479642    2.120644   -0.549704
 C    5.016488    1.073091    0.205548
 C    4.411062   -0.175753    0.230743
 C    5.161490    3.463505   -0.593384
 O    1.575019   -2.080292   -1.590556
 O    3.399379   -2.961991   -0.044013
 C   -0.935862    0.540653    1.968018
 N    0.176377   -0.249081    2.101331
 O   -1.308291    1.314938    3.008356
 C   -2.764041    1.326277    0.342710
 H   -6.245021   -1.837872   -0.314015
 H   -3.732945   -1.528891    0.759770
 H   -6.926616    1.102230   -2.570811
 H   -7.917646   -0.045170   -1.649968
 H   -7.645336    1.594716   -1.030456
 H    1.896360   -1.973297    1.783633
 H    1.804618    0.459351   -1.866654
 H    2.890529    2.688598   -1.884673
 H    5.924384    1.237213    0.779476
 H    4.838560   -0.990877    0.805456
 H    5.901930    3.492516   -1.401444
 H    4.444398    4.269468   -0.773849
 H    5.686634    3.675220    0.342553
 H   -0.670154    1.159026    3.716929
 H   -2.997148    2.022389    1.158024
 H   -2.512149    1.947601   -0.526971
