38 
2hwp_ligand_xtb.xyz
 C    6.877598   -2.019575    1.085092
 C    6.209620   -2.134657   -0.285573
 C    4.814503   -1.535700   -0.255839
 O    3.807434   -2.208824   -0.247216
 N    4.829848   -0.171516   -0.221922
 C    3.752299    0.715767   -0.155271
 C    2.441701    0.290598   -0.139447
 C    4.044108    2.093727   -0.105050
 C    3.041845    3.018183   -0.039789
 C    1.694305    2.608216   -0.021613
 C    1.396657    1.222215   -0.072584
 C   -0.004984    0.895188   -0.048700
 N   -0.917529    1.845496    0.017756
 C   -0.502986    3.113967    0.060038
 N    0.721676    3.546565    0.044337
 N   -0.380653   -0.408661   -0.096265
 C   -1.642642   -0.982633   -0.083371
 C   -2.818127   -0.239900    0.004139
 C   -1.718245   -2.376075   -0.160823
 C   -2.942835   -3.013357   -0.150807
 C   -4.117256   -2.284101   -0.063850
 C   -4.028756   -0.905307    0.011881
Br   -5.629680    0.120298    0.132080
 H    6.993077   -0.979922    1.385688
 H    6.279326   -2.528412    1.836975
 H    7.862236   -2.479932    1.059541
 H    6.113541   -3.186116   -0.556956
 H    6.813439   -1.631456   -1.043883
 H    5.737479    0.273030   -0.234688
 H    2.253107   -0.769231   -0.179001
 H    5.077458    2.412801   -0.118489
 H    3.248825    4.075385   -0.000369
 H   -1.290401    3.855188    0.113185
 H    0.377038   -1.076186   -0.152755
 H   -2.765443    0.834035    0.063398
 H   -0.809467   -2.956965   -0.229168
 H   -2.987633   -4.089947   -0.211232
 H   -5.077473   -2.774660   -0.055252
