39 
2hxm_ligand_dft.xyz
 C    3.309547   -0.863451    0.236445
 C    1.348806   -2.186831   -0.331523
 C    3.595340   -3.260012   -0.079481
 C    4.129621   -1.936302    0.220319
 N    1.963899   -0.990824   -0.028455
 N    2.213081   -3.262427   -0.334176
 O   -5.979835   -1.630544    0.918423
 C   -4.922158   -1.741955    0.353402
 O   -4.526761   -2.944305   -0.111618
 C   -3.993500   -0.585161    0.125122
 C   -2.638136   -0.741147   -0.181105
 C   -1.834094    0.369646   -0.374339
 C   -4.523415    0.700134    0.250758
 C   -3.716084    1.811942    0.058095
 C   -2.360405    1.659139   -0.251386
 C   -1.520401    2.852020   -0.417904
 N   -0.252076    2.742759   -0.514822
 O    0.351894    3.976690   -0.685086
 C    1.760022    3.807122   -0.667494
 C    2.285237    3.584320    0.757493
 O    3.375187    2.657232    0.787102
 N    2.891165    1.414377    0.523658
 C    3.776222    0.496350    0.521821
 O    4.232567   -4.291993   -0.121322
 O    0.160881   -2.282048   -0.576786
 H    5.188135   -1.850430    0.425396
 H    1.389704   -0.155972   -0.003234
 H    1.799013   -4.159952   -0.551617
 H   -3.720057   -2.859284   -0.636509
 H   -2.158370   -1.714407   -0.245195
 H   -0.791774    0.228995   -0.630893
 H   -5.572603    0.807823    0.503701
 H   -4.138159    2.808610    0.156625
 H   -1.996458    3.834506   -0.445460
 H    2.158058    4.722502   -1.110425
 H    2.036339    2.954787   -1.295944
 H    1.475597    3.207724    1.388889
 H    2.694911    4.494341    1.198997
 H    4.832096    0.678418    0.715184
