53 
2hz0_ligand_xtb.xyz
 C   -0.383808    0.855806    0.286991
 C    2.080061    1.222243    0.180498
 C    4.820114    0.556228    0.165682
 C    4.393763    1.879826    0.093868
 C    3.058026    2.214677    0.101741
 C    6.289709    0.263883    0.099401
 C    6.778367    0.270931   -1.356451
 C    8.276870    0.013796   -1.436846
 C   -3.944313   -0.797162    1.930144
 C   -4.874162   -1.173231    0.800153
 C   -6.210407   -1.204030    0.900992
 C   -7.061702   -1.574981   -0.261553
 C   -1.649243    1.617127    0.202345
 C   -1.725143    2.819518   -0.503209
 C   -2.901247    3.531797   -0.595493
 C   -4.041138    3.045879    0.031089
 C   -4.006441    1.851395    0.711560
 C   -2.826403    1.097389    0.799548
 N   -2.781055   -0.077169    1.483106
 N    0.746780    1.619662    0.179689
 O   -0.341271   -0.355539    0.460168
 C    2.481493   -0.106722    0.255574
 C    3.832796   -0.427341    0.246475
 C    4.210835   -1.879634    0.356484
 F    3.156547   -2.703671    0.376151
 F    4.987093   -2.304634   -0.658769
 F    4.903339   -2.146607    1.484974
 C   -6.318099   -1.479635   -1.587502
 N   -4.955223   -1.749446   -1.544955
 C   -4.300324   -1.599266   -0.463620
 O   -6.873473   -1.212364   -2.621307
 H    5.135565    2.662187    0.034763
 H    2.763416    3.253484    0.047763
 H    6.528489   -0.698216    0.549750
 H    6.829529    1.034600    0.654689
 H    6.544055    1.237163   -1.809039
 H    6.246787   -0.498723   -1.917833
 H    8.828326    0.776650   -0.890955
 H    8.518261   -0.956665   -1.009905
 H    8.607943    0.024534   -2.472379
 H   -3.590805   -1.707658    2.423535
 H   -4.493370   -0.208955    2.675551
 H   -6.712034   -0.994417    1.837053
 H   -7.955372   -0.949638   -0.319716
 H   -7.414124   -2.606601   -0.132591
 H   -0.859674    3.190192   -1.034960
 H   -2.936409    4.452559   -1.156085
 H   -4.966682    3.598598   -0.029968
 H   -4.908033    1.480350    1.171302
 H   -1.931630   -0.610388    1.331525
 H    0.610739    2.619185    0.124502
 H    1.737777   -0.883063    0.321850
 H   -3.238764   -1.820044   -0.503042
