66 
2hz4_ligand_xtb.xyz
 C   -4.245579   -2.229800    1.608345
 O   -3.138917   -1.537917    1.055316
 C   -2.253990   -2.312253    0.274766
 C   -1.022862   -2.650943    1.146813
 N   -0.605885   -1.385941    1.818149
 C    0.204401   -1.544251    3.033497
 C    0.064684   -3.297621    0.306109
 C    0.398086   -2.460618   -0.948200
 O   -0.739285   -2.050027   -1.651104
 C   -1.879238   -1.503081   -1.016808
 C   -2.977948   -1.688541   -2.074993
 N   -1.690727   -0.100866   -0.679826
 C   -2.661693    0.899433   -0.583738
 C   -4.046189    0.843978   -0.656865
 C   -4.763435    2.015473   -0.503028
 C   -4.134943    3.234683   -0.271127
 C   -2.762699    3.301124   -0.165398
 C   -2.023621    2.132484   -0.312418
 C   -0.617907    1.872597   -0.219803
 C   -0.456837    0.491834   -0.457994
 C    0.822477   -0.065423   -0.385738
 N    1.256171   -1.354413   -0.617521
 C    2.635484   -1.369328   -0.511144
 C    3.486133   -2.565354   -0.752563
 C    4.893576   -2.294641   -0.208979
 C    5.383531   -0.913000   -0.638239
 C    4.537277    0.184359    0.005252
 C    3.092436   -0.121067   -0.189591
 C    1.962013    0.739948   -0.110153
 C    1.769887    2.111343    0.120991
 C    0.500391    2.662403    0.054097
 C    0.584327    4.135895    0.303326
 N    1.992293    4.318552    0.534463
 C    2.741996    3.188714    0.427903
 O    3.940323    3.124362    0.577545
 H   -4.829375   -1.478156    2.134306
 H   -4.859739   -2.683927    0.828000
 H   -3.925722   -3.005127    2.310895
 H   -2.716471   -3.252142   -0.047796
 H   -1.336764   -3.337241    1.942955
 H   -0.089841   -0.768166    1.134308
 H   -1.505661   -0.909736    2.024144
 H    0.406999   -0.567427    3.467472
 H    1.154461   -2.015854    2.790296
 H   -0.319623   -2.155315    3.766493
 H    0.974706   -3.450796    0.886355
 H   -0.296524   -4.275401   -0.014865
 H    0.934559   -3.098375   -1.664598
 H   -2.751104   -2.591967   -2.634897
 H   -3.959525   -1.788081   -1.627682
 H   -2.974334   -0.849302   -2.763218
 H   -4.580680   -0.074886   -0.813623
 H   -5.840059    1.979191   -0.564999
 H   -4.728985    4.128599   -0.165554
 H   -2.266075    4.237895    0.028332
 H    3.067712   -3.462532   -0.286838
 H    3.541080   -2.754927   -1.829925
 H    5.573514   -3.066019   -0.570963
 H    4.878448   -2.345438    0.881997
 H    5.321170   -0.831722   -1.724720
 H    6.426699   -0.785490   -0.350765
 H    4.773766    1.161720   -0.412771
 H    4.752392    0.245577    1.076238
 H    0.238480    4.709872   -0.564969
 H   -0.007010    4.442382    1.175105
 H    2.405010    5.220032    0.704460
