26 
2hzy_ligand_xtb.xyz
 O   -3.572278    1.513231    0.327308
 C   -2.751487    0.469531    0.305283
 O   -2.875789   -0.438732   -0.481741
 C   -1.676203    0.526386    1.345588
 C   -0.823145   -0.725610    1.265626
 P   -0.211084   -0.937935   -0.466611
 O   -0.902431   -2.234911   -1.100623
 O   -0.240254    0.245769   -1.335031
 C    1.478163   -1.683910   -0.277298
 C    2.325798   -0.781094    0.551749
 O    2.502439   -0.958157    1.730900
 C    2.882888    0.430129   -0.170755
 C    1.825139    1.520586   -0.195041
 O    1.085303    1.778363    0.715522
 O    1.862492    2.200011   -1.331942
 H   -4.227750    1.451742   -0.386377
 H   -1.054075    1.401663    1.141012
 H   -2.126854    0.661391    2.330374
 H   -1.390357   -1.615513    1.539101
 H    0.035718   -0.633744    1.928597
 H   -1.769810   -1.983548   -1.431970
 H    1.359798   -2.653652    0.203969
 H    1.854410   -1.801892   -1.292882
 H    3.177859    0.209610   -1.194362
 H    3.734162    0.817481    0.394283
 H    1.130392    2.834797   -1.378650
