57 
2i03_ligand_xtb.xyz
 N   -1.385835    1.092534    0.547525
 C   -0.159482    1.882185    0.132147
 C    0.961722    1.697498    1.158143
 C    2.283493    2.311368    0.653731
 N    2.639369    1.744360   -0.622298
 C    1.642945    2.017476   -1.629297
 C    0.291079    1.395376   -1.245412
 C   -4.963886   -1.438665    0.775154
 N   -3.588886   -1.134181    0.340747
 C   -3.475257   -1.235812   -1.100388
 C   -4.516273   -2.306494   -1.439819
 C   -5.661765   -1.987037   -0.481164
 C   -3.777873    0.089780   -1.757560
 N   -3.231069    1.153684   -1.359616
 C   -2.673833   -0.811992    1.267995
 O   -2.914052   -0.783642    2.453704
 C   -1.286028   -0.364920    0.766220
 C    3.277752    0.518389   -0.683147
 C    4.334792    0.193668    0.177055
 C    4.966798   -1.026250    0.006058
 C    4.546598   -1.885223   -1.011996
 C    3.500094   -1.466649   -1.808255
 N    2.872781   -0.312358   -1.644662
 C   -5.609851   -0.236995    1.273494
 C   -6.125617    0.782895    1.627562
 C   -0.638026    3.331048    0.088005
 C    6.097769   -1.449337    0.876623
 O    6.400766   -0.548640    1.819739
 O    6.681048   -2.493927    0.760455
 H   -1.739225    1.501696    1.419016
 H   -2.158511    1.219002   -0.224471
 H    1.151340    0.634837    1.316493
 H    0.687249    2.149509    2.112217
 H    3.065026    2.120478    1.386515
 H    2.188089    3.393646    0.539471
 H    1.558604    3.100248   -1.743380
 H    1.980803    1.585357   -2.570102
 H   -0.457557    1.638400   -1.999801
 H    0.451363    0.317297   -1.237828
 H   -4.911334   -2.173282    1.586177
 H   -2.471695   -1.549535   -1.407273
 H   -4.819051   -2.282545   -2.484167
 H   -4.102331   -3.291172   -1.222515
 H   -6.267408   -2.860192   -0.254156
 H   -6.313560   -1.219931   -0.902067
 H   -4.492423    0.055501   -2.580279
 H   -3.505057    2.004460   -1.843060
 H   -0.975403   -0.861508   -0.150350
 H   -0.577544   -0.590737    1.564813
 H    4.680950    0.872750    0.937391
 H    5.039091   -2.831907   -1.155960
 H    3.125822   -2.079998   -2.617083
 H   -0.979094    3.659431    1.067697
 H   -1.450346    3.450168   -0.624809
 H    0.166367    3.992056   -0.216062
 H    7.149741   -0.864228    2.350283
 H   -6.601416    1.649753    1.979337
