39 
2i0g_ligand_xtb.xyz
 C    1.374494    1.493879   -0.740050
 C    2.151747    0.241465   -0.420071
 C    3.536365    0.246131   -0.503487
 C    4.285101   -0.863322   -0.139074
 C    3.637632   -2.002208    0.323482
 C   -2.972970    0.251732   -1.337003
 C   -3.867181   -1.021717    0.944818
 C   -2.510631   -0.919021    0.695170
 C    1.080534    2.300928    1.496324
 C   -0.265917    1.697499    1.070534
 C   -0.116497    1.317556   -0.415275
 O    5.644791   -0.789284   -0.244130
 C    2.259221   -2.032073    0.378987
 C    1.508810   -0.924202   -0.001743
 O    0.150351   -1.052440    0.060776
 C   -0.574006   -0.117515   -0.714342
 C   -2.048404   -0.279386   -0.444428
 C   -4.327300    0.158212   -1.094480
 C   -4.784711   -0.479355    0.055160
 O   -6.128044   -0.550821    0.262667
 C    1.780874    2.647798    0.185176
 H    1.530063    1.755445   -1.791858
 H    4.057848    1.122448   -0.855325
 H    4.210913   -2.868871    0.624514
 H   -2.627815    0.742171   -2.235780
 H   -4.216535   -1.525857    1.836665
 H   -1.803177   -1.351890    1.384352
 H    1.672148    1.559034    2.034511
 H    0.956386    3.170002    2.140868
 H   -0.504714    0.818649    1.667890
 H   -1.078351    2.412811    1.195676
 H   -0.707865    1.995510   -1.035878
 H    6.034286   -1.625155    0.037686
 H    1.738517   -2.914314    0.716371
 H   -0.377761   -0.319321   -1.782851
 H   -5.049053    0.568346   -1.782607
 H   -6.306014   -1.019976    1.086739
 H    1.392673    3.585992   -0.215207
 H    2.858705    2.736921    0.301558
