28 
2i2b_ligand_xtb.xyz
 N   -3.322538    1.427636    0.056196
 C   -2.147019    2.010233   -0.077540
 N   -0.958100    1.440897   -0.188004
 C   -1.016942    0.104690   -0.152963
 N   -0.007563   -0.809067   -0.239480
 C   -0.608908   -2.035954   -0.146897
 N   -1.896547   -1.980560   -0.008222
 C   -2.197610   -0.642110   -0.010272
 C   -3.392985    0.092182    0.095383
 N   -4.594008   -0.486365    0.234997
 C    1.385740   -0.518506   -0.433687
 C    1.894128    0.619898    0.484229
 C    3.401353    0.291910    0.573219
 C    3.463965   -1.206458    0.216620
 O    2.146359   -1.641249   -0.091392
 O    1.707639    1.897148   -0.030979
 O    4.138437    1.033944   -0.354502
 H   -2.154539    3.091525   -0.098675
 H   -0.032620   -2.937668   -0.182861
 H   -5.412583    0.091929    0.294481
 H   -4.658086   -1.487759    0.255115
 H    1.554115   -0.224954   -1.488768
 H    1.422356    0.504338    1.472291
 H    3.784038    0.481197    1.585566
 H    4.114477   -1.325927   -0.657215
 H    3.828520   -1.829295    1.033690
 H    0.737791    2.027405   -0.151035
 H    3.638000    1.847357   -0.524558
