28 
2i2b_ligand_dft.xyz
 N   -3.372647    1.391108    0.057894
 C   -2.198415    2.012655   -0.074027
 N   -0.983406    1.476727   -0.185203
 C   -1.030049    0.133617   -0.154651
 N    0.010806   -0.752583   -0.236006
 C   -0.552903   -2.006336   -0.156596
 N   -1.853509   -1.992402   -0.019044
 C   -2.168959   -0.649531   -0.018374
 C   -3.386441    0.048340    0.093641
 N   -4.563858   -0.585885    0.242108
 C    1.407436   -0.399791   -0.473219
 C    1.925332    0.661147    0.520992
 C    3.408947    0.292166    0.573132
 C    3.348492   -1.224530    0.489061
 O    2.190441   -1.542613   -0.295961
 O    1.778981    1.979413    0.088851
 O    4.058482    0.798982   -0.566218
 H   -2.242626    3.098482   -0.092555
 H    0.067698   -2.889022   -0.201458
 H   -5.412998   -0.045431    0.266750
 H   -4.602440   -1.591729    0.219542
 H    1.498085   -0.018069   -1.498225
 H    1.455039    0.486716    1.500747
 H    3.890021    0.636470    1.498966
 H    4.229609   -1.634382   -0.008533
 H    3.244727   -1.677190    1.482876
 H    0.818977    2.121214   -0.062053
 H    3.648329    1.661517   -0.737426
