62 
2i2c_ligand_dft.xyz
 N   -3.594018    1.922589   -1.580950
 C   -2.486035    2.300963   -0.914007
 N   -2.615091    3.152783    0.116845
 C   -1.516173    3.546190    0.761650
 N   -0.250965    3.195198    0.534562
 C   -0.145472    2.337627   -0.493430
 C   -1.195500    1.858137   -1.269339
 N   -0.739312    0.988416   -2.238864
 C    0.552321    0.952255   -2.045938
 N    0.981969    1.733653   -0.994950
 C    2.364741    2.005202   -0.627154
 O    3.127650    0.895259   -1.017008
 C    2.618683    2.141300    0.881391
 O    2.370265    3.402368    1.423536
 C    4.129901    1.880409    0.905808
 O    4.820084    3.056054    0.560547
 C    4.319968    0.841802   -0.211966
 C    4.524357   -0.561575    0.341995
 S    4.637027   -1.816661   -0.996477
 S    3.660470   -3.450733   -0.205931
 C    1.938329   -3.202671   -0.757985
 C    1.275718   -1.989854   -0.131486
 O   -0.011874   -1.841181   -0.748855
 C    1.018276   -2.060176    1.388647
 O    1.598091   -0.935812    2.010955
 C   -0.518804   -1.979358    1.499120
 O   -0.853379   -1.329437    2.685813
 C   -0.831154   -1.223646    0.199002
 N   -2.196513   -1.314959   -0.276404
 C   -2.606587   -1.426903   -1.586528
 N   -3.896160   -1.275806   -1.748896
 C   -4.362901   -1.032463   -0.471659
 C   -3.326022   -1.041557    0.451434
 N   -3.435556   -0.817183    1.769368
 C   -4.694136   -0.563193    2.127277
 N   -5.779687   -0.511332    1.352524
 C   -5.638956   -0.737300    0.037413
 N   -6.723487   -0.631227   -0.762361
 H   -4.483311    2.151829   -1.163237
 H   -3.555815    1.121973   -2.196498
 H   -1.675152    4.241055    1.581978
 H    1.256546    0.359100   -2.610826
 H    2.694204    2.917948   -1.142189
 H    2.081914    1.331535    1.394482
 H    1.408517    3.569179    1.316196
 H    4.459099    1.497783    1.881527
 H    4.318291    3.779739    0.968916
 H    5.169847    1.145997   -0.832457
 H    3.705984   -0.826516    1.017039
 H    5.459128   -0.578058    0.910029
 H    1.913449   -3.114615   -1.846909
 H    1.409566   -4.121084   -0.477168
 H    1.860794   -1.087410   -0.341253
 H    1.411698   -2.983347    1.831344
 H    1.001148   -0.706438    2.743706
 H   -0.961561   -2.983281    1.425217
 H   -1.804539   -1.083305    2.634982
 H   -0.574003   -0.162485    0.333363
 H   -1.887520   -1.603843   -2.370841
 H   -4.859458   -0.373869    3.184114
 H   -6.669313   -0.986753   -1.704130
 H   -7.627751   -0.570894   -0.320375
