62 
2i2c_ligand_xtb.xyz
 N   -2.031171    3.367469    0.048411
 C   -0.690204    3.349957    0.100201
 N   -0.072011    4.315725    0.790482
 C    1.244640    4.334176    0.850344
 N    2.100809    3.479711    0.315423
 C    1.496398    2.511599   -0.382634
 C    0.107395    2.395302   -0.558055
 N   -0.158610    1.308943   -1.353949
 C    1.003399    0.798797   -1.631340
 N    2.048569    1.469314   -1.069036
 C    3.450413    1.138473   -1.146651
 O    3.614563   -0.223281   -1.425727
 C    4.166346    1.419691    0.195372
 O    4.713551    2.694352    0.287233
 C    5.260533    0.343646    0.176794
 O    6.359246    0.750042   -0.585334
 C    4.536897   -0.820880   -0.515966
 C    3.815243   -1.712622    0.487118
 S    3.290144   -3.279611   -0.316129
 S    2.028692   -4.035333    1.079046
 C    0.375814   -3.754636    0.350250
 C    0.083426   -2.291455    0.070344
 O   -1.168188   -2.232084   -0.607321
 C   -0.024510   -1.396631    1.326991
 O    0.920895   -0.361902    1.281952
 C   -1.462371   -0.839430    1.259709
 O   -1.485060    0.494626    1.663269
 C   -1.814069   -1.048177   -0.232289
 N   -3.228473   -1.173873   -0.443624
 C   -3.941046   -2.197984   -1.003687
 N   -5.219191   -1.980464   -1.052272
 C   -5.391668   -0.739000   -0.496328
 C   -4.144651   -0.223081   -0.110145
 N   -3.951648    0.966592    0.476499
 C   -5.085234    1.627998    0.664823
 N   -6.309189    1.260033    0.347707
 C   -6.510988    0.074822   -0.242120
 N   -7.761281   -0.283750   -0.558188
 H   -2.502517    4.031730    0.638195
 H   -2.531970    2.553362   -0.270024
 H    1.680970    5.144028    1.419350
 H    1.161861   -0.066106   -2.243760
 H    3.915625    1.741833   -1.947334
 H    3.464566    1.215892    1.017033
 H    3.956444    3.314938    0.363388
 H    5.580111    0.078205    1.194208
 H    6.465750    1.701820   -0.441303
 H    5.246300   -1.406264   -1.110223
 H    2.925807   -1.217538    0.875013
 H    4.483929   -1.986612    1.302015
 H    0.311822   -4.320052   -0.578217
 H   -0.329370   -4.163213    1.072606
 H    0.864393   -1.872241   -0.580433
 H    0.131556   -1.987718    2.240413
 H    0.457440    0.439598    1.575594
 H   -2.136300   -1.456034    1.875583
 H   -2.343893    0.880585    1.384681
 H   -1.436480   -0.181079   -0.811149
 H   -3.454206   -3.082325   -1.360207
 H   -4.993657    2.593716    1.143616
 H   -7.920225   -1.166968   -1.008179
 H   -8.518577    0.344236   -0.356676
