51 
2i40_ligand_xtb.xyz
 C   -6.654771   -0.983074    0.023686
 O   -5.560300   -0.116597    0.192024
 C   -4.294144   -0.627708    0.056251
 C   -4.051566   -1.965577   -0.202602
 C   -2.738400   -2.408519   -0.294056
 N   -2.248080   -3.673405   -0.512979
 C   -0.962689   -3.555875   -0.484944
 N   -0.523290   -2.268932   -0.269783
 C    0.783712   -1.838296   -0.245227
 C    1.240464   -0.607895   -0.631989
 C    2.634989   -0.473022   -0.454608
 O    3.371016    0.634589   -0.730583
 C    2.660785    1.837048   -1.019916
 C    3.711813    2.921332   -1.246495
 C    1.739181    2.221774    0.115915
 C    2.130080    1.987224    1.428824
 C    1.302642    2.308683    2.488604
 C    0.063260    2.876935    2.248961
 C   -0.342039    3.130806    0.951074
 C    0.495476    2.805772   -0.103717
Cl   -0.053615    3.126657   -1.718973
 C    3.222835   -1.616017    0.047939
 S    2.054417   -2.868435    0.322486
 C    4.615032   -1.941144    0.372939
 O    4.930507   -3.024831    0.826014
 N    5.506823   -0.946076    0.148448
 C   -1.669565   -1.505256   -0.134272
 C   -1.900336   -0.169702    0.135814
 C   -3.211782    0.277618    0.221923
 O   -3.321410    1.608288    0.515501
 C   -4.473089    2.336713    0.146440
 H   -6.668778   -1.425711   -0.977189
 H   -6.657346   -1.779156    0.774628
 H   -7.539141   -0.360979    0.155153
 H   -4.848998   -2.678663   -0.316746
 H   -0.271031   -4.363824   -0.624430
 H    0.600786    0.142642   -1.053333
 H    2.081256    1.698052   -1.942432
 H    3.221317    3.851055   -1.519335
 H    4.287844    3.075909   -0.337610
 H    4.383765    2.623138   -2.047006
 H    3.092878    1.532784    1.611417
 H    1.624462    2.110489    3.499264
 H   -0.594384    3.120238    3.068555
 H   -1.311410    3.557627    0.751868
 H    5.223985   -0.081766   -0.278723
 H    6.479758   -1.131266    0.321770
 H   -1.110847    0.541616    0.310499
 H   -4.768886    2.125769   -0.883500
 H   -5.314173    2.134072    0.811649
 H   -4.188268    3.386133    0.231549
