98 
2i4w_ligand_xtb.xyz
 N    3.539750    1.185311   -1.257309
 C    8.031783    1.098975   -0.036066
 O   -4.029221    2.915874   -1.317264
 C    2.099714    1.150812   -1.087043
 C    1.444630    1.794209   -2.317735
 C   -0.005941    2.109277   -2.098377
 C   -0.383588    3.110287   -1.211505
 C   -1.716390    3.372332   -0.961577
 C   -2.699396    2.626599   -1.598006
 C   -4.775969    1.802903   -0.901210
 P   -3.910703    1.084154    0.567633
 O   -3.498366    2.316126    1.495008
 C   -4.429366    3.332179    1.869752
 C   -3.967873    3.945915    3.180541
 O   -2.752014    0.214981    0.375501
 O   -5.159785    0.377143    1.327481
 C   -4.810943   -0.390063    2.481399
 C   -6.066411   -1.031967    3.043074
 C   -2.337249    1.654721   -2.518696
 C   -1.000312    1.405554   -2.764177
 C    1.673182   -0.317897   -0.866789
 O    1.892502   -1.010543   -2.069221
 C    0.227235   -0.460418   -0.359281
 N    0.081785   -1.650266    0.451970
 C   -0.307943   -1.474387    1.832849
 C    0.868284   -0.992692    2.693210
 C    0.373561   -0.648778    4.095452
 C    1.954198   -2.062983    2.744043
 S   -0.484064   -2.986437   -0.339300
 O   -0.539619   -4.070051    0.596937
 O    0.343591   -3.157387   -1.509790
 C   -2.137684   -2.600459   -0.888639
 C   -2.345701   -2.059913   -2.144610
 C   -3.613461   -1.661778   -2.509282
 C   -4.678515   -1.794333   -1.614273
 O   -5.874570   -1.316245   -2.048313
 C   -6.984575   -1.381597   -1.180064
 C   -4.465711   -2.392589   -0.375446
 C   -3.188595   -2.784399   -0.016130
 C    4.355768    1.329508   -0.190500
 O    4.029333    1.740555    0.894811
 O    5.631318    1.000623   -0.526885
 C    6.589887    1.155041    0.506017
 C    6.535409    0.001832    1.527089
 O    7.860048   -0.164766    1.977884
 C    8.739833    0.100211    0.920223
 O    9.075272   -1.033753    0.166875
 C    8.343793   -1.035095   -1.047798
 C    8.169379    0.440257   -1.408862
 H    3.892502    0.655171   -2.040934
 H    8.491123    2.085231   -0.007769
 H    1.880746    1.726300   -0.183362
 H    1.990560    2.714746   -2.536633
 H    1.560047    1.107748   -3.156418
 H    0.375558    3.685392   -0.702130
 H   -2.008040    4.146637   -0.269569
 H   -5.765380    2.169833   -0.623121
 H   -4.882362    1.043907   -1.680886
 H   -4.457438    4.087603    1.078248
 H   -5.428384    2.895922    1.977406
 H   -2.962761    4.342767    3.069204
 H   -3.956121    3.195401    3.966701
 H   -4.640178    4.749980    3.466503
 H   -4.069236   -1.140561    2.191789
 H   -4.351574    0.270875    3.225080
 H   -5.817051   -1.596873    3.936620
 H   -6.511439   -1.703235    2.313677
 H   -6.796716   -0.268072    3.297880
 H   -3.095103    1.094803   -3.043469
 H   -0.725001    0.647688   -3.482652
 H    2.332088   -0.723302   -0.078611
 H    1.460578   -1.884009   -1.989002
 H   -0.453797   -0.511784   -1.211137
 H   -0.061083    0.408370    0.232960
 H   -1.145063   -0.768714    1.897073
 H   -0.631734   -2.455428    2.183347
 H    1.284988   -0.088925    2.236843
 H   -0.384846    0.129962    4.053667
 H    1.198190   -0.294456    4.708773
 H   -0.057806   -1.527028    4.571133
 H    1.595977   -2.939218    3.279607
 H    2.842704   -1.684541    3.244123
 H    2.220364   -2.371514    1.736392
 H   -1.514919   -1.976961   -2.826900
 H   -3.811074   -1.243393   -3.483950
 H   -6.794902   -0.827790   -0.255538
 H   -7.248212   -2.417728   -0.947085
 H   -7.806600   -0.917066   -1.722486
 H   -5.280629   -2.548111    0.312057
 H   -2.995883   -3.246312    0.939269
 H    6.403895    2.107180    1.016090
 H    6.160198   -0.906776    1.036811
 H    5.910968    0.229879    2.390637
 H    9.665156    0.465433    1.379336
 H    8.930769   -1.596584   -1.775955
 H    7.370445   -1.524864   -0.917293
 H    7.302309    0.616318   -2.038405
 H    9.064883    0.813423   -1.905925
