98 
2i4x_ligand_xtb.xyz
 N    3.539534    1.185118   -1.258174
 C    8.031612    1.099170   -0.036226
 O   -4.029920    2.915605   -1.319904
 C    2.099527    1.150455   -1.087553
 C    1.443975    1.792360   -2.318747
 C   -0.006496    2.107746   -2.099546
 C   -0.384236    3.108987   -1.212909
 C   -1.717064    3.371447   -0.963543
 C   -2.700018    2.625937   -1.600200
 C   -4.776393    1.802933   -0.902698
 P   -3.911060    1.085515    0.566797
 O   -3.499394    2.318027    1.493833
 C   -4.430840    3.333508    1.869178
 C   -3.968891    3.947365    3.179883
 O   -2.751826    0.216891    0.375457
 O   -5.160108    0.378359    1.326571
 C   -4.811138   -0.386968    2.481735
 C   -6.066294   -1.029614    3.043133
 C   -2.337834    1.653646   -2.520492
 C   -1.000864    1.404041   -2.765390
 C    1.673494   -0.318151   -0.865625
 O    1.893177   -1.012237   -2.067192
 C    0.227588   -0.460824   -0.358086
 N    0.082714   -1.650396    0.453694
 C   -0.306544   -1.474159    1.834643
 C    0.869621   -0.991377    2.694420
 C    0.375052   -0.645509    4.096192
 C    1.955699   -2.061398    2.746907
 S   -0.483420   -2.986809   -0.336957
 O   -0.539356   -4.069977    0.599825
 O    0.344212   -3.158708   -1.507279
 C   -2.136946   -2.600886   -0.886677
 C   -2.345015   -2.062526   -2.143561
 C   -3.612894   -1.665471   -2.509098
 C   -4.678048   -1.797250   -1.614065
 O   -5.874381   -1.320786   -2.049042
 C   -6.984333   -1.385788   -1.180784
 C   -4.465045   -2.392815   -0.374117
 C   -3.187840   -2.783445   -0.013858
 C    4.355779    1.331194   -0.191853
 O    4.029671    1.744186    0.892722
 O    5.631220    1.001563   -0.528046
 C    6.589504    1.155634    0.505182
 C    6.534342    0.002023    1.525877
 O    7.858738   -0.165063    1.977342
 C    8.739039    0.099833    0.919990
 O    9.074416   -1.034073    0.166537
 C    8.343504   -1.034813   -1.048530
 C    8.169464    0.440774   -1.409181
 H    3.892240    0.654048   -2.041217
 H    8.491486    2.085174   -0.007531
 H    1.880714    1.726754   -0.184370
 H    1.989772    2.712619   -2.538919
 H    1.559185    1.104941   -3.156673
 H    0.374879    3.683958   -0.703388
 H   -2.008739    4.146030   -0.271826
 H   -5.765885    2.169871   -0.624988
 H   -4.882661    1.043049   -1.681602
 H   -4.459803    4.089150    1.077863
 H   -5.429604    2.896662    1.977461
 H   -2.963442    4.343455    3.068267
 H   -3.957487    3.197019    3.966336
 H   -4.640668    4.752063    3.465660
 H   -4.068276   -1.136933    2.193557
 H   -4.353147    0.275517    3.224884
 H   -5.817451   -1.590995    3.939015
 H   -6.508623   -1.704284    2.315216
 H   -6.798572   -0.266357    3.294087
 H   -3.095726    1.093786   -3.045395
 H   -0.725542    0.645955   -3.483612
 H    2.332431   -0.722511   -0.076967
 H    1.461245   -1.885638   -1.986190
 H   -0.453516   -0.512896   -1.209850
 H   -0.061053    0.408096    0.233708
 H   -1.144032   -0.768924    1.898833
 H   -0.629708   -2.455245    2.185676
 H    1.286261   -0.088209    2.236863
 H   -0.382618    0.133920    4.053499
 H    1.199968   -0.291318    4.709210
 H   -0.057257   -1.522794    4.572848
 H    1.598020   -2.936559    3.284662
 H    2.844468   -1.681752    3.245679
 H    2.221416   -2.372143    1.739824
 H   -1.514039   -1.980441   -2.825923
 H   -3.810487   -1.248926   -3.484566
 H   -6.795220   -0.830335   -0.257241
 H   -7.247014   -2.421734   -0.946172
 H   -7.806759   -0.922922   -1.723982
 H   -5.279951   -2.547496    0.313544
 H   -2.995086   -3.243472    0.942437
 H    6.403751    2.107708    1.015482
 H    6.159102   -0.906260    1.034985
 H    5.909425    0.229829    2.389178
 H    9.664238    0.464696    1.379621
 H    8.930850   -1.596029   -1.776612
 H    7.370036   -1.524549   -0.918666
 H    7.302410    0.617075   -2.038772
 H    9.064960    0.813878   -1.906200
