98 
2i4x_ligand_dft.xyz
 N    3.507893    1.654360   -1.260102
 C    7.910410    0.879800   -0.006257
 O   -4.180186    2.602978   -1.198244
 C    2.059212    1.592124   -1.108359
 C    1.405973    2.457576   -2.198049
 C   -0.086766    2.570119   -2.018029
 C   -0.609999    3.332106   -0.971278
 C   -1.972740    3.346083   -0.704643
 C   -2.829230    2.596448   -1.501311
 C   -4.682340    1.369213   -0.729137
 P   -3.949356    0.890777    0.887232
 O   -3.972247    2.218479    1.793104
 C   -5.150892    3.034342    1.893400
 C   -4.912982    4.062446    2.978838
 O   -2.614017    0.262310    0.895879
 O   -5.153535   -0.034446    1.447413
 C   -4.872888   -0.858663    2.595272
 C   -6.141866   -1.591435    2.973077
 C   -2.339620    1.868572   -2.580221
 C   -0.971149    1.856422   -2.828640
 C    1.620150    0.117390   -1.105478
 O    1.731211   -0.345740   -2.434157
 C    0.238321   -0.151799   -0.482681
 N    0.202385   -1.424499    0.245593
 C    0.092925   -1.361157    1.706272
 C    1.404591   -0.892998    2.351024
 C    1.172326   -0.645675    3.842528
 C    2.531911   -1.898481    2.121036
 S   -0.260281   -2.769239   -0.575949
 O   -0.165323   -3.899987    0.331638
 O    0.478678   -2.764391   -1.840425
 C   -1.968611   -2.554684   -1.013368
 C   -2.306812   -1.962354   -2.229911
 C   -3.636558   -1.718038   -2.523578
 C   -4.634208   -2.051938   -1.600060
 O   -5.895535   -1.720143   -1.961752
 C   -6.932057   -1.908656   -1.018260
 C   -4.292366   -2.669852   -0.394363
 C   -2.955097   -2.914150   -0.104937
 C    4.291912    1.498521   -0.158182
 O    3.926817    1.628930    0.994822
 O    5.560569    1.200657   -0.521220
 C    6.498113    1.087130    0.544177
 C    6.300892   -0.141425    1.434403
 O    7.579205   -0.366598    1.998247
 C    8.600513    0.057676    1.114751
 O    9.266129   -1.000549    0.495719
 C    8.527612   -1.366388   -0.659886
 C    8.018203   -0.040782   -1.240004
 H    3.878911    1.276160   -2.121757
 H    8.412655    1.833262   -0.177883
 H    1.843665    2.018094   -0.124811
 H    1.871570    3.448138   -2.151575
 H    1.636506    2.027719   -3.177316
 H    0.062819    3.902777   -0.335493
 H   -2.379710    3.900400    0.134044
 H   -5.761265    1.496007   -0.606337
 H   -4.512301    0.553044   -1.439221
 H   -5.323093    3.518220    0.926132
 H   -6.012369    2.400042    2.133844
 H   -4.041138    4.676985    2.737677
 H   -4.737800    3.574591    3.941649
 H   -5.785433    4.716794    3.070261
 H   -4.064471   -1.549695    2.339042
 H   -4.531542   -0.219485    3.417166
 H   -5.965143   -2.205287    3.861483
 H   -6.472515   -2.249267    2.163270
 H   -6.946158   -0.883958    3.194449
 H   -3.022118    1.301618   -3.205985
 H   -0.574815    1.252646   -3.640378
 H    2.343102   -0.403536   -0.460168
 H    1.485382   -1.286940   -2.422134
 H   -0.538903   -0.124250   -1.250200
 H   -0.036940    0.624420    0.235103
 H   -0.734490   -0.688937    1.962589
 H   -0.146673   -2.363039    2.071844
 H    1.699873    0.062539    1.895444
 H    0.388219    0.102385    4.005736
 H    2.087762   -0.285403    4.322534
 H    0.869888   -1.571060    4.349248
 H    2.305240   -2.855395    2.606834
 H    3.475292   -1.521626    2.530139
 H    2.676491   -2.098034    1.054542
 H   -1.528483   -1.708573   -2.941317
 H   -3.931394   -1.264068   -3.464097
 H   -6.728804   -1.350062   -0.097020
 H   -7.074440   -2.971367   -0.785681
 H   -7.836685   -1.523730   -1.489879
 H   -5.051925   -2.954330    0.323622
 H   -2.677897   -3.396023    0.826906
 H    6.450235    1.992648    1.155840
 H    5.956401   -0.995894    0.831160
 H    5.588772    0.028635    2.241837
 H    9.344273    0.586406    1.713105
 H    9.202145   -1.907737   -1.326758
 H    7.699504   -2.035714   -0.388680
 H    7.067045   -0.148501   -1.764460
 H    8.748234    0.368556   -1.943136
