41 
2i5j_ligand_xtb.xyz
 N   -0.134837   -0.434586   -0.238126
 N    0.678210    0.380784    0.172306
 C    1.573998    0.448487    1.171529
 O    1.290528    0.894408    2.272152
 O    6.895445   -0.661752   -0.319941
 O    4.914875   -0.929722   -2.145094
 C   -0.988978    0.008271   -1.313817
 C   -2.344196    0.256356   -0.688801
 C   -2.741559    1.567335   -0.472629
 O   -1.871633    2.545749   -0.849778
 C   -4.005265    1.830056    0.089864
 C   -4.833631    0.802933    0.441032
 C   -4.447141   -0.538983    0.269524
 C   -5.287606   -1.604721    0.652327
 C   -4.884110   -2.901136    0.506720
 C   -3.615400   -3.181931   -0.022596
 C   -2.780431   -2.171910   -0.410893
 C   -3.170612   -0.819512   -0.289355
 C   -2.204719    3.891045   -0.609214
 C    2.974018    0.169307    0.739537
 C    3.292455   -0.251196   -0.549343
 C    4.605761   -0.523514   -0.887862
 C    5.613491   -0.376215    0.078065
 C    5.292436    0.039461    1.358612
 C    3.978351    0.311680    1.689337
 H    7.498249   -0.525811    0.419026
 H    5.871335   -1.068000   -2.186939
 H   -1.048342   -0.802997   -2.042223
 H   -0.628274    0.928919   -1.781406
 H   -4.324167    2.847800    0.248117
 H   -5.801776    1.015526    0.870909
 H   -6.257184   -1.372007    1.069111
 H   -5.530388   -3.713937    0.803403
 H   -3.298804   -4.210298   -0.118049
 H   -1.800248   -2.408886   -0.791549
 H   -3.094236    4.194597   -1.171010
 H   -2.358091    4.082991    0.456846
 H   -1.348105    4.467310   -0.955751
 H    2.536214   -0.370110   -1.308800
 H    6.075615    0.149725    2.096447
 H    3.709700    0.637460    2.681690
