54 
2i6b_ligand_xtb.xyz
 C   -4.415939   -3.868752    0.177992
 N   -3.131263   -3.628253    0.072693
 C   -2.764991   -2.337680    0.050001
 C   -3.693666   -1.293646    0.142140
 C   -5.042033   -1.693590    0.252475
 N   -5.390395   -2.981633    0.270217
 C   -3.275483    0.112381    0.124656
 C   -2.302012    0.577790    1.005031
 C   -1.873116    1.886875    0.971908
 C   -2.388103    2.798504    0.038605
 C   -3.380594    2.327678   -0.832916
 C   -3.811830    1.018667   -0.786516
 C    2.164435   -2.190126   -0.448823
 N    3.420935   -1.816716   -0.550816
 C    3.723194   -0.513901   -0.616484
 C    2.710512    0.465830   -0.587521
 C    1.401301    0.068386   -0.472953
 C    1.093233   -1.298506   -0.391837
 C    5.626022    1.068491   -0.468191
 C    6.186538    1.038618    0.961993
 O    7.140912    0.014238    1.108007
 C    6.590682   -1.249616    0.795337
 C    6.029715   -1.273689   -0.630622
 N    5.046705   -0.217733   -0.782631
 C   -1.394598   -2.036743   -0.101393
 C   -0.235799   -1.727431   -0.249969
 N   -1.920464    4.089573   -0.043433
 C   -2.646395    5.063475   -0.822518
 C   -0.960369    4.572382    0.917294
 N   -6.055060   -0.790833    0.322064
 H   -4.715024   -4.909627    0.196914
 H   -1.883832   -0.095996    1.738546
 H   -1.129387    2.195684    1.688254
 H   -3.817493    2.982309   -1.568933
 H   -4.559603    0.684516   -1.492044
 H    1.996792   -3.258334   -0.400281
 H    2.942095    1.516336   -0.661303
 H    0.601328    0.795261   -0.444625
 H    6.448755    1.246985   -1.169252
 H    4.899856    1.871335   -0.571227
 H    5.356496    0.886576    1.670970
 H    6.700527    1.971348    1.200672
 H    5.783420   -1.492961    1.502643
 H    7.402389   -1.968765    0.910206
 H    5.548573   -2.228149   -0.835558
 H    6.837153   -1.093124   -1.346903
 H   -2.600722    4.816930   -1.886778
 H   -3.698970    5.124773   -0.523130
 H   -2.196949    6.044321   -0.687004
 H   -0.640280    5.572928    0.634217
 H   -1.369943    4.614874    1.934576
 H   -0.077301    3.930336    0.924016
 H   -5.834854    0.160098    0.564114
 H   -6.957742   -1.154760    0.575065
