28 
2i72_ligand_xtb.xyz
 O    5.151318   -1.142816   -0.736808
 C    4.856158   -0.312383    0.076314
 N    3.767958    0.526117   -0.031487
 C    3.486911    1.437191    0.957188
 O    4.139426    1.607338    1.948173
 C    2.875264    0.403248   -1.180844
 C    1.510661   -0.071541   -0.755214
 C    0.398727    0.727424   -0.916161
 C   -0.851941    0.269785   -0.493199
 C   -2.117078    0.912414   -0.562907
 C    1.389599   -1.337084   -0.162962
 C    0.170838   -1.808821    0.268866
 C   -0.949554   -1.004419    0.102807
 S   -2.586381   -1.365891    0.552909
 C   -3.141688    0.178133   -0.050846
 B   -4.651111    0.564434    0.034362
 O   -5.014989    1.781941   -0.438209
 O   -5.505663   -0.336789    0.571233
 H    5.419407   -0.121578    1.000696
 H    2.571707    2.009832    0.730021
 H    3.344591   -0.323463   -1.850674
 H    2.809417    1.368633   -1.689935
 H    0.478733    1.702973   -1.374287
 H   -2.267756    1.891408   -0.980916
 H    2.273075   -1.947949   -0.050826
 H    0.080133   -2.782180    0.724020
 H   -5.943142    2.012305   -0.382957
 H   -6.432336   -0.101776    0.623560
