25 
2igw_ligand_xtb.xyz
 N   -3.422448    0.599855    0.172195
 C   -2.023412    0.768275    0.585794
 C   -1.345015   -0.499781    0.015224
 O   -2.127581   -1.280520   -0.550467
 N   -0.062674   -0.724178    0.153350
 C    0.941039    0.158439    0.725209
 C    1.163805    1.366663   -0.202342
 O    2.366396    1.882323   -0.083945
 C    2.175208   -0.738247    0.851144
 C    2.038952   -1.660570   -0.358034
 C    0.541805   -1.937485   -0.401918
 O    0.298048    1.793649   -0.920335
 H   -3.260435   -0.435132   -0.339074
 H   -4.093039    0.536883    0.936044
 H   -3.737136    1.287284   -0.510990
 H   -1.920453    0.798466    1.670615
 H   -1.570666    1.656332    0.145828
 H    0.615846    0.556942    1.692685
 H    2.495315    2.657581   -0.657528
 H    2.120673   -1.311881    1.776074
 H    3.095967   -0.162019    0.848366
 H    2.358181   -1.145922   -1.264453
 H    2.619832   -2.572379   -0.254049
 H    0.267723   -2.786027    0.230713
 H    0.154855   -2.117247   -1.405526
