72 
2ihj_ligand_xtb.xyz
 C    2.958376    1.012788    0.110765
 C    2.853785    0.183943   -1.186704
 C    2.002897   -1.709498    0.235733
 O    2.150261   -0.925936    1.366838
 C    1.959504    0.479358    1.147493
 C    3.022663   -1.306045   -0.854755
 O    3.757126    0.605462   -2.160585
 N    2.690485    2.398633   -0.175266
 C    2.142603    1.139351    2.521499
 C    0.933969    0.912885    3.465762
 C   -0.405641    1.418952    2.909854
 O   -0.929275    0.563847    1.924526
 O    0.756658   -0.454367    3.764032
 O    3.310302    0.664634    3.147499
 C    2.272993   -3.160237    0.646536
 O    1.570787   -4.063892    0.275518
 O    3.324722   -3.294497    1.415466
 O    0.692599   -1.587631   -0.236194
 O   -0.887815   -3.579418   -0.695144
 N   -4.107791    0.487871   -0.516033
 C   -4.833594    1.281404    0.430206
 N   -5.578306    0.627844    1.322931
 C   -5.587758   -0.687585    1.376405
 C   -4.803158   -1.496235    0.505157
 C   -4.067062   -0.850694   -0.435761
 P    0.069974   -2.547602   -1.397426
 N   -6.380061   -1.248983    2.307490
 O   -4.715443    2.490956    0.357020
 O    1.069111   -3.008008   -2.358976
 C    3.713184    3.270307   -0.400964
 O    4.870124    2.994130   -0.174059
 C    3.246650    4.610879   -0.916665
 F    4.291526   -1.512638   -0.356342
 C   -0.902893    1.314699   -1.398220
 C   -2.144421    1.939278   -0.736486
 C   -3.330360    1.260927   -1.462053
 O   -2.839656    0.477046   -2.507780
 C   -1.446570    0.662517   -2.687578
 O   -1.073335   -1.600578   -1.952375
 C   -0.817882   -0.694828   -3.013130
 O    0.104559    2.255016   -1.636126
 O   -2.143269    3.329559   -0.924878
 H    3.983155    0.955203    0.502873
 H    1.858618    0.325619   -1.623508
 H    0.942528    0.656760    0.787499
 H    2.910632   -1.937677   -1.740550
 H    4.646398    0.637526   -1.780769
 H    1.784907    2.585324   -0.590996
 H    2.262472    2.219431    2.375344
 H    1.160276    1.467956    4.390298
 H   -1.115859    1.496434    3.744109
 H   -0.283254    2.404204    2.455432
 H   -0.794437   -0.337917    2.249881
 H    1.624848   -0.820173    3.969061
 H    3.512625   -0.204725    2.776916
 H    3.504524   -4.229670    1.618625
 H   -0.393521   -4.356145   -0.423906
 H   -4.791775   -2.568386    0.590797
 H   -3.429449   -1.356189   -1.146870
 H   -6.895305   -0.639795    2.917553
 H   -6.402645   -2.242269    2.443837
 H    4.074461    5.313251   -0.897860
 H    2.899881    4.495524   -1.941227
 H    2.428086    4.988491   -0.309951
 H   -0.502959    0.532584   -0.747825
 H   -2.165740    1.697220    0.331505
 H   -4.004915    2.038443   -1.859946
 H   -1.272880    1.339750   -3.538802
 H    0.254841   -0.588616   -3.192886
 H   -1.294154   -1.093939   -3.913418
 H   -0.343651    3.110640   -1.742295
 H   -2.944701    3.657796   -0.489122
