45 
2iiv_ligand_xtb.xyz
 C   -5.010437   -1.089542    0.154145
 C   -3.645987   -1.144430   -0.043281
 C   -2.868689   -0.031141   -0.339836
 C   -3.525772    1.189611   -0.428399
 C   -4.892907    1.278876   -0.233069
 C   -5.640826    0.138779    0.055496
 F   -5.485581    2.467987   -0.325064
 F   -3.025815   -2.348641    0.076184
 C   -1.381392   -0.124872   -0.571433
 C   -0.575139   -0.274778    0.732953
 C    0.827033    0.342135    0.615162
 C    1.739744   -0.442200   -0.318965
 N    2.854848    0.122901   -0.772865
 N   -0.417869   -1.723190    1.035114
 O    1.439381   -1.611497   -0.633671
 C    3.746204   -0.690895   -1.589059
 C    4.774685   -1.441941   -0.741806
 C    5.746907   -0.529526    0.010841
 N    5.128648    0.177496    1.115656
 C    4.064156    0.993034    1.129629
 C    3.387528    1.358549   -0.209578
 C    4.242797    2.187865   -1.161351
 O    3.569437    1.383597    2.168770
 F   -6.953780    0.219233    0.241521
 H   -5.576195   -1.979942    0.375192
 H   -2.983281    2.092408   -0.660121
 H   -1.067300    0.782969   -1.084207
 H   -1.159911   -0.966409   -1.231416
 H   -1.113872    0.221952    1.547107
 H    0.712706    1.369026    0.271227
 H    1.309281    0.391672    1.596801
 H   -1.282203   -2.251513    0.885306
 H   -0.068941   -1.893386    1.979185
 H    0.353581   -1.992045    0.276914
 H    3.128780   -1.413302   -2.126210
 H    4.239227   -0.045858   -2.314144
 H    5.352646   -2.082834   -1.407275
 H    4.253143   -2.082616   -0.028000
 H    6.540893   -1.144119    0.436404
 H    6.218131    0.171869   -0.683551
 H    5.491914   -0.017248    2.039319
 H    2.548242    1.999591    0.071332
 H    5.193826    1.734378   -1.412709
 H    3.690643    2.382186   -2.078467
 H    4.447918    3.141615   -0.681278
