45 
2iiv_ligand_dft.xyz
 C   -4.935083   -1.205464    0.177786
 C   -3.571085   -1.124636   -0.039603
 C   -2.900029    0.047897   -0.359571
 C   -3.677555    1.207062   -0.456615
 C   -5.043807    1.165305   -0.244769
 C   -5.673423   -0.039607    0.066960
 F   -5.773320    2.270087   -0.342837
 F   -2.837873   -2.268695    0.098211
 C   -1.408314    0.084922   -0.607654
 C   -0.559187    0.113639    0.675574
 C    0.880154    0.594674    0.456919
 C    1.734444   -0.380457   -0.358274
 N    2.919020    0.039264   -0.844159
 N   -0.519631   -1.275634    1.267954
 O    1.331278   -1.544062   -0.535406
 C    3.773912   -0.957304   -1.502205
 C    4.704644   -1.671112   -0.521358
 C    5.697487   -0.765016    0.210845
 N    5.095629    0.135301    1.190639
 C    4.129996    1.075520    1.030474
 C    3.536047    1.290659   -0.373238
 C    4.493928    1.931482   -1.376127
 O    3.681916    1.713064    1.973390
 F   -6.982913   -0.056314    0.262110
 H   -5.415143   -2.146193    0.418592
 H   -3.226228    2.159938   -0.713972
 H   -1.176006    0.995369   -1.167485
 H   -1.088076   -0.753466   -1.235511
 H   -1.039583    0.762863    1.411770
 H    0.814966    1.565721   -0.040730
 H    1.381343    0.794174    1.413549
 H   -1.431927   -1.743144    1.212956
 H   -0.184950   -1.281285    2.233156
 H    0.162845   -1.786079    0.646127
 H    3.117067   -1.679612   -1.985079
 H    4.341642   -0.448691   -2.284463
 H    5.279493   -2.411727   -1.088330
 H    4.103324   -2.221577    0.210563
 H    6.391098   -1.394094    0.772547
 H    6.307892   -0.205349   -0.507385
 H    5.420236    0.069874    2.146198
 H    2.742385    2.016235   -0.205836
 H    5.415643    1.370523   -1.534113
 H    3.996305    2.061928   -2.341438
 H    4.771175    2.918967   -0.998256
