62 
2iku_ligand_dft.xyz
 N    5.096780   -1.017577   -0.427970
 N    3.627342   -2.272229   -1.657596
 C    2.775606   -1.021278    0.236175
 C    2.141342    0.300836    2.321064
 C    0.997951   -2.788435    0.035042
 C   -0.322021   -3.135010   -0.234056
 C   -0.916297   -0.825462   -0.623076
 C   -2.719667   -2.588443   -0.807413
 C   -3.252817   -0.161015   -1.147255
 C   -0.856252    2.109430   -2.097098
 C    1.876879    1.803234    2.174577
 C   -4.114462    0.019504    0.100095
 C   -3.571283   -0.055393    1.382452
 C   -5.754371    0.281204    2.357150
 C   -5.486933    0.236427   -0.037936
 C    3.838891   -1.421340   -0.610280
 C    3.135794   -0.198703    1.300662
 N    4.398717    0.210475    1.503958
 C    5.303578   -0.210521    0.619004
 N    6.582868    0.254840    0.781503
 C    1.377049   -1.446233   -0.038743
 C    0.427880   -0.485742   -0.390745
 C   -1.288591   -2.187378   -0.548525
 C   -3.391562   -1.574640   -1.726813
 C   -4.386929    0.071823    2.504324
 C   -6.304005    0.365175    1.079922
 N   -1.854406    0.154144   -0.920827
 C   -1.509211    1.557818   -0.821620
 C   -0.111092    3.408588   -1.845190
 O    0.976505    3.121719   -0.997131
 C    1.746228    4.251390   -0.678595
 H    2.683535   -2.396438   -1.989862
 H    4.369672   -2.320579   -2.338172
 H    1.203517   -0.255433    2.246470
 H    2.569730    0.108705    3.311000
 H    1.727238   -3.545989    0.304517
 H   -0.622191   -4.179632   -0.181120
 H   -3.275616   -2.643186    0.138396
 H   -2.755748   -3.588922   -1.251889
 H   -3.622005    0.542060   -1.906771
 H   -0.143386    1.375827   -2.488337
 H   -1.617764    2.263665   -2.870975
 H    1.208673    2.156108    2.967314
 H    1.413064    2.032633    1.209539
 H    2.818890    2.356259    2.243645
 H   -2.503417   -0.213541    1.503374
 H   -6.389209    0.382920    3.232337
 H   -5.920487    0.308008   -1.033823
 H    7.306507   -0.271592    0.317917
 H    6.798014    0.621396    1.695446
 H    0.765578    0.539886   -0.487281
 H   -2.914561   -1.594706   -2.713674
 H   -4.452797   -1.805870   -1.860439
 H   -3.948763    0.007743    3.496062
 H   -7.369221    0.536281    0.954285
 H   -2.426515    2.114951   -0.600286
 H   -0.845187    1.717937    0.034367
 H    0.250119    3.839073   -2.793358
 H   -0.773865    4.157466   -1.376196
 H    2.182062    4.707745   -1.580580
 H    1.147531    5.013427   -0.155909
 H    2.551216    3.917465   -0.021137
