21 
2ilp_ligand_xtb.xyz
 O   -3.751736    1.275528    0.011323
 C   -3.380395    0.109485    0.010876
 N   -4.302647   -0.881784    0.049090
 O   -5.644868   -0.507420   -0.047930
 C   -1.987130   -0.347383    0.022499
 C   -0.994426    0.551277    0.001966
 C    0.431854    0.299980    0.002168
 C    0.982713   -0.984873    0.005619
 C    2.349588   -1.172590    0.003030
 C    3.193381   -0.070653   -0.002248
Cl    4.903094   -0.303947   -0.006545
 C    2.674134    1.215611   -0.004626
 C    1.305661    1.391905   -0.002986
 H   -4.157234   -1.857648   -0.145516
 H   -5.587720    0.473826   -0.041600
 H   -1.820743   -1.413291    0.046413
 H   -1.289694    1.593856   -0.017455
 H    0.337365   -1.849040    0.009375
 H    2.766659   -2.167537    0.004717
 H    3.338363    2.065513   -0.008386
 H    0.899488    2.392490   -0.004865
