21 
2ima_ligand_xtb.xyz
 O   -3.846688    0.963902   -0.156153
 C   -3.492475   -0.196695   -0.005468
 N   -4.427271   -1.162079    0.162827
 O   -5.764772   -0.785991    0.025480
 C   -2.104866   -0.670118    0.062061
 C   -1.100002    0.202633   -0.083458
 C    0.319714   -0.081777   -0.052288
 C    1.258692    0.960729   -0.000619
Cl    0.752643    2.607668    0.050875
 C    2.620427    0.709596    0.024625
 C    0.821258   -1.387544   -0.084410
 C    2.173220   -1.654902   -0.061083
 C    3.073310   -0.599280   -0.005002
Cl    4.765705   -0.912030    0.024585
 H   -4.296215   -2.157465    0.105236
 H   -5.697004    0.187313   -0.093569
 H   -1.955750   -1.724356    0.238520
 H   -1.379295    1.238207   -0.231683
 H    3.320170    1.528784    0.066647
 H    0.129139   -2.212288   -0.140446
 H    2.533971   -2.670633   -0.088086
