27 
2ipo_ligand_dft.xyz
 O    3.569644   -1.356854   -0.099635
 P    2.322368   -0.349926   -0.227249
 O    1.282263   -1.168552   -1.128850
 O    2.644194    1.006312   -0.734925
 C    1.677727   -0.442974    1.475018
 C    0.299361    0.195754    1.618151
 O    0.119407    1.257621    2.193009
 N   -0.700285   -0.508405    1.021916
 C   -2.013160    0.062423    0.777626
 C   -2.878192   -0.899679   -0.028654
 O   -3.962090   -0.607132   -0.464056
 O   -2.330514   -2.116743   -0.173470
 C   -1.966012    1.432248    0.057361
 C   -0.836840    1.394393   -0.952626
 O   -0.765291    0.470932   -1.772835
 N    0.090837    2.362152   -0.854565
 H    4.181658   -1.245782   -0.840970
 H    0.619506   -0.572768   -1.567020
 H    1.650112   -1.500543    1.758383
 H    2.368953    0.083875    2.134879
 H   -0.450144   -1.310466    0.458648
 H   -2.530299    0.206322    1.733375
 H   -2.944289   -2.636536   -0.716658
 H   -1.822162    2.225505    0.791047
 H   -2.920509    1.587611   -0.452063
 H    0.126429    2.910216   -0.007136
 H    0.993147    2.187582   -1.290346
