10 
2it4_ligand_dft.xyz
 C    1.193371    0.155705    0.058902
 O   -1.099341    1.136157   -0.904993
 O   -1.254262    0.074908    1.384850
 O   -0.872285   -1.506149   -0.616458
 O    1.950562   -0.933697    0.104718
 O    1.629783    1.280504    0.070470
 P   -0.632965   -0.157772   -0.075626
 H   -0.351766    1.746002   -1.027674
 H   -1.535152    0.987096    1.539933
 H    1.385504   -1.714530   -0.039981
