119 
2iyf_ligand_xtb.xyz
 C   -3.963365   -1.695854   -1.405054
 C   -4.285088   -0.481249   -0.485995
 C   -3.835903    0.966318   -0.862518
 C   -4.134020    1.996809    0.279529
 O   -3.380822    1.613100    1.438401
 C   -1.363308    1.227685    2.542546
 C   -0.671278    0.225425    1.560763
 C   -0.570668   -1.201992    2.149784
 C    0.039034   -2.163592    1.096547
 C   -0.608397   -3.582926    0.997960
 C   -2.011275   -3.520018    0.357400
 C   -1.972902   -3.348484   -1.178463
 C   -2.485288   -1.993115   -1.593820
 O   -1.733200   -1.192865   -2.119293
 C   -2.179107    2.155358    1.654980
 O   -1.797330    3.192246    1.184223
 O    0.608145    0.707120    1.160890
 O    1.436869   -2.328023    1.360141
 C   -4.615233   -1.658913   -2.791128
 C   -2.734529   -4.475552   -1.880661
 C   -4.534348    1.451622   -2.141059
 O   -3.782252   -0.896996    0.767578
 O   -2.435782    1.078482   -1.019394
 C   -5.597369    2.235850    0.673423
 C   -0.397345    2.012752    3.429837
 C   -0.695038   -4.264937    2.367321
 O    0.196331   -4.369918    0.144541
 C    2.311050   -1.927193    0.379281
 C    3.516662   -1.192255    1.016715
 C    4.364268   -0.701848   -0.175117
 C    4.802435   -1.898655   -1.013021
 C    3.559308   -2.703948   -1.450670
 O    2.789849   -3.056255   -0.322449
 N    5.542499    0.140225    0.241225
 C    3.942761   -3.988248   -2.170352
 O    3.137786   -0.151170    1.860327
 C    6.304829   -0.415540    1.372058
 C    0.671317    1.489850   -0.003289
 C    1.263951    2.864852    0.298217
 C    1.428541    3.690675   -0.989763
 C    2.129762    2.837213   -2.083628
 C    1.651746    1.377801   -2.179656
 O    1.516905    0.782216   -0.896947
 O    2.369645    4.754152   -0.779515
 O    3.525133    2.786166   -1.832278
 C    1.980373    5.825795    0.051485
 C    5.138395    1.529170    0.536644
 C    0.426759    1.169113   -3.066756
 C   -6.146466    1.299684    1.747725
 C    0.185578   -1.238231    3.476405
 C    0.082150    4.233466   -1.463939
 H   -4.399104   -2.527597   -0.844671
 H   -5.387186   -0.437646   -0.444375
 H   -3.702110    2.938498   -0.084102
 H   -2.066832    0.648906    3.143922
 H   -1.304194    0.141445    0.669070
 H   -1.603278   -1.516177    2.321924
 H   -0.077060   -1.709751    0.104171
 H   -2.509061   -4.462829    0.581996
 H   -2.585884   -2.717889    0.817124
 H   -0.929632   -3.407848   -1.502639
 H   -4.642750   -2.663615   -3.205067
 H   -4.056230   -1.030918   -3.478603
 H   -5.635294   -1.291830   -2.721908
 H   -2.245551   -5.417702   -1.648953
 H   -2.714885   -4.338181   -2.959720
 H   -3.768547   -4.532368   -1.550343
 H   -4.465883    2.534872   -2.205752
 H   -5.579583    1.162344   -2.164727
 H   -4.034444    1.038017   -3.011420
 H   -3.897181   -0.176197    1.401016
 H   -2.140408    0.373987   -1.634683
 H   -6.215150    2.180855   -0.221600
 H   -5.665950    3.255589    1.057291
 H   -0.818551    2.146293    4.422403
 H    0.557503    1.506133    3.514845
 H   -0.225692    2.997852    3.002941
 H   -1.420776   -3.777288    3.009797
 H   -0.994542   -5.300007    2.221128
 H    0.282645   -4.257215    2.841854
 H    1.123047   -4.246839    0.392954
 H    1.823512   -1.238457   -0.331644
 H    4.066022   -1.930410    1.613729
 H    3.725379   -0.042867   -0.773595
 H    5.343336   -1.575237   -1.904512
 H    5.441724   -2.565917   -0.431612
 H    2.949069   -2.067199   -2.113509
 H    6.162016    0.165890   -0.576265
 H    4.537466   -4.618829   -1.515864
 H    3.042196   -4.530883   -2.439847
 H    4.507712   -3.763987   -3.069957
 H    2.237136    0.151379    1.622002
 H    6.589490   -1.446668    1.176969
 H    7.206456    0.173186    1.531187
 H    5.691218   -0.371570    2.269606
 H   -0.327859    1.596954   -0.438266
 H    2.237613    2.732413    0.774524
 H    0.590218    3.377640    0.980693
 H    1.965065    3.320557   -3.057191
 H    2.486543    0.821829   -2.629510
 H    3.775709    3.699331   -1.623564
 H    1.597761    5.479058    1.013963
 H    1.235109    6.463128   -0.430298
 H    2.887316    6.406080    0.215131
 H    4.488710    1.518048    1.409948
 H    6.018814    2.135198    0.739323
 H    4.594545    1.949874   -0.312597
 H    0.146663    0.118871   -3.044316
 H   -0.425141    1.752577   -2.738072
 H    0.668279    1.449236   -4.087747
 H   -7.157943    1.607286    2.000827
 H   -6.185720    0.265841    1.417884
 H   -5.540844    1.356705    2.648643
 H    0.268006   -2.258703    3.831230
 H   -0.344037   -0.657679    4.225142
 H    1.188581   -0.841856    3.361487
 H   -0.607965    3.429117   -1.686403
 H    0.216436    4.845684   -2.352930
 H   -0.371692    4.832538   -0.679220
