14 
2j27_ligand_xtb.xyz
 P   -1.340672    0.071678    0.044750
 O   -0.158888   -0.488566    0.971479
 O   -1.731556   -1.212839   -0.824710
 O   -0.667523    0.967999   -1.087413
 O   -2.422460    0.667774    0.810976
 C    1.011650   -0.989388    0.382592
 C    1.994482    0.144348    0.087711
 O    3.204948   -0.252685   -0.320225
 O    1.714991    1.299367    0.200810
 H   -2.678242   -1.210721   -0.953004
 H   -0.302163    1.776885   -0.723557
 H    0.782086   -1.516711   -0.551935
 H    1.451481   -1.690216    1.102022
 H    3.304024   -1.212582   -0.373928
