14 
2j27_ligand_dft.xyz
 P   -1.511973   -0.072295   -0.093690
 O    0.016078    0.399613   -0.220689
 O   -2.246798    1.327582   -0.287460
 O   -1.581331   -0.424014    1.481115
 O   -1.992235   -1.148407   -0.967594
 C    1.035812   -0.566129   -0.100596
 C    2.376533    0.155988   -0.011334
 O    3.441292   -0.673183    0.004043
 O    2.505649    1.341506    0.059206
 H   -1.772175    2.061447    0.127501
 H   -2.255809   -1.097666    1.642971
 H    1.022660   -1.238088   -0.968182
 H    0.898291   -1.167240    0.808637
 H    3.171319   -1.597961   -0.082960
