52 
2j34_ligand_xtb.xyz
Cl    5.142289   -1.886296   -0.640834
 C    3.452652   -2.238141   -0.565980
 C    2.665656   -1.559571    0.342871
 C    1.308455   -1.848771    0.369061
 C    0.744675   -2.814954   -0.491532
 C   -0.662342   -2.927023   -0.304148
 C    1.575611   -3.488231   -1.389723
 C    2.919392   -3.197600   -1.429619
 C   -1.123975   -2.082138    0.641688
 S   -2.818829   -1.807852    1.096374
 O   -3.623220   -2.744218    0.373195
 O   -2.894234   -1.764203    2.522938
 N   -3.209434   -0.293330    0.552744
 C   -3.380962   -0.106356   -0.875538
 C   -4.265624    1.104832   -1.166583
 C   -3.278643    2.275211   -1.108668
 C   -2.025833    0.321865   -1.426333
 O   -1.068956   -0.388887   -1.660085
 N   -2.020712    1.672815   -1.509541
 C   -0.737624    2.333131   -1.373370
 C   -0.806063    3.813331   -1.729320
 C   -0.291119    2.125272    0.088071
 O   -1.130739    1.896206    0.947978
 N    1.015808    2.197869    0.378072
 C    2.129010    2.381118   -0.525919
 C    2.948834    3.596496   -0.065938
 O    3.382139    3.447679    1.261881
 C    2.288920    3.285785    2.138214
 C    1.453363    2.061689    1.757379
 S    0.098303   -1.117592    1.386141
 H    3.098097   -0.833931    1.012652
 H   -1.307563   -3.581450   -0.859603
 H    1.154749   -4.227082   -2.053219
 H    3.571522   -3.703668   -2.123734
 H   -2.672336    0.438647    1.005950
 H   -3.751780   -1.053526   -1.266926
 H   -4.694586    1.013461   -2.164162
 H   -5.064830    1.201005   -0.436562
 H   -3.201472    2.677874   -0.093931
 H   -3.547743    3.078976   -1.798039
 H   -0.061210    1.795402   -2.046393
 H   -1.428336    4.348713   -1.016429
 H   -1.223302    3.937304   -2.725798
 H    0.188561    4.251197   -1.714609
 H    2.762163    1.486611   -0.480933
 H    1.798131    2.524863   -1.550903
 H    2.336338    4.507862   -0.161107
 H    3.848878    3.701304   -0.673578
 H    1.655451    4.185727    2.116545
 H    2.711984    3.165873    3.135926
 H    2.059007    1.155815    1.853184
 H    0.571933    1.973401    2.391733
