52 
2j34_ligand_dft.xyz
Cl    5.585532   -1.407328    0.009418
 C    3.885066   -1.490352   -0.382605
 C    3.006274   -2.013134    0.547549
 C    1.650036   -2.047535    0.207142
 C    1.190287   -1.588902   -1.045157
 C   -0.232369   -1.721047   -1.178930
 C    2.115822   -1.065354   -1.962362
 C    3.455792   -1.010470   -1.632005
 C   -0.794139   -2.230352   -0.058701
 S   -2.527423   -2.452259    0.246609
 O   -3.177610   -2.914138   -0.965027
 O   -2.587019   -3.201797    1.487268
 N   -3.130446   -0.935857    0.567923
 C   -3.800759   -0.135450   -0.460826
 C   -4.724532    0.879004    0.213088
 C   -3.774012    2.026754    0.590337
 C   -2.769919    0.772217   -1.139297
 O   -1.991270    0.484546   -2.031559
 N   -2.774392    1.969970   -0.473080
 C   -1.519352    2.690029   -0.434308
 C   -1.676952    4.091544    0.154790
 C   -0.508674    1.854857    0.392135
 O   -0.917814    1.043787    1.222070
 N    0.811909    2.087175    0.207388
 C    1.423069    2.920876   -0.819155
 C    2.435975    3.859672   -0.165888
 O    3.396019    3.144781    0.573087
 C    2.792516    2.368373    1.590422
 C    1.801800    1.370356    1.005712
 S    0.344678   -2.611438    1.210117
 H    3.363455   -2.373646    1.505878
 H   -0.804236   -1.407240   -2.042390
 H    1.773529   -0.703286   -2.927009
 H    4.183908   -0.607733   -2.326924
 H   -2.496676   -0.400930    1.165599
 H   -4.293185   -0.810707   -1.158006
 H   -5.466981    1.231301   -0.509886
 H   -5.240185    0.455263    1.075810
 H   -3.307582    1.867375    1.569307
 H   -4.278693    2.997009    0.597901
 H   -1.181918    2.753543   -1.470998
 H   -1.980237    4.045355    1.205024
 H   -2.428574    4.655354   -0.404743
 H   -0.730453    4.637225    0.107480
 H    1.937843    2.268854   -1.537225
 H    0.676880    3.501707   -1.360308
 H    1.900567    4.571413    0.485837
 H    2.979330    4.422294   -0.929234
 H    2.279625    3.024358    2.312414
 H    3.603413    1.844628    2.101704
 H    2.335686    0.668707    0.356226
 H    1.280844    0.809920    1.781863
