33 
2j4g_ligand_dft.xyz
 C   -0.468795   -1.070256   -1.000519
 C    0.235449    0.292617   -1.203409
 C   -0.285599    1.364006   -0.234514
 C   -1.799666    1.337898   -0.135248
 C   -2.222011   -0.059732    0.301176
 C   -3.725665   -0.231594    0.433563
 C    1.939312   -0.839542   -0.225828
 C    3.329129   -1.167456    0.246575
 C    3.967606    1.099557    1.228937
 N    1.664004    0.153071   -0.975261
 O    0.097080    2.659803   -0.644791
 O   -2.254602    2.264467    0.820833
 O   -1.818585   -1.002583   -0.696899
 O   -4.057890   -1.542371    0.821756
 S    0.606487   -1.919910    0.265378
 C    4.294035    0.019521    0.198867
 H   -0.408404   -1.672335   -1.909204
 H    0.051979    0.645542   -2.223595
 H    0.111319    1.149473    0.770309
 H   -2.231541    1.545283   -1.128666
 H   -1.743411   -0.311010    1.258043
 H   -4.095842    0.446190    1.204823
 H   -4.200026    0.042776   -0.522489
 H    3.699457   -1.988330   -0.381558
 H    3.268854   -1.571323    1.265233
 H    3.983900    0.692107    2.246341
 H    4.695033    1.915995    1.183487
 H    2.973825    1.523348    1.051862
 H    1.062615    2.672688   -0.686745
 H   -1.789428    3.092149    0.636407
 H   -3.628960   -2.128967    0.185038
 H    4.280827    0.448790   -0.807705
 H    5.307185   -0.359949    0.374392
