46 
2j4q_ligand_xtb.xyz
 P    1.428494    1.798578    0.845331
 O    2.780519    2.326973    1.032952
 O    0.884687    0.747257    1.865796
 O    1.286336    1.193310   -0.635255
 P    1.115779   -0.326443   -1.075874
 O    0.644982   -0.226412   -2.548739
 O    0.372793   -1.187400   -0.166533
 O    2.654318   -0.754322   -1.245413
 P    3.651285   -0.552452    0.012989
 O    4.742132   -1.648799   -0.259885
 O    4.419403    0.767744   -0.235086
 O    2.932857   -0.699720    1.288115
 N   -2.393761   -0.864023   -0.559112
 C   -1.814646   -1.899546   -1.255490
 O   -1.481298   -1.797399   -2.428644
 N   -1.736567   -3.078126   -0.587558
 C   -1.905579   -3.288059    0.780600
 O   -1.711891   -4.378960    1.260398
 C   -2.345949   -2.094495    1.494859
 C   -2.497317   -2.199046    2.976480
 C   -2.555838   -0.964225    0.802478
 O    0.354587    2.957361    0.897379
 C   -1.020069    2.691628    1.102606
 C   -1.766073    2.442968   -0.210502
 O   -1.355284    1.217590   -0.786711
 C   -3.301496    2.367507   -0.004522
 O   -3.969016    3.533834   -0.395840
 C   -3.730330    1.215616   -0.919478
 C   -2.445417    0.434046   -1.212782
 H    1.516994   -0.004598    1.883816
 H   -0.143307   -0.791940   -2.698515
 H    4.500291   -2.491031    0.124747
 H    3.968727    1.516158    0.232241
 H   -1.318139   -3.843927   -1.105285
 H   -1.512701   -2.279305    3.434372
 H   -3.046002   -3.105171    3.225074
 H   -3.009467   -1.332511    3.384252
 H   -2.869453   -0.055674    1.292937
 H   -1.420228    3.585841    1.591833
 H   -1.130424    1.823222    1.756285
 H   -1.528197    3.253600   -0.915191
 H   -3.521566    2.144078    1.051239
 H   -3.698894    4.274518    0.157632
 H   -4.495339    0.584903   -0.473737
 H   -4.127214    1.654633   -1.834130
 H   -2.330875    0.220215   -2.283352
