58 
2j4z_ligand_xtb.xyz
 C    5.869329   -0.420158   -0.790936
 O    7.002177   -0.867509   -0.703660
 N    4.792274   -1.072795   -0.348216
 N    2.863395   -3.871621    0.938045
 C    1.414483   -2.340980    0.360055
 N    1.571452   -3.585968    0.871615
 N    0.122296   -1.858643    0.229212
 C   -0.285798   -0.707137   -0.337954
 C   -1.760331   -0.500440   -0.318801
 O    0.455335    0.128525   -0.849490
 C   -2.637279   -1.118009    0.577064
 C   -3.985844   -0.837383    0.539769
 C   -3.636164    0.681241   -1.292936
 C   -2.286237    0.411888   -1.237272
 C    3.533007   -2.809131    0.467484
 C    2.665474   -1.795012    0.082694
 C    3.402676   -0.616129   -0.431173
 C    4.946877   -2.410806    0.243262
 N   -5.902573    0.319132   -0.355407
 C   -6.392657    1.570576   -0.887553
 C   -7.784853    1.808801   -0.247155
 N   -7.987330    0.745947    0.763073
 C   -8.104486   -0.560509    0.076425
 C   -6.791850   -0.766150   -0.721220
 C   -9.067201    1.017579    1.710623
 C   -4.497622    0.055089   -0.399463
 C    5.360688    3.538858    1.509265
 C    4.172356    3.569640    0.857685
 S    6.459269    2.418279    0.797904
 C    4.132971    2.679870   -0.240220
 C    5.290595    1.983519   -0.408630
 C    5.617549    0.957272   -1.432649
 H   -0.554048   -2.540219    0.542460
 H   -2.270009   -1.795803    1.332781
 H   -4.653494   -1.308929    1.249427
 H   -4.014989    1.377031   -2.027248
 H   -1.595945    0.899132   -1.908539
 H    3.125697   -0.366362   -1.461764
 H    3.247373    0.274240    0.189137
 H    5.535340   -2.345765    1.166041
 H    5.486124   -3.063219   -0.452483
 H   -6.484601    1.566944   -1.983573
 H   -5.695541    2.360218   -0.604652
 H   -8.588113    1.753919   -0.983172
 H   -7.829028    2.781647    0.243327
 H   -7.053992    0.680354    1.221491
 H   -8.981520   -0.549196   -0.571755
 H   -8.236351   -1.339152    0.829080
 H   -6.322195   -1.713729   -0.460997
 H   -6.998963   -0.778055   -1.801349
 H   -8.883503    1.955757    2.231165
 H  -10.015770    1.088088    1.179314
 H   -9.133410    0.216715    2.444939
 H    5.667297    4.101479    2.368776
 H    3.347968    4.199788    1.143031
 H    3.274044    2.561145   -0.877289
 H    4.805179    0.892540   -2.158290
 H    6.543346    1.223536   -1.949569
