25 
2j75_ligand_dft.xyz
 O    1.414600    1.605053   -0.802527
 C    0.206676    0.878095   -0.992823
 C    0.677237   -0.585756   -1.029924
 O   -0.385590   -1.422446   -1.439347
 C    1.203678   -1.030448    0.347112
 N    0.125144   -0.723353    1.394705
 C   -0.201791    0.737698    1.486507
 C   -0.788953    1.186680    0.146786
 C   -2.216282    0.634909   -0.043024
 O    2.372583   -0.436714    0.737363
 O   -2.333265   -0.749720    0.262267
 H    1.278091    2.546660   -0.966018
 H   -0.248988    1.112317   -1.962176
 H    1.519211   -0.642959   -1.726513
 H   -0.070508   -2.071300   -2.079434
 H    1.322567   -2.116423    0.377673
 H   -0.774721   -1.184931    1.146449
 H    0.457646   -1.072288    2.296996
 H    0.718482    1.265516    1.738350
 H   -0.918105    0.860112    2.301650
 H   -0.886836    2.278968    0.189054
 H   -2.572176    0.840708   -1.058905
 H   -2.881398    1.153932    0.651630
 H    2.443714    0.439837    0.316071
 H   -2.093008   -1.243131   -0.537612
