25 
2j79_ligand_dft.xyz
 C    0.523492    1.154633    0.138941
 N    0.998292    2.347893    0.139143
 C    1.532261    0.043955    0.304772
 N   -0.792041    0.804589    0.110044
 O   -0.034943    3.291600    0.004661
 O    2.843154    0.444474   -0.008204
 C    1.153936   -1.137447   -0.580888
 O    2.009903   -2.232954   -0.330983
 C   -0.266422   -1.595715   -0.263553
 O   -0.343285   -2.060088    1.066739
 C   -1.254330   -0.449861   -0.475444
 C   -2.627008   -0.770127    0.092753
 O   -3.475249    0.308138   -0.264467
 H    1.479714   -0.294285    1.349944
 H   -1.439815    1.574103   -0.002347
 H    0.439983    4.129330    0.029445
 H    2.836054    1.415421   -0.022886
 H    1.215597   -0.821761   -1.634222
 H    2.910276   -1.879254   -0.309968
 H   -0.538278   -2.401215   -0.963665
 H    0.435996   -2.622268    1.188739
 H   -1.367990   -0.326202   -1.564461
 H   -2.985754   -1.719498   -0.332215
 H   -2.540816   -0.882055    1.179223
 H   -4.256938    0.278328    0.296630
