29 
2j7f_ligand_dft.xyz
 C    0.242205   -0.745035    0.190573
 C   -0.941380   -1.610234    0.493752
 O   -0.688836   -2.956652    0.169425
 C   -2.120974   -1.108555   -0.324842
 C    1.381709    1.018149   -0.425132
 O   -3.326508   -1.748337    0.033295
 C   -2.330516    0.377630   -0.057278
 N    0.113227    0.544940   -0.243591
 O   -3.466696    0.857210   -0.736341
 C   -1.148032    1.221364   -0.551789
 C   -1.188284    2.624004    0.041694
 O   -1.004294    2.512684    1.433806
 N    1.489101   -1.120380    0.293611
 C    2.216855   -0.018910   -0.091117
 C    3.682315    0.052166   -0.143778
 O    4.296729    1.041751   -0.482551
 O    4.285393   -1.091237    0.219028
 H   -1.201712   -1.519587    1.560782
 H    0.261730   -3.100475    0.292980
 H   -1.901309   -1.264712   -1.392916
 H    1.601172    2.016939   -0.767374
 H   -3.197230   -2.697485   -0.091618
 H   -2.437518    0.520174    1.028369
 H   -4.170111    0.216698   -0.558882
 H   -1.241817    1.303907   -1.641117
 H   -2.164097    3.055295   -0.218700
 H   -0.407315    3.246750   -0.420245
 H   -1.125019    3.382598    1.829022
 H    5.237236   -0.918845    0.143777
