32 
2j7g_ligand_dft.xyz
 C   -3.258152   -0.924861   -0.303601
 C    0.291071   -0.932722   -0.292216
 C    1.625657   -1.585727   -0.468860
 C    2.625665   -0.868298    0.424260
 C    2.591902    0.626274    0.125690
 C    1.240913    1.250395    0.498610
 C    1.084751    2.633423   -0.120934
 O    1.576093   -2.951042   -0.121813
 O    3.951909   -1.291955    0.186866
 O    3.568899    1.311129    0.874582
 N    0.153617    0.357464    0.103933
 O    1.068435    2.489677   -1.522996
 N   -0.862586   -1.529052   -0.470700
 C   -1.809764   -0.574016   -0.174178
 C   -1.201054    0.598847    0.182322
 C   -4.236744    0.085893    0.238107
 O   -3.993951    1.191719    0.660242
 O   -5.494525   -0.395480    0.182989
 H   -3.517098   -1.089012   -1.358082
 H   -3.453690   -1.884277    0.188516
 H    1.962344   -1.477146   -1.512631
 H    2.347284   -1.040725    1.475967
 H    2.760390    0.766552   -0.952374
 H    1.224376    1.362240    1.589808
 H    1.933395    3.238883    0.225378
 H    0.159332    3.100646    0.247209
 H    0.661470   -3.236502   -0.269639
 H    3.977192   -2.246787    0.330759
 H    4.382957    0.797424    0.775267
 H    1.066543    3.368178   -1.917525
 H   -1.613498    1.547157    0.482418
 H   -6.068569    0.306846    0.528124
