24 
2j7h_ligand_xtb.xyz
 O   -0.344797    2.153549    0.153280
 C   -0.374561    1.055825   -0.684714
 C    1.097466    0.469750   -0.849353
 O    1.122095   -0.779571   -1.382200
 C    1.896571    0.544728    0.605510
 N    1.960574   -0.615116    1.336355
 C   -1.567786    0.173708   -0.258428
 C   -1.429603   -1.472458   -0.413853
 O   -0.532567   -1.945899    0.471077
 N   -2.057145    0.493503    0.980060
 H    0.011850    2.953173   -0.260291
 H   -0.599637    1.337961   -1.730610
 H    1.632952    1.205003   -1.461906
 H    1.742213   -0.887021   -2.120573
 H    2.900620    0.850638    0.296032
 H    1.366225    1.347854    1.132388
 H    1.278488   -0.837747    2.048399
 H    2.763568   -1.225630    1.272978
 H   -2.352369    0.301237   -1.028165
 H   -2.420115   -1.873917   -0.182469
 H   -1.164775   -1.635302   -1.462525
 H    0.354051   -2.032038    0.078196
 H   -2.957819    0.149072    1.287170
 H   -1.569635    1.144056    1.584235
