110 
2j9a_ligand_dft.xyz
 N    3.187806   -1.706653   -2.139043
 C    4.112512   -0.754029   -1.556116
 C    3.322412    0.228199   -0.660986
 O    2.085137    0.229902   -0.665072
 C    4.937172   -0.014164   -2.620012
 N    3.977989    1.131830    0.088577
 C    5.395895    1.114292    0.410721
 C    3.169815    2.192079    0.700767
 C    2.638698    3.170439   -0.359796
 C    2.301110    4.583128    0.150088
 C    3.558191    5.367565    0.537254
 C    1.510536    5.333860   -0.924654
 C    2.150724    1.563482    1.672426
 O    2.516282    0.721843    2.480775
 N    0.897200    2.089762    1.671340
 C   -0.095528    1.616096    2.600410
 C   -0.683958    0.279456    2.144445
 O   -0.726287   -0.038220    0.959463
 C   -1.218166    2.665498    2.786975
 C   -1.995065    2.937046    1.522431
 C   -1.599302    3.932336    0.629029
 C   -3.109026    2.159125    1.189025
 C   -2.265467    4.128685   -0.578008
 C   -3.791555    2.350770   -0.000638
 C   -3.360005    3.327919   -0.899485
 O   -4.053036    3.446945   -2.060486
 N   -1.173259   -0.489251    3.136880
 C   -1.852954   -1.743576    2.922593
 C   -3.128650   -1.727119    3.755298
 O   -3.914339   -2.770667    3.473946
 C   -0.973807   -2.959906    3.299729
 C    0.216925   -3.168825    2.391389
 C    0.255921   -4.266668    1.530408
 C    1.317167   -2.301423    2.398387
 C    1.356023   -4.505509    0.706399
 C    2.415651   -2.516934    1.576567
 C    2.442190   -3.632197    0.741872
 O    3.538212   -3.796747   -0.063056
 O   -3.386596   -0.885147    4.580189
 C   -6.319765    0.546266   -2.893786
 C   -5.706470   -0.843661   -3.061299
 C   -4.350097   -0.836623   -3.775503
 C   -3.228887   -0.099653   -3.031245
 C   -2.925961   -0.634104   -1.626057
 C   -2.587623   -2.129706   -1.558664
 C   -1.431771   -2.584918   -2.459535
 C   -0.142448   -1.789705   -2.283725
 N    0.266042   -1.754619   -0.850769
 C    1.036662   -2.357160   -3.089744
 O    1.345046   -3.635211   -2.556208
 C    2.201322   -1.354043   -3.004612
 O    2.127284   -0.311478   -3.629477
 H    3.086583   -2.588920   -1.649064
 H    4.780811   -1.348592   -0.924287
 H    4.288497    0.606942   -3.237703
 H    5.428234   -0.749039   -3.262723
 H    5.708102    0.611567   -2.165400
 H    5.874559    0.211943    0.033542
 H    5.904715    1.986601   -0.013931
 H    5.508308    1.124813    1.498520
 H    3.854307    2.735298    1.360258
 H    3.416168    3.264320   -1.128934
 H    1.778021    2.723103   -0.869940
 H    1.670359    4.498348    1.045190
 H    3.296422    6.372037    0.884382
 H    4.226810    5.476255   -0.325372
 H    4.122789    4.886130    1.343395
 H    0.594876    4.794409   -1.192704
 H    2.107316    5.447578   -1.837483
 H    1.230825    6.335542   -0.581814
 H    0.549027    2.502501    0.816747
 H    0.410552    1.462810    3.558298
 H   -0.745846    3.580752    3.157754
 H   -1.893183    2.310814    3.573908
 H   -0.765418    4.584339    0.881125
 H   -3.452127    1.392957    1.880919
 H   -1.940737    4.913784   -1.257043
 H   -4.665502    1.757974   -0.249100
 H   -3.695034    4.172403   -2.586793
 H   -1.211784   -0.117762    4.077317
 H   -2.129798   -1.802012    1.865694
 H   -4.692526   -2.717026    4.053632
 H   -0.636621   -2.823298    4.334380
 H   -1.605889   -3.852824    3.286474
 H   -0.578230   -4.962895    1.503389
 H    1.336407   -1.432987    3.047977
 H    1.362200   -5.364603    0.040909
 H    3.251382   -1.825359    1.599861
 H    3.534602   -4.689542   -0.431694
 H   -5.680885    1.213360   -2.305982
 H   -6.470834    1.023476   -3.868736
 H   -7.293193    0.488808   -2.396689
 H   -5.609187   -1.326264   -2.079244
 H   -6.396421   -1.472585   -3.636282
 H   -4.045818   -1.874764   -3.968248
 H   -4.473114   -0.372890   -4.762702
 H   -2.318643   -0.139713   -3.646079
 H   -3.476641    0.964686   -2.943784
 H   -2.117875   -0.036619   -1.185776
 H   -3.788374   -0.458038   -0.972927
 H   -3.469793   -2.720498   -1.829874
 H   -2.370980   -2.402057   -0.515191
 H   -1.221924   -3.646624   -2.285896
 H   -1.723745   -2.489810   -3.511697
 H   -0.277229   -0.747806   -2.584427
 H    0.483372   -2.695503   -0.504357
 H   -0.433160   -1.321692   -0.223530
 H    1.098798   -1.131907   -0.729999
 H    0.727404   -2.415776   -4.138648
 H    1.770475   -4.161313   -3.243189
