17 
2j9n_ligand_dft.xyz
 C   -0.213859   -0.035462   -0.021902
 C    0.464769    1.174311   -0.189141
 C    1.856252    1.209475   -0.168502
 C    2.580646    0.036935    0.019591
 C    1.908633   -1.174050    0.176561
 C    0.520560   -1.211239    0.152596
 C   -1.705478   -0.111049   -0.035801
 N   -2.353734    1.078465    0.275501
 N   -2.266873   -1.212724   -0.364004
 H   -0.091514    2.089204   -0.371623
 H    2.373307    2.154130   -0.308551
 H    3.666220    0.064473    0.038042
 H    2.469867   -2.092903    0.318199
 H   -0.019197   -2.145402    0.264493
 H   -3.348144    1.001923    0.439868
 H   -1.890508    1.675562    0.946395
 H   -3.284921   -1.140689   -0.307711
