37 
2jaj_ligand_xtb.xyz
 N   -0.157302    0.759818    1.578550
 C   -0.982519    0.831844    0.376259
 C   -1.122911    2.277587   -0.108985
 O   -0.473349    3.183214    0.335815
 C   -2.353029    0.154789    0.588261
 C   -2.770013   -0.826371   -0.515416
 C   -2.227103   -2.259005   -0.389284
 N   -0.823461   -2.400744   -0.750620
 C    0.208522   -2.020628    0.013643
 N    1.405462   -1.884536   -0.554472
 N    0.077300   -1.848440    1.334460
 C    2.633292   -1.542249    0.133275
 C    2.705677    2.098694   -0.443996
 O   -2.003596    2.400815   -1.095702
 O    2.232870    0.801898   -0.130018
 C    3.189382   -0.207337   -0.364774
 H    0.307769   -0.888185    1.689525
 H   -0.605090    1.258888    2.342129
 H    0.727873    1.225782    1.392630
 H   -0.426573    0.328800   -0.424837
 H   -3.117548    0.930079    0.646386
 H   -2.344940   -0.353168    1.553993
 H   -2.503188   -0.412759   -1.488570
 H   -3.856631   -0.912871   -0.489986
 H   -2.787262   -2.905435   -1.065907
 H   -2.392743   -2.634087    0.623451
 H   -0.644535   -2.590046   -1.725524
 H    1.481873   -1.985164   -1.556781
 H   -0.811076   -2.151250    1.708830
 H    3.376325   -2.323311   -0.049058
 H    2.426547   -1.488077    1.200658
 H    2.971326    2.173165   -1.503063
 H    3.581343    2.352149    0.160891
 H    1.895900    2.790395   -0.220690
 H   -2.070266    3.322910   -1.395172
 H    3.419169   -0.264323   -1.440172
 H    4.122543    0.012475    0.171169
