25 
2jbj_ligand_dft.xyz
 O   -4.319563   -0.367252   -0.704585
 C   -3.188708   -0.762070   -0.091678
 O   -2.646464   -1.812127   -0.343658
 C   -2.733186    0.246701    0.935859
 C   -1.337751   -0.037223    1.486747
 C   -0.215046    0.073411    0.438555
 C   -0.235220    1.470026   -0.157113
 O   -0.709775    1.483531   -1.414000
 O    0.076900    2.472260    0.439660
 C    1.149724   -0.188522    1.089196
 P    2.464379   -0.343105   -0.135504
 O    2.159572   -1.785084   -0.811637
 O    2.627167    0.733732   -1.138563
 O    3.744773   -0.593049    0.815282
 H   -4.550212   -1.071051   -1.332133
 H   -2.804854    1.246046    0.493221
 H   -3.469233    0.230600    1.748814
 H   -1.130058    0.668810    2.298228
 H   -1.313797   -1.047952    1.906070
 H   -0.401002   -0.659650   -0.350255
 H   -0.669285    2.406975   -1.712515
 H    1.407760    0.632548    1.765086
 H    1.122647   -1.116735    1.669671
 H    2.185662   -1.701631   -1.774643
 H    4.556921   -0.311417    0.371627
