79 
2jbl_ligand_xtb.xyz
 C   -1.464593    1.537799   -1.786036
 C   -1.770319    2.424759   -0.815998
 C   -3.123479    3.040680   -0.628500
 C   -0.767984    2.772610    0.196025
 C    0.619018    2.444823   -0.163881
 C    1.770756    2.916060    0.503116
 C    0.960372    5.032304    1.317020
 C    3.007183    2.329976    0.236273
 C    3.151681    1.334302   -0.712633
 C    5.488906    1.073515   -0.321494
 C    2.045267    0.927588   -1.463714
 C    0.798088    1.486304   -1.181459
 C   -2.424293    0.904441   -2.751543
 C   -3.260790   -0.191823   -2.068375
 C   -2.401684   -1.230412   -1.338866
 C   -3.195361   -2.018243   -0.276124
 C   -3.442852   -1.306114    1.082990
 C   -2.160819   -0.700481    1.683801
 C   -1.032887   -1.689347    1.694406
 C    0.181218   -1.467552    1.184610
 C    1.245301   -2.433727    1.205224
 C    2.449685   -2.204928    0.656679
 C    3.567210   -3.126037    0.609041
 C    4.690144   -2.737008   -0.012684
 C    5.962203   -3.491213   -0.201260
 C   -1.782275   -2.210277   -2.335582
 C   -5.021798   -3.543067   -0.268980
 C   -4.552084   -0.255698    1.051333
 C   -1.572289    0.601904    3.567773
 C    3.380890   -4.465522    1.260082
 O   -0.226411    1.023052   -1.931150
 O   -1.099842    3.220231    1.287936
 O    1.843183    3.931096    1.394061
 O    4.328619    0.708079   -1.032020
 O    2.156755   -0.000833   -2.454241
 O   -4.407936   -2.438129   -0.876927
 O   -2.489001   -0.308523    3.011859
 H   -3.903782    2.503806   -1.155363
 H   -3.350507    3.073148    0.435748
 H   -3.104853    4.070784   -0.987487
 H    0.025742    4.835157    1.846330
 H    0.735442    5.283983    0.276667
 H    1.487815    5.860609    1.790066
 H    3.849123    2.703451    0.794277
 H    5.378958    0.871604    0.747704
 H    6.288780    0.456477   -0.728065
 H    5.731733    2.128778   -0.473474
 H   -1.834393    0.470009   -3.558606
 H   -3.089102    1.657778   -3.174582
 H   -3.866830   -0.697776   -2.819850
 H   -3.940266    0.269545   -1.359456
 H   -1.587267   -0.729228   -0.817172
 H   -2.591447   -2.913063   -0.041484
 H   -3.754860   -2.088503    1.784780
 H   -1.867358    0.197901    1.118102
 H   -1.248911   -2.619425    2.203785
 H    0.402139   -0.520487    0.706113
 H    1.019843   -3.376860    1.682306
 H    2.618549   -1.241789    0.192911
 H    4.705612   -1.745404   -0.447505
 H    6.206880   -3.540663   -1.262923
 H    5.916294   -4.503417    0.187732
 H    6.779952   -2.967645    0.296709
 H   -1.207299   -1.676690   -3.086872
 H   -2.562973   -2.785906   -2.827193
 H   -1.108357   -2.894910   -1.824957
 H   -5.845982   -3.831243   -0.920186
 H   -4.322437   -4.383995   -0.176066
 H   -5.418701   -3.304682    0.723936
 H   -5.376015   -0.596538    0.428863
 H   -4.915155   -0.087111    2.061733
 H   -4.180647    0.691426    0.671986
 H   -1.508625    1.518686    2.970084
 H   -1.945767    0.841772    4.561413
 H   -0.569765    0.164868    3.649787
 H    4.273869   -5.077884    1.193555
 H    3.132295   -4.335777    2.312348
 H    2.561591   -4.999997    0.781117
 H    3.077262   -0.294273   -2.480409
