74 
2jbu_ligand_xtb.xyz
 N   -0.151916   -0.678307   -1.788617
 C   -1.028877   -1.596313   -2.555157
 C   -2.455351   -1.220876   -2.119029
 O   -3.135810   -0.468611   -2.790204
 C   -0.622960   -3.041260   -2.317386
 N   -2.827691   -1.686751   -0.920734
 C   -4.002334   -1.174150   -0.231539
 C   -3.596655    0.162095    0.428010
 O   -3.440987    0.265891    1.635687
 C   -4.493014   -2.180758    0.794769
 N   -3.420132    1.151839   -0.453293
 C   -2.837264    2.462664   -0.192525
 C   -1.346197    2.431184   -0.570449
 O   -0.976663    1.861799   -1.590986
 C   -3.154522    3.011988    1.192763
 N   -0.492610    3.118075    0.194857
 C    0.855290    3.423031   -0.246524
 C    1.800488    2.212624   -0.177672
 O    1.638346    1.265608    0.569650
 C    1.425448    4.547790    0.613845
 N    2.860314    2.329757   -0.995713
 C    3.929593    1.338083   -1.049532
 C    3.257244   -0.034968   -1.172021
 O    2.437371   -0.218742   -2.064228
 C    4.887460    1.513593    0.125969
 N    3.603908   -0.985790   -0.304703
 C    3.001512   -2.302716   -0.304353
 C    1.805294   -2.416547    0.659828
 O    1.027632   -3.345065    0.582619
 C    4.030500   -3.355052    0.100832
 N    1.767107   -1.477895    1.624657
 C    0.737889   -1.491467    2.639485
 C   -0.591290   -1.004476    2.070901
 O   -0.780928   -0.868853    0.874864
 C    1.173237   -0.656202    3.836614
 O   -1.493147   -0.784549    2.978461
 H   -0.221145   -0.870192   -0.767031
 H   -0.459392    0.314897   -1.905950
 H    0.857402   -0.712915   -2.061717
 H   -0.949334   -1.343097   -3.616879
 H    0.296615   -3.260080   -2.854543
 H   -0.449259   -3.248313   -1.263349
 H   -1.391710   -3.714650   -2.684734
 H   -2.186247   -2.231315   -0.363311
 H   -4.770599   -0.978736   -0.987305
 H   -3.712406   -2.398355    1.520413
 H   -4.787047   -3.104017    0.303797
 H   -5.349137   -1.777132    1.327446
 H   -3.527875    0.920647   -1.437794
 H   -3.284739    3.133946   -0.940649
 H   -2.617335    2.482163    1.973989
 H   -2.929358    4.075440    1.234164
 H   -4.217363    2.889722    1.385434
 H   -0.793187    3.502694    1.076216
 H    0.788309    3.733094   -1.297656
 H    2.416006    4.831229    0.269184
 H    0.782366    5.423072    0.562034
 H    1.501462    4.225577    1.650440
 H    2.922774    3.118502   -1.618039
 H    4.465875    1.499518   -1.990563
 H    4.370859    1.370870    1.072623
 H    5.726318    0.826684    0.050034
 H    5.287075    2.525225    0.111947
 H    4.293504   -0.801715    0.406829
 H    2.642745   -2.510656   -1.317865
 H    4.863586   -3.362072   -0.597386
 H    3.562484   -4.335200    0.097083
 H    4.405110   -3.156110    1.102859
 H    2.165528   -0.566604    1.436971
 H    0.578635   -2.537252    2.934711
 H    1.352147    0.370749    3.524773
 H    2.086644   -1.063074    4.261235
 H    0.397413   -0.663571    4.595516
 H   -2.349034   -0.434889    2.584022
