51 
2jfh_ligand_dft.xyz
 O   -3.861343   -1.850789    1.204101
 S   -3.209262   -1.729022   -0.093370
 O   -3.397494   -2.739482   -1.120166
 N   -3.608927   -0.273298   -0.842327
 C   -3.688934    0.895139    0.028971
 C   -5.103122    1.052199    0.565596
 O   -6.083310    0.602382    0.022180
 O   -5.146833    1.804128    1.672062
 C   -3.286645    2.167585   -0.741533
 C   -1.890215    2.079517   -1.347346
 C   -0.781881    2.069352   -0.322033
 O   -0.926284    2.077736    0.878558
 O    0.426859    2.047897   -0.908894
 C   -1.478978   -1.453652    0.211608
 C   -1.044959   -1.203384    1.533568
 C    0.262549   -0.870917    1.757515
 C    1.185861   -0.773549    0.681409
 C    2.519108   -0.350387    0.878346
 C    3.392823   -0.245694   -0.184279
 C    2.957404   -0.571683   -1.497032
 C    1.666536   -0.979909   -1.705954
 C    0.742576   -1.082471   -0.637824
 C   -0.613442   -1.421218   -0.850721
 O    4.643028    0.179673    0.103864
 C    5.606012    0.280086   -0.936211
 C    6.911462    0.741721   -0.313501
 C    7.483680   -0.246951    0.703189
 C    8.797938    0.239584    1.310187
 H   -4.481293   -0.417540   -1.353519
 H   -2.999053    0.778526    0.867783
 H   -6.081489    1.876767    1.925130
 H   -3.348858    3.016607   -0.053916
 H   -4.011791    2.335917   -1.546324
 H   -1.794366    1.169695   -1.949817
 H   -1.711423    2.920420   -2.026537
 H    1.083711    1.939672   -0.200264
 H   -1.762904   -1.260017    2.343972
 H    0.604112   -0.651172    2.764418
 H    2.875157   -0.108122    1.874933
 H    3.636265   -0.494623   -2.337831
 H    1.332721   -1.214078   -2.712922
 H   -0.970263   -1.629050   -1.855674
 H    5.263255    0.998063   -1.693764
 H    5.736305   -0.698780   -1.419593
 H    7.632962    0.902235   -1.125320
 H    6.748432    1.716207    0.163416
 H    6.744703   -0.411874    1.494548
 H    7.639010   -1.217814    0.213740
 H    8.662097    1.198807    1.822593
 H    9.186752   -0.477471    2.039996
 H    9.563016    0.380500    0.537796
