47 
2jg0_ligand_dft.xyz
 O    2.968061    2.770669    0.443850
 C    2.108763    1.744289   -0.010824
 C    2.952498    0.518137   -0.407401
 O    4.012068    0.966340   -1.219220
 C    3.475620   -0.236570    0.839805
 O    3.626686    0.616183    1.957671
 C    2.466441   -1.347900    1.074789
 O    2.984912   -2.268014    2.002777
 C    2.251570   -1.869197   -0.346943
 S    0.697774   -2.768996   -0.611109
 C    2.157729   -0.571309   -1.197048
 N    0.754719   -0.249976   -1.391056
 C   -0.040596   -1.224043   -1.153585
 N   -1.388994   -1.210416   -1.254145
 C   -2.336222   -0.134881   -1.574397
 C   -1.864824    1.317550   -1.360706
 O   -0.832265    1.768044   -2.189253
 O   -3.479801   -0.357243   -0.781621
 C   -3.286951   -0.183295    0.630829
 C   -4.615620   -0.549175    1.269554
 O   -4.984277   -1.872167    0.955882
 C   -2.831512    1.240589    0.934282
 O   -2.585312    1.330839    2.319172
 C   -1.583925    1.554592    0.123251
 O   -1.227409    2.895840    0.362834
 H    3.329169    2.453950    1.287079
 H    1.350557    1.487725    0.738518
 H    1.600715    2.131820   -0.895437
 H    4.217461    1.856905   -0.886704
 H    4.440145   -0.691707    0.571619
 H    3.858223    0.060768    2.713136
 H    1.530959   -0.899428    1.445608
 H    2.270272   -2.852263    2.284299
 H    3.091130   -2.501039   -0.645734
 H    2.639729   -0.682389   -2.173454
 H   -1.862917   -2.081265   -1.059878
 H   -2.672260   -0.251385   -2.608805
 H   -2.743310    1.916033   -1.629652
 H   -0.075437    1.150696   -2.050863
 H   -2.519841   -0.884617    0.986700
 H   -5.380963    0.173430    0.945624
 H   -4.518993   -0.481709    2.354725
 H   -5.028578   -1.913942   -0.007980
 H   -3.623153    1.944730    0.628910
 H   -2.167285    2.190465    2.464115
 H   -0.779922    0.882738    0.461974
 H   -0.659307    3.160508   -0.376031
