50 
2jh5_ligand_dft.xyz
Cl    5.326150   -1.724082   -0.701306
 C    3.605012   -1.663129   -0.685969
 C    2.804035   -1.016173   -1.580869
 C    1.425038   -1.171474   -1.268385
 C    1.204573   -1.941756   -0.155180
 C   -0.076379   -2.260582    0.460759
 S   -2.775501   -2.373654    0.563923
 O   -2.559968   -2.743519    1.950899
 O   -3.696503   -3.091433   -0.299301
 N   -3.297481   -0.786630    0.604754
 C   -3.746328   -0.118180   -0.621185
 C   -4.625702    1.077337   -0.257614
 C   -3.605147    2.180658    0.060702
 C   -2.538996    0.561026   -1.282580
 O   -1.687981    0.047436   -1.991840
 N   -2.492208    1.850336   -0.827158
 C   -1.185917    2.467161   -0.729747
 C   -1.285585    3.962186   -0.423280
 C   -0.379678    1.725381    0.367301
 O   -0.969366    1.075064    1.228640
 N    0.967635    1.861589    0.369650
 C    1.763629    1.240142    1.424150
 C    2.706573    2.280003    2.016072
 O    3.516983    2.865403    1.015717
 C    2.739338    3.495443    0.026997
 C    1.789577    2.505738   -0.645877
 S    2.705062   -2.482666    0.542086
 C   -1.208801   -2.303297   -0.243175
 H    3.188129   -0.455327   -2.424083
 H    0.614201   -0.697081   -1.812527
 H   -0.114784   -2.425811    1.535495
 H   -2.644538   -0.223189    1.155295
 H   -4.226952   -0.856197   -1.262963
 H   -5.230350    1.365031   -1.123648
 H   -5.287096    0.856467    0.581049
 H   -3.992893    3.179674   -0.157159
 H   -3.284059    2.149064    1.108150
 H   -0.707926    2.313389   -1.700241
 H   -1.903448    4.460655   -1.175419
 H   -0.296848    4.428336   -0.427339
 H   -1.726841    4.133395    0.563095
 H    2.346283    0.419591    0.989177
 H    1.084888    0.835907    2.174632
 H    3.386599    1.814771    2.733047
 H    2.123006    3.058739    2.533679
 H    3.436270    3.909713   -0.705903
 H    2.154078    4.321303    0.466823
 H    1.178452    3.019673   -1.387129
 H    2.375693    1.732913   -1.159665
 H   -1.271786   -2.154088   -1.314655
