61 
2jjk_ligand_xtb.xyz
 S   -6.983966   -0.793140   -1.596427
 S    6.985121   -0.820281    1.742525
 N    5.834024   -1.754689    0.898271
 N   -5.852124   -1.758431   -0.762232
 C   -4.987759   -1.106991    0.099404
 C    4.974826   -1.065342    0.059994
 C   -7.972392   -0.115153   -0.281532
 C    7.999103   -0.157582    0.439455
 O   -6.287296    0.231894   -2.305764
 O    6.307346    0.217151    2.452437
 O    7.715788   -1.792386    2.497684
 O   -7.740874   -1.745199   -2.351453
 C   -7.938046    1.242912   -0.050626
 C    7.988135    1.200905    0.208499
 O   -5.319379   -0.069545    0.627035
 O    5.338049   -0.043715   -0.476882
 N   -3.820883   -1.749413    0.347440
 N    3.773846   -1.656744   -0.155851
 C   -8.709797    1.749375    0.984412
 C    8.786245    1.696550   -0.811724
Cl   -8.694965    3.436919    1.308459
Cl    8.801977    3.384283   -1.134705
 C   -8.747809   -0.974368    0.468845
 C    8.775265   -1.027832   -0.297342
 C   -9.512188   -0.452494    1.500651
 C    9.566625   -0.516526   -1.314008
 C   -9.494681    0.907474    1.761858
 C    9.574175    0.843762   -1.574220
 C    2.735804   -0.966293   -0.895436
 C   -2.790433   -1.120475    1.148657
 C    1.871843   -0.090157    0.014459
 C   -1.882982   -0.192560    0.336810
 C    0.878337    0.771979   -0.764423
 C   -1.058685   -0.937333   -0.711415
 C   -0.179643   -0.006799   -1.550176
 H    5.532310   -2.587956    1.376599
 H   -5.577356   -2.603037   -1.236275
 H   -7.305365    1.866966   -0.659753
 H    7.354167    1.834001    0.806774
 H   -3.547570   -2.518255   -0.242050
 H    3.480539   -2.397959    0.460412
 H   -8.746462   -2.026421    0.234795
 H    8.754396   -2.079668   -0.063610
 H  -10.123286   -1.104302    2.105789
 H   10.180168   -1.176693   -1.907449
 H  -10.084722    1.319323    2.565780
 H   10.186470    1.247557   -2.365396
 H    2.133175   -1.717002   -1.410815
 H    3.242259   -0.339704   -1.631941
 H   -2.205421   -1.909463    1.628167
 H   -3.307010   -0.537968    1.914047
 H    2.540386    0.569087    0.572102
 H    1.344467   -0.716204    0.737352
 H   -1.220241    0.318248    1.035236
 H   -2.506301    0.557922   -0.151717
 H    1.437261    1.390530   -1.469283
 H    0.382673    1.446823   -0.065557
 H   -1.734558   -1.457765   -1.394906
 H   -0.441246   -1.693254   -0.220844
 H    0.310970   -0.595739   -2.327606
 H   -0.826169    0.716286   -2.051930
