61 
2jjk_ligand_dft.xyz
 S   -6.989813    1.360011   -1.293370
 S    7.060069   -2.022407   -0.100523
 N    5.645759   -1.519432   -0.866775
 N   -5.664642    0.384493   -1.656113
 C   -4.824368   -0.195013   -0.693452
 C    4.817730   -0.488668   -0.396975
 C   -8.145586    0.298209   -0.450642
 C    8.170340   -0.631617   -0.187381
 O   -6.565525    2.395144   -0.379516
 O    6.763314   -2.288043    1.287931
 O    7.551422   -3.050364   -1.002352
 O   -7.525041    1.656662   -2.611359
 C   -8.042824    0.147058    0.928518
 C    8.119054    0.337759    0.809324
 O   -5.072740   -0.164237    0.495612
 O    5.125140    0.224045    0.537759
 N   -3.735871   -0.814716   -1.239981
 N    3.666749   -0.359380   -1.124385
 C   -8.962687   -0.681710    1.557148
 C    9.001948    1.405483    0.716981
Cl   -8.869873   -0.902047    3.285043
Cl    8.971075    2.645644    1.943293
 C   -9.132810   -0.336659   -1.197304
 C    9.072747   -0.565434   -1.243980
 C  -10.040323   -1.159277   -0.539006
 C    9.945203    0.515499   -1.308206
 C   -9.958583   -1.337403    0.838295
 C    9.912693    1.505492   -0.331419
 C    2.653594    0.593870   -0.689271
 C   -2.713549   -1.372572   -0.362288
 C    1.823028    0.102073    0.496816
 C   -1.821313   -0.325926    0.308060
 C    0.830937    1.149676    1.011722
 C   -1.028788    0.529563   -0.680359
 C   -0.202592    1.635739   -0.014333
 H    5.560149   -1.868893   -1.812555
 H   -5.641567    0.087527   -2.623095
 H   -7.261245    0.650437    1.483266
 H    7.401934    0.262800    1.616903
 H   -3.441184   -0.518946   -2.158670
 H    3.336001   -1.177774   -1.615211
 H   -9.195017   -0.170535   -2.266889
 H    9.098691   -1.356146   -1.985303
 H  -10.822418   -1.660745   -1.099418
 H   10.661537    0.586044   -2.120070
 H  -10.664830   -1.976413    1.356977
 H   10.591902    2.349791   -0.375765
 H    2.021640    0.809804   -1.556666
 H    3.173024    1.518058   -0.422412
 H   -2.113839   -2.060623   -0.968296
 H   -3.228500   -1.963717    0.398308
 H    2.511817   -0.166011    1.304672
 H    1.293966   -0.818106    0.211976
 H   -1.136608   -0.858310    0.980045
 H   -2.449245    0.314376    0.938237
 H    1.392931    2.018258    1.377856
 H    0.313509    0.738294    1.886377
 H   -1.722529    1.006076   -1.385544
 H   -0.375244   -0.119308   -1.282906
 H    0.298261    2.221129   -0.796034
 H   -0.887301    2.330887    0.487467
