119 
2jk9_ligand_dft.xyz
 N    0.558489   -1.153336   -0.631557
 C    1.597486   -2.137892   -0.246938
 C    2.927880   -1.388492   -0.296000
 O    3.213838   -0.765671   -1.321072
 C    1.625755   -3.329978   -1.200679
 C    2.774599   -4.236638   -0.762385
 O    2.996622   -4.432873    0.423704
 N    3.532689   -4.764967   -1.751115
 N    3.692568   -1.480214    0.797401
 C    4.916205   -0.712638    1.049068
 C    4.493965    0.741564    1.335035
 O    4.502759    1.198132    2.463558
 C    5.995304   -0.895587   -0.033267
 C    6.082692   -2.315000   -0.597508
 C    6.173028   -3.408408    0.438194
 O    6.146183   -4.636190   -0.127832
 O    6.269836   -3.259898    1.631793
 N    4.049094    1.440653    0.248928
 C    3.184804    2.575325    0.445561
 C    1.819332    2.110358    0.980686
 O    1.448847    0.932697    0.907584
 C    2.952087    3.327960   -0.878290
 C    4.193318    3.958499   -1.539098
 C    4.980228    4.835538   -0.562870
 C    5.111216    2.945730   -2.233308
 N    1.022340    3.077935    1.455281
 C   -0.369000    2.857637    1.792240
 C   -1.308562    3.058478    0.589299
 O   -2.431073    3.540184    0.742341
 C   -0.801765    3.763231    2.945120
 C   -0.684589    5.237969    2.576407
 O    0.170725    5.641971    1.793086
 N   -1.535031    6.074172    3.207042
 N   -0.843970    2.657316   -0.609967
 C   -1.596777    2.850281   -1.838795
 C   -2.623562    1.727220   -2.075553
 O   -2.598367    1.034684   -3.084849
 C   -0.653334    2.950872   -3.037133
 C    0.107036    1.660452   -3.289274
 O    0.607925    1.024228   -2.356734
 N    0.293816    1.306818   -4.572816
 N   -3.551794    1.595877   -1.097575
 C   -4.324177    0.384669   -0.981347
 C   -3.374856   -0.816830   -0.755309
 O   -2.167216   -0.655890   -0.611718
 C   -5.294134    0.208732   -2.174501
 C   -6.634433   -0.367795   -1.763419
 O   -6.742307   -1.182978   -0.842413
 N   -7.703112    0.031757   -2.473120
 N   -3.978104   -2.020456   -0.672451
 C   -3.257868   -3.257835   -0.386350
 C   -2.229879   -3.045635    0.745545
 O   -1.022235   -3.135238    0.525148
 C   -2.586564   -3.822737   -1.633418
 N   -2.684654   -2.729920    1.976570
 C   -4.041326   -2.911423    2.496660
 C   -4.998549   -1.836963    1.990869
 O   -4.782159   -0.647072    2.034655
 C   -3.845346   -2.807432    4.023326
 C   -2.629183   -1.888465    4.166098
 C   -1.728531   -2.333693    3.017564
 O   -6.105378   -2.391619    1.498174
 H    0.737386   -0.714110   -1.548448
 H    0.590695   -0.355370    0.026440
 H   -0.392941   -1.552735   -0.590149
 H    1.346554   -2.489324    0.752451
 H    0.678326   -3.871156   -1.116177
 H    1.753402   -2.981602   -2.231191
 H    3.410949   -4.501815   -2.715503
 H    4.401691   -5.208453   -1.480794
 H    3.383543   -2.098666    1.533385
 H    5.305146   -1.095666    1.989725
 H    6.949979   -0.609288    0.418786
 H    5.821349   -0.220537   -0.875052
 H    5.221645   -2.528386   -1.239551
 H    6.962839   -2.400936   -1.245714
 H    6.169604   -5.269884    0.608352
 H    3.868799    0.895140   -0.589744
 H    3.637900    3.236487    1.189761
 H    2.467989    2.635986   -1.581932
 H    2.228650    4.128750   -0.681183
 H    3.790420    4.614285   -2.323515
 H    5.476062    4.228099    0.203189
 H    5.759329    5.395326   -1.089953
 H    4.330902    5.560189   -0.057802
 H    5.664364    2.346755   -1.504267
 H    4.541525    2.262888   -2.875035
 H    5.841519    3.466532   -2.861678
 H    1.291083    4.058854    1.426139
 H   -0.466068    1.810674    2.099132
 H   -0.149703    3.573889    3.805082
 H   -1.824944    3.513146    3.232885
 H   -1.493086    7.056612    2.978844
 H   -2.324657    5.738717    3.734184
 H   -0.027160    2.060936   -0.688924
 H   -2.142933    3.793574   -1.729601
 H    0.085844    3.735715   -2.839324
 H   -1.224754    3.245710   -3.920081
 H   -0.269327    1.699894   -5.310028
 H    0.779476    0.442197   -4.761661
 H   -3.448904    2.189405   -0.277943
 H   -4.907864    0.467370   -0.058915
 H   -4.854269   -0.441828   -2.937712
 H   -5.430239    1.184696   -2.646664
 H   -7.637011    0.702590   -3.221941
 H   -8.606275   -0.366523   -2.259344
 H   -4.994420   -2.042010   -0.729445
 H   -4.016311   -3.965798   -0.034172
 H   -2.057801   -4.750955   -1.402583
 H   -1.869585   -3.103357   -2.036248
 H   -3.343263   -4.026051   -2.395656
 H   -4.439793   -3.888516    2.212940
 H   -3.624856   -3.803428    4.419737
 H   -4.737299   -2.431304    4.529309
 H   -2.931377   -0.847227    4.024273
 H   -2.141191   -1.984860    5.138158
 H   -1.080662   -1.541027    2.635048
 H   -1.096952   -3.187102    3.290082
 H   -6.622610   -1.712523    1.021135
