58 
2jkk_ligand_xtb.xyz
 C    6.087420   -0.679784   -0.253681
 C    6.814269   -1.932374   -0.757459
 O    6.884209   -2.933567    0.228901
 C    5.591199   -3.294692    0.655992
 C    4.840632   -2.083891    1.212154
 N    4.762687   -1.064475    0.182753
 C    3.745359   -0.112667    0.251840
 C    3.999010    1.255702    0.109659
 C    2.966100    2.175260    0.092244
 O    3.137637    3.531217   -0.045308
 C    4.441629    4.036632   -0.177174
 C    2.422006   -0.522903    0.405122
 C    1.388959    0.393071    0.412654
 C    1.632743    1.746922    0.236348
 N    0.644150    2.724340    0.225860
 C   -0.698904    2.622642    0.121743
 N   -1.270983    1.434218   -0.075911
 N   -1.349216    3.790111    0.218763
 C   -2.667933    3.743835    0.148366
 C   -3.356854    2.561869   -0.029155
Cl   -5.087836    2.522354   -0.104934
 C   -2.595313    1.378537   -0.164004
 N   -3.228139    0.195057   -0.355364
 C   -2.700128   -1.046475   -0.636067
 C   -1.424575   -1.200113   -1.183260
 C   -0.936993   -2.450935   -1.495896
 C   -1.717280   -3.579228   -1.291286
 C   -2.982038   -3.442920   -0.754529
 C   -3.488772   -2.193834   -0.400944
 C   -4.850267   -2.059663    0.181449
 O   -5.545302   -1.060787    0.033715
 N   -5.278709   -3.114852    0.907677
 C   -6.577048   -3.149438    1.532656
 H    6.008815    0.028392   -1.079187
 H    6.674282   -0.228688    0.564066
 H    7.844963   -1.694991   -1.026524
 H    6.285081   -2.318241   -1.642400
 H    5.724049   -4.056510    1.425857
 H    5.024089   -3.718231   -0.187025
 H    5.390205   -1.701821    2.089207
 H    3.842296   -2.378223    1.528999
 H    5.015424    1.600717    0.024227
 H    5.050951    3.817647    0.705874
 H    4.938691    3.642660   -1.069683
 H    4.329505    5.115342   -0.276669
 H    2.187084   -1.570526    0.506912
 H    0.373765    0.063693    0.545957
 H    0.984300    3.675961    0.270512
 H   -3.185666    4.689218    0.235646
 H   -4.245613    0.195904   -0.231130
 H   -0.834463   -0.320335   -1.372501
 H    0.050761   -2.544613   -1.921748
 H   -1.347179   -4.557085   -1.559616
 H   -3.597956   -4.324174   -0.641601
 H   -4.660455   -3.892404    1.069674
 H   -6.483128   -3.231222    2.617225
 H   -7.085056   -2.219127    1.283327
 H   -7.161749   -3.992360    1.158921
