29 
2jkp_ligand_xtb.xyz
 C   -0.532564   -1.744630   -0.119021
 C   -1.733523   -0.930997    0.388278
 C   -1.743635    0.477643   -0.258814
 C   -0.400677    1.201725   -0.018468
 C    0.756196    0.323475   -0.489920
 C    2.161392    0.756093   -0.050500
 O   -2.870326   -1.671385    0.039920
 O   -2.730379    1.295225    0.316764
 O   -0.325924    2.383848   -0.757421
 O    2.101381    0.942847    1.345858
 N    0.714800   -1.021195    0.132594
 C    2.990598   -0.502932   -0.392844
 C    1.979752   -1.662226   -0.310276
 H   -0.521638   -2.716666    0.377918
 H   -0.652880   -1.908416   -1.192621
 H   -1.665466   -0.803671    1.480255
 H   -1.903867    0.371002   -1.341176
 H   -0.307478    1.407267    1.059547
 H    0.707873    0.230450   -1.577788
 H    2.496746    1.652191   -0.573189
 H   -3.638273   -1.369022    0.537882
 H   -3.597616    1.091184   -0.050472
 H   -1.077237    2.943413   -0.520488
 H    2.774081    1.565589    1.637250
 H    0.807011   -0.828115    1.140604
 H    3.422112   -0.423670   -1.387444
 H    3.800916   -0.621211    0.323957
 H    2.277439   -2.438295    0.393177
 H    1.811420   -2.116843   -1.287153
