161 
2jkt_ligand_xtb.xyz
 N   10.296733    2.412666   -1.045430
 C   10.656248    1.011243   -1.367816
 C    9.362161    0.397635   -1.939621
 O    8.441013    1.143022   -2.220338
 C   11.144544    0.325574   -0.091727
 C   12.523453    0.803776    0.349451
 S   12.511241    2.546361    0.956641
 C   14.226142    3.011168    0.606966
 N    9.325484   -0.928015   -2.137251
 C    8.011933   -1.543244   -2.137755
 C    8.166188   -3.065073   -2.195236
 O    9.101843   -3.437763   -1.210034
 C    7.320971   -1.066998   -0.839255
 O    7.969569   -0.624187    0.091110
 N    5.986722   -1.094343   -0.853435
 C    5.214746   -0.620814    0.272800
 C    3.924630   -1.442869    0.315407
 O    3.569497   -2.106977   -0.643496
 C    4.887401    0.879797    0.136323
 C    6.120806    1.745874   -0.127035
 C    7.197140    1.670589    0.922300
 O    8.323309    2.099460    0.759453
 O    6.800117    1.187592    2.083971
 N    3.241387   -1.372370    1.462835
 C    2.052086   -2.174265    1.698502
 C    0.847805   -1.407498    1.119351
 O    0.110368   -0.707327    1.801203
 C    1.863497   -2.511832    3.182487
 C    3.054282   -3.275088    3.781427
 C    0.605119   -3.371005    3.329280
 C    4.291892   -2.441556    4.105810
 N    0.719746   -1.550677   -0.202112
 C   -0.400607   -1.006547   -0.944276
 C   -1.436081   -2.141549   -1.130913
 O   -1.408168   -2.912220   -2.061651
 C    0.014669   -0.446417   -2.302440
 C   -1.147679    0.308332   -2.955124
 C   -1.381197    1.692017   -2.339463
 C   -2.741564    2.277029   -2.706778
 N   -3.809877    1.594884   -1.962699
 N   -2.302092   -2.216223   -0.097915
 C   -3.547661   -2.935917   -0.212244
 C   -4.507688   -2.066155   -1.051347
 O   -4.084438   -1.094949   -1.660336
 C   -4.078680   -3.387651    1.160231
 C   -3.715559   -2.498923    2.356856
 C   -4.100002   -1.017316    2.228095
 N   -2.926518   -0.213988    1.934856
 C   -2.924768    0.973550    1.267923
 N   -1.697994    1.565223    1.164024
 N   -3.914635    1.509349    0.642291
 N   -5.771031   -2.491063   -1.135881
 C   -6.802125   -1.761190   -1.846689
 C   -7.117110   -0.455520   -1.090528
 O   -6.420348   -0.070869   -0.168814
 C   -8.004220   -2.671072   -2.131548
 C   -9.039937   -2.819749   -1.005143
 C  -10.109654   -3.816465   -1.448947
 C   -8.424631   -3.268641    0.318914
 N   -8.162740    0.229627   -1.574741
 C   -8.533186    1.567040   -1.127892
 C   -7.234909    2.372688   -0.989087
 O   -6.437746    2.335283   -1.928321
 C   -9.560326    1.559297    0.020975
 C   -9.331080    0.611758    1.209134
 C   -8.220565    1.054287    2.157728
 C  -10.643868    0.486575    1.983215
 N   -7.087545    3.143959    0.077405
 C   -5.923779    3.935081    0.436477
 C   -6.225687    4.527843    1.802971
 O   -7.266352    4.348922    2.379219
 C   -5.587875    5.054134   -0.581533
 O   -4.871109    4.574069   -1.678682
 O   -5.224287    5.247554    2.283860
 H   11.086160    2.863070   -0.517727
 H    9.453234    2.373641   -0.401188
 H   10.010295    2.922008   -1.885010
 H   11.437873    0.998204   -2.135954
 H   11.206604   -0.751372   -0.249746
 H   10.409794    0.493649    0.697163
 H   12.885834    0.183775    1.168512
 H   13.235795    0.756355   -0.474239
 H   14.421204    2.939398   -0.458942
 H   14.342099    4.037284    0.940366
 H   14.892553    2.363411    1.168648
 H   10.041777   -1.525174   -1.746944
 H    7.438896   -1.186050   -2.998578
 H    8.523143   -3.350956   -3.194195
 H    7.189797   -3.534171   -2.021222
 H    9.171603   -4.397428   -1.178166
 H    5.446492   -1.532332   -1.589558
 H    5.804488   -0.783556    1.181210
 H    4.196148    1.014321   -0.697959
 H    4.395040    1.213016    1.050372
 H    5.813956    2.794746   -0.179272
 H    6.581313    1.505517   -1.088203
 H    7.532846    1.163922    2.721533
 H    3.540476   -0.762825    2.206945
 H    2.174511   -3.099832    1.123471
 H    1.713839   -1.575259    3.730328
 H    3.331214   -4.090062    3.109917
 H    2.706634   -3.727438    4.711517
 H   -0.259235   -2.867458    2.907010
 H    0.405821   -3.567734    4.378966
 H    0.734762   -4.322911    2.819425
 H    4.870367   -2.204002    3.216565
 H    4.939778   -3.004754    4.772990
 H    4.016081   -1.518763    4.612761
 H    1.386409   -2.118298   -0.711542
 H   -0.832138   -0.219577   -0.320432
 H    0.876577    0.212538   -2.183087
 H    0.299652   -1.284692   -2.939937
 H   -0.940886    0.424178   -4.019479
 H   -2.040476   -0.310412   -2.861230
 H   -1.314386    1.637854   -1.253075
 H   -0.601629    2.371340   -2.685500
 H   -2.786747    3.338319   -2.455547
 H   -2.917336    2.167120   -3.778806
 H   -4.753896    1.942260   -2.195387
 H   -3.739149    1.707663   -0.874926
 H   -3.806768    0.575109   -2.114272
 H   -2.314888   -1.444679    0.559285
 H   -3.346517   -3.816805   -0.837149
 H   -5.164730   -3.473707    1.121827
 H   -3.683421   -4.382708    1.370970
 H   -4.223790   -2.921924    3.224246
 H   -2.644092   -2.574110    2.552084
 H   -4.560016   -0.671589    3.162450
 H   -4.830470   -0.881175    1.426572
 H   -2.110407   -0.405706    2.502118
 H   -0.946034    1.193515    1.724909
 H   -1.688786    2.552345    0.973048
 H   -4.782047    0.989675    0.703567
 H   -6.063808   -3.313694   -0.634770
 H   -6.357929   -1.435849   -2.799593
 H   -7.611775   -3.659484   -2.383703
 H   -8.519222   -2.308259   -3.023462
 H   -9.526600   -1.852991   -0.840515
 H   -9.676218   -4.802646   -1.597731
 H  -10.571109   -3.501885   -2.381672
 H  -10.887864   -3.897130   -0.695168
 H   -9.209840   -3.392547    1.060988
 H   -7.723217   -2.529787    0.702132
 H   -7.924680   -4.229881    0.207160
 H   -8.678028   -0.154929   -2.349233
 H   -9.029369    2.041466   -1.986265
 H   -9.697034    2.580274    0.382795
 H  -10.510075    1.265221   -0.434648
 H   -9.069535   -0.376476    0.819557
 H   -8.412285    2.049348    2.553415
 H   -8.174400    0.368577    3.001004
 H   -7.255309    1.034245    1.660683
 H  -10.524712   -0.192496    2.823086
 H  -10.948259    1.455765    2.370689
 H  -11.440421    0.104670    1.348944
 H   -7.791337    3.132815    0.809642
 H   -5.036537    3.285053    0.525276
 H   -4.944120    5.789121   -0.094224
 H   -6.520013    5.544200   -0.893580
 H   -5.430232    3.909989   -2.118179
 H   -5.452436    5.631042    3.147491
