39 
2jsd_ligand_dft.xyz
 C    2.170352   -1.252917    0.450649
 C    3.409806   -0.938281   -0.100510
 C    3.739623    0.398889   -0.334120
 C    2.825554    1.416373   -0.016006
 C    1.599306    1.101808    0.531796
 C    1.275656   -0.239450    0.760893
 O    4.907137    0.816121   -0.864231
 C    5.876197   -0.154535   -1.204668
 S   -0.280801   -0.648022    1.499016
 O   -0.464551    0.107046    2.730213
 O   -0.401987   -2.100456    1.502367
 N   -1.357569    0.025734    0.394819
 C   -1.500620   -0.681854   -0.882705
 C   -2.515029    0.722303    0.922268
 C   -2.769202    1.921790    0.047054
 N   -1.486362    2.613949   -0.328274
 O   -1.357134    2.732948   -1.518373
 O   -3.821718    2.390886   -0.276034
 C   -2.563796   -1.803768   -0.911017
 C   -2.011072   -3.033806   -1.634497
 C   -3.868268   -1.329079   -1.560571
 H    1.896908   -2.285557    0.639001
 H    4.099987   -1.738294   -0.339347
 H    3.106226    2.445132   -0.212406
 H    0.887272    1.885649    0.770126
 H    6.196363   -0.724852   -0.324215
 H    5.499264   -0.843717   -1.970242
 H    6.725312    0.399693   -1.604471
 H   -0.512214   -1.080934   -1.129766
 H   -1.717722    0.074623   -1.649610
 H   -2.274798    1.076683    1.930811
 H   -3.420859    0.109035    0.980487
 H   -2.761627   -2.094010    0.127797
 H   -1.724559   -2.787169   -2.664795
 H   -1.130339   -3.422335   -1.113152
 H   -2.760477   -3.830792   -1.679889
 H   -4.271184   -0.426646   -1.087666
 H   -3.705321   -1.096231   -2.620169
 H   -4.636924   -2.106910   -1.505498
