40 
2jt5_ligand_dft.xyz
 C    3.115753    1.664501    0.099848
 C    3.699935    0.271773    0.147484
 C    2.390661   -1.299141    1.615101
 N    4.223024    2.708482   -0.131559
 O    3.769078    3.712146   -0.600797
 O    1.980727    1.999039    0.264002
 N    2.744150   -0.793183    0.296056
 S    1.977395   -1.401330   -1.055893
 C    1.491005   -0.361516    2.415762
 O    1.225490   -1.029007    3.631088
 O    2.039501   -2.851501   -0.996449
 C    0.267138   -0.952499   -0.861347
 O    2.537518   -0.655403   -2.173233
 C   -0.606398   -1.850466   -0.255067
 C   -1.923215   -1.468727   -0.034625
 C   -2.379716   -0.203894   -0.423333
 C   -1.483892    0.670475   -1.051725
 C   -0.163537    0.305751   -1.270547
 C   -3.786393    0.201568   -0.179298
 C   -4.088552    1.495303    0.259404
 C   -5.405642    1.875973    0.491242
 C   -6.442161    0.969463    0.286494
 C   -6.153173   -0.320032   -0.151329
 C   -4.835930   -0.701091   -0.381624
 H    4.408075    0.233411    0.986265
 H    4.300644    0.133771   -0.758395
 H    3.309450   -1.496375    2.179955
 H    1.890371   -2.263007    1.494105
 H    0.575920   -0.151443    1.845460
 H    2.001281    0.598774    2.585175
 H    0.630007   -0.480548    4.152830
 H   -0.255833   -2.834688    0.036442
 H   -2.601753   -2.155131    0.462610
 H   -1.831844    1.640755   -1.392168
 H    0.523252    0.983784   -1.763117
 H   -3.282853    2.201086    0.442054
 H   -5.621859    2.881796    0.838671
 H   -7.470761    1.266919    0.466447
 H   -6.956395   -1.030515   -0.322002
 H   -4.620056   -1.701231   -0.747045
