34 
2k0g_ligand_dft.xyz
 P    3.569779    0.897918   -0.102625
 O    3.295778    2.331783   -0.276984
 O    5.034553    0.414170   -0.504967
 O    3.435471    0.318558    1.392588
 C    2.144968   -0.003961    1.947833
 C    1.510221   -0.966192    0.963424
 O    0.188345   -1.349234    1.267380
 C    1.371414   -0.290065   -0.391786
 O    2.654482   -0.108215   -0.990584
 C    0.473629   -1.274975   -1.123158
 O    1.196055   -2.391103   -1.584335
 C   -0.422949   -1.767229    0.048833
 N   -1.778773   -1.290801    0.020645
 C   -2.910400   -2.048680    0.248673
 N   -4.017061   -1.363732    0.266476
 C   -3.598352   -0.063231    0.051567
 C   -4.294867    1.157204   -0.038447
 N   -5.636779    1.226620    0.068258
 N   -3.601026    2.284825   -0.249604
 C   -2.271607    2.198056   -0.374028
 N   -1.498605    1.115967   -0.312828
 C   -2.219425    0.010999   -0.093821
 H    5.568174    1.176362   -0.767812
 H    2.338762   -0.450339    2.923185
 H    1.541613    0.901712    2.069845
 H    2.162472   -1.845189    0.860085
 H    0.843820    0.665307   -0.295707
 H   -0.117962   -0.810125   -1.919531
 H    2.002829   -2.057538   -2.001815
 H   -0.464658   -2.860591    0.001782
 H   -2.834106   -3.119418    0.389564
 H   -6.163417    0.408075    0.325670
 H   -6.074265    2.133466    0.090513
 H   -1.757482    3.140107   -0.546355
