41 
2k2g_ligand_dft.xyz
 C   -0.338417   -1.199177    0.307798
 C    0.505380   -1.169965   -0.793705
 C    1.798987   -0.700573   -0.599606
 C    2.243015   -0.269428    0.666286
 C    1.370123   -0.327692    1.755779
 C    0.077475   -0.795443    1.578929
 S    3.041752   -0.566001   -1.832749
 C    4.179000    0.076893   -0.655950
 C    3.624112    0.183525    0.630439
 C    5.496726    0.453958   -0.911929
 C    6.258851    0.942987    0.139073
 C    5.719179    1.057578    1.426495
 C    4.409713    0.680948    1.675373
 S   -2.029500   -1.702331    0.066882
 O   -2.609768   -1.900055    1.388596
 O   -2.095560   -2.738291   -0.948831
 N   -2.661009   -0.333409   -0.668622
 C   -3.056345    0.768900    0.202981
 C   -2.617157    2.135287   -0.377213
 C   -1.091434    2.219218   -0.432555
 C   -3.235672    2.389217   -1.753166
 C   -4.560753    0.723115    0.420581
 O   -5.329895    0.085405   -0.257739
 O   -4.947979    1.517433    1.427930
 H    0.152133   -1.501714   -1.764556
 H    1.702423   -0.013189    2.740367
 H   -0.614819   -0.862973    2.410862
 H    5.918754    0.364701   -1.907798
 H    7.287726    1.238709   -0.040922
 H    6.333077    1.442649    2.234414
 H    3.994061    0.771008    2.674770
 H   -3.426437   -0.630414   -1.274772
 H   -2.581374    0.644626    1.181076
 H   -2.985525    2.895008    0.323401
 H   -0.639634    2.040236    0.549583
 H   -0.689565    1.475236   -1.127553
 H   -0.777954    3.210551   -0.775623
 H   -2.889250    1.639702   -2.473189
 H   -4.330316    2.356695   -1.727746
 H   -2.938214    3.373838   -2.127209
 H   -5.915136    1.450482    1.481828
