45 
2k46_ligand_dft.xyz
 O   -0.733146   -2.724650    0.313653
 C   -0.970149   -0.427691    0.962355
 O   -0.181075   -0.044311   -0.124591
 C   -1.689781   -1.735553    0.628192
 C   -2.644557   -1.508901   -0.526890
 O   -3.291122   -2.740051   -0.776851
 C   -3.627119   -0.403048   -0.177458
 O   -4.417244   -0.194784   -1.324285
 C   -2.851636    0.856721    0.240587
 O   -1.912288    0.571237    1.272553
 C   -3.755868    1.928728    0.833571
 O   -4.747011    2.247647   -0.131823
 C    2.993112    1.845997   -0.627221
 O    3.215728    2.422142    0.629472
 C    1.509248    1.478070   -0.778437
 O    0.751675    2.624349   -0.437708
 C    1.168808    0.319411    0.144384
 C    2.114272   -0.861368   -0.046726
 O    1.879871   -1.864228    0.910291
 C    3.545084   -0.354774    0.124527
 O    3.791324    0.715177   -0.793702
 C    4.599415   -1.403321   -0.185775
 O    5.895962   -0.880250   -0.029786
 H   -1.207037   -3.439862   -0.133336
 H   -0.360461   -0.546691    1.862131
 H   -2.267338   -2.035233    1.514618
 H   -2.065183   -1.192331   -1.406354
 H   -3.931215   -2.578696   -1.482887
 H   -4.241817   -0.738099    0.675728
 H   -4.940279    0.606729   -1.163659
 H   -2.343325    1.252425   -0.649784
 H   -4.205499    1.532500    1.754823
 H   -3.154372    2.809330    1.094838
 H   -5.378308    2.859446    0.261526
 H    3.296772    2.530871   -1.428940
 H    2.424314    2.949917    0.817809
 H    1.322967    1.179614   -1.819293
 H   -0.137550    2.310114   -0.221952
 H    1.257249    0.666644    1.182667
 H    1.991006   -1.248173   -1.070954
 H    1.064349   -2.332386    0.658729
 H    3.686414    0.005253    1.150431
 H    4.490452   -2.238159    0.509254
 H    4.435166   -1.781173   -1.208899
 H    5.897333   -0.035873   -0.500933
