72 
2k4i_ligand_dft.xyz
 P   -1.739590   -3.107583    0.139777
 P    4.211050    2.356428    0.132047
 P    5.135816   -1.413053    0.146428
 C   -3.845836   -2.409039   -1.360838
 C   -3.973910   -0.912855   -1.121062
 O   -4.737206   -0.725973    0.073981
 C   -4.641431   -0.154330   -2.256385
 O   -4.578621    1.251651   -1.977171
 C    0.018325   -1.155700    0.085383
 O   -1.133752   -1.745404   -0.509978
 C   -0.045401    0.363700   -0.106792
 O    0.072174    0.742865   -1.458894
 C    1.152613    1.008523    0.595514
 O    1.146929    2.412258    0.426033
 C    2.443107    0.416797    0.020810
 O    3.567828    0.953081    0.709051
 C    2.486323   -1.094399    0.160635
 O    3.662166   -1.638675   -0.455266
 C    1.289807   -1.722931   -0.544039
 O    1.305203   -3.131946   -0.386828
 C   -4.251621    0.136550    0.984923
 O   -3.276446    0.832456    0.802646
 C   -5.072841    0.107756    2.247020
 C   -4.644233    1.162246    3.262693
 C   -5.479736    1.097978    4.539081
 C   -3.362264    1.801031   -2.073353
 O   -2.419617    1.194421   -2.547591
 C   -3.303831    3.210844   -1.552144
 C   -1.938516    3.532177   -0.939258
 C   -1.840381    4.979711   -0.468165
 O    5.734118    2.142679    0.485690
 O    3.798797    2.607529   -1.259286
 O    3.784834    3.433936    1.224650
 O    4.942907   -1.217710    1.719021
 O    5.694766   -2.899693    0.022182
 O    5.979945   -0.395320   -0.523358
 O   -3.291914   -3.025296   -0.203845
 O   -1.216358   -4.237769   -0.859307
 O   -1.472219   -3.260895    1.575413
 H   -4.822450   -2.877457   -1.504242
 H   -3.226502   -2.595132   -2.244934
 H   -2.976110   -0.510872   -0.965195
 H   -4.152148   -0.369976   -3.209531
 H   -5.706337   -0.382961   -2.317708
 H    0.010247   -1.385833    1.158139
 H   -0.979694    0.726268    0.335664
 H   -0.808693    0.850366   -1.860256
 H    1.112068    0.828956    1.674528
 H    1.054313    2.556289   -0.531091
 H    2.520702    0.677936   -1.038910
 H    2.479907   -1.391943    1.216479
 H    1.308930   -1.456344   -1.607644
 H    2.184091   -3.440622   -0.649233
 H   -4.981553   -0.902712    2.666253
 H   -6.128033    0.222236    1.970652
 H   -4.726962    2.155772    2.807692
 H   -3.584322    1.020692    3.497475
 H   -6.542328    1.265202    4.328737
 H   -5.385640    0.119640    5.023721
 H   -5.157316    1.858290    5.256785
 H   -3.509649    3.883263   -2.396283
 H   -4.108951    3.350425   -0.825649
 H   -1.766224    2.860086   -0.092757
 H   -1.159082    3.321096   -1.678713
 H   -1.964766    5.682202   -1.300038
 H   -0.864306    5.167420   -0.010900
 H   -2.608203    5.205143    0.280323
 H    6.055567    1.325419    0.032090
 H    2.813081    3.511605    1.175061
 H    4.659752   -0.300278    1.889102
 H    6.641373   -2.891493   -0.174825
 H   -0.239213   -4.165470   -0.879870
