51 
2kdh_ligand_xtb.xyz
 O   -2.797175    0.374368    1.962325
 C   -2.060692    1.348008    1.329444
 C   -2.729708    2.508727    0.956481
 O   -4.067949    2.682407    1.218541
 C   -2.037736    3.528715    0.299415
 O   -2.682821    4.667430   -0.049898
 C   -0.692429    3.367308    0.001454
 C   -0.033152    2.206066    0.369023
 C    1.387066    1.956120   -0.070327
 C    3.131333    0.477760    0.607950
 C    3.821009   -0.101091    1.671741
 C    4.939305   -0.879302    1.429982
 C    5.375408   -1.083446    0.125381
 C    4.679514   -0.514201   -0.927591
 C    3.547618    0.271932   -0.701361
 C    1.363620    1.195452   -1.419441
 C   -0.682138    0.039562   -1.582319
 C   -1.444548   -1.113067   -1.051038
 C   -0.853221   -2.085306   -0.252121
 C   -2.810568   -1.152657   -1.317549
 C    2.780122    0.851138   -1.855282
 O    2.047708    1.224741    0.943745
 O    5.645128   -1.459156    2.436820
 O    5.070371   -0.698018   -2.218643
 C   -0.713713    1.203394    1.046368
 O    0.613099   -0.001758   -1.240558
 O   -1.178911    0.920974   -2.242790
 C   -3.588206   -2.164101   -0.787933
 O   -4.937739   -2.270926   -1.001863
 C   -3.002839   -3.141711    0.018181
 O   -3.743598   -4.152341    0.567269
 C   -1.629968   -3.100543    0.285217
 O   -1.069253   -4.044450    1.080218
 H   -2.225789   -0.380253    2.140877
 H   -4.369008    1.889747    1.679906
 H   -3.606775    4.577475    0.223122
 H   -0.184750    4.156826   -0.527444
 H    1.913103    2.908707   -0.234444
 H    3.465608    0.075022    2.675784
 H    6.251381   -1.690221   -0.046042
 H    0.853326    1.818852   -2.163630
 H    0.203161   -2.062951   -0.043891
 H   -3.242147   -0.377941   -1.933359
 H    2.752614    0.125753   -2.670178
 H    3.272485    1.752510   -2.230223
 H    5.237510   -1.239659    3.283132
 H    5.848714   -1.267703   -2.236365
 H   -0.192721    0.306888    1.345819
 H   -5.226523   -1.544381   -1.564791
 H   -4.656935   -4.033728    0.275411
 H   -1.760582   -4.673660    1.330933
