40 
2l84_ligand_dft.xyz
 S   -3.960214   -1.346573    0.132980
 N    0.688717    1.018668    0.036362
 N    1.159946   -0.130770   -0.140558
 C    2.548278   -0.252192   -0.065556
 C   -0.726114    1.082750   -0.023676
 O    6.621449   -0.927313    0.018034
 C   -3.534222    1.352794   -0.121919
 N    2.214869   -2.614729   -0.476798
 C    5.739055    1.787188    0.497368
 C   -5.029164    1.530465   -0.176967
 C   -0.431097    3.585329   -0.237465
 O   -4.531273   -1.629119   -1.163864
 C    5.292643   -0.663366    0.001855
 O   -2.885487   -2.529351    0.429423
 O   -4.798907   -1.249934    1.316261
 C    3.062510   -1.553437   -0.280044
 C    3.427314    0.811309    0.186981
 C    4.450179   -1.735263   -0.244406
 C    4.795795    0.642493    0.227434
 C   -1.543988   -0.043555    0.068510
 C   -1.296574    2.357211   -0.147553
 C   -2.921326    0.096440    0.024380
 C   -2.687023    2.456049   -0.200471
 H    7.111270   -0.116852    0.201440
 H    1.262638   -2.373116   -0.709367
 H    2.586651   -3.420346   -0.954902
 H    6.338319    1.626993    1.404364
 H    6.431574    1.961349   -0.337853
 H    5.181085    2.714916    0.645680
 H   -5.470896    0.907739   -0.961401
 H   -5.492872    1.237008    0.769842
 H   -5.283708    2.573143   -0.381392
 H    0.248973    3.646920    0.617047
 H    0.192343    3.560618   -1.136826
 H   -1.042222    4.491542   -0.266683
 H   -2.926473   -2.715576    1.381336
 H    2.991895    1.792766    0.347511
 H    4.885811   -2.717240   -0.398224
 H   -1.084988   -1.017641    0.176294
 H   -3.134537    3.441193   -0.307238
