28 
2lk1_ligand_xtb.xyz
 C   -1.177614   -0.687225   -0.110356
 C    0.155253   -0.279086   -0.071808
 C    1.218813   -1.315287   -0.058326
 O    0.953021   -2.499944   -0.069357
 C    2.609199   -0.817021   -0.021111
 C    3.649520   -1.743256   -0.015326
 C    4.966909   -1.324047    0.028667
 C    5.261793    0.030931    0.068082
 C    4.238133    0.960935    0.060681
 C    2.907121    0.552139    0.015684
 C    1.851024    1.584715    0.009303
 O    2.104268    2.772111    0.042372
 C    0.450320    1.089476   -0.039095
 C   -0.582657    2.026301   -0.050969
 C   -1.902451    1.612622   -0.087078
 C   -2.175657    0.259093   -0.114581
 S   -3.876887   -0.265698   -0.092851
 O   -4.705212    0.784335   -0.579970
 O   -4.009838   -1.584263   -0.628974
 O   -4.089553   -0.387990    1.505603
 H   -1.419302   -1.738556   -0.148702
 H    3.397460   -2.792880   -0.045682
 H    5.763997   -2.052051    0.033050
 H    6.289065    0.360824    0.104311
 H    4.445203    2.020412    0.090110
 H   -0.321136    3.073926   -0.029001
 H   -2.725647    2.308489   -0.101429
 H   -4.239164   -1.304736    1.742963
