54 
2lkk_ligand_xtb.xyz
 C    7.921670   -1.558152   -0.084027
 O    8.561746   -0.542194   -0.691708
 O    8.052855   -2.681927   -0.471283
 C    7.064315   -1.160367    1.104251
 C    5.950962   -0.177763    0.723262
 C    4.999622   -0.780537   -0.310285
 C    3.953867    0.214723   -0.813646
 C    2.927345    0.610932    0.245727
 C    1.875563    1.562173   -0.319311
 C    0.837181    1.961427    0.734115
 C   -0.128833    2.961956    0.180408
 C   -1.420942    2.766011   -0.030910
 C   -2.179008    1.502859    0.260294
 C   -3.622089    1.574683   -0.233387
 C   -4.394313    0.292322    0.064987
 C   -5.840610    0.369925   -0.417473
 C   -6.613584   -0.914076   -0.126215
 C   -8.060444   -0.826381   -0.606739
 C   -8.838633   -2.130551   -0.429540
 C   -9.089365   -2.486916    1.031126
 H    8.363396    0.310871   -0.283331
 H    7.714642   -0.713046    1.862018
 H    6.629482   -2.070529    1.518047
 H    6.374886    0.748378    0.321720
 H    5.400500    0.083191    1.628293
 H    4.498129   -1.647280    0.124500
 H    5.584439   -1.135429   -1.162306
 H    3.426777   -0.234127   -1.658302
 H    4.456777    1.112271   -1.182683
 H    3.426702    1.097978    1.085648
 H    2.436409   -0.287936    0.625831
 H    1.365533    1.087153   -1.160267
 H    2.367582    2.461241   -0.698128
 H    1.355777    2.404926    1.589524
 H    0.311876    1.072426    1.082742
 H    0.309816    3.918104   -0.075973
 H   -2.012485    3.573451   -0.441941
 H   -2.178544    1.317063    1.339302
 H   -1.678519    0.653835   -0.213781
 H   -3.625613    1.755395   -1.311082
 H   -4.125623    2.417508    0.246465
 H   -4.382629    0.106075    1.141944
 H   -3.896843   -0.551047   -0.420549
 H   -5.851639    0.562991   -1.493037
 H   -6.339400    1.209804    0.072416
 H   -6.591556   -1.104068    0.948173
 H   -6.119571   -1.752698   -0.623182
 H   -8.060516   -0.560750   -1.667089
 H   -8.572396   -0.025749   -0.067483
 H   -8.292036   -2.943809   -0.912604
 H   -9.801173   -2.033002   -0.937609
 H   -8.155792   -2.684589    1.551140
 H   -9.601185   -1.671896    1.538603
 H   -9.710232   -3.377340    1.101087
