54 
2lkk_ligand_dft.xyz
 C    7.424660   -1.916760   -0.037095
 O    8.234168   -0.843910   -0.209749
 O    7.597771   -2.908445   -0.691741
 C    6.337765   -1.760449    1.015540
 C    5.447371   -0.523674    0.824715
 C    4.770874   -0.477615   -0.546939
 C    3.898126    0.760636   -0.770324
 C    2.689103    0.862220    0.161848
 C    1.775625    2.039326   -0.178701
 C    0.560131    2.144503    0.752875
 C   -0.298880    3.339104    0.439781
 C   -1.461040    3.340940   -0.215874
 C   -2.200390    2.147605   -0.754462
 C   -3.449224    1.810864    0.072239
 C   -4.244974    0.638180   -0.499436
 C   -5.484502    0.291295    0.324788
 C   -6.281301   -0.881270   -0.247343
 C   -7.513255   -1.230849    0.589451
 C   -8.393560   -2.331632   -0.011293
 C   -7.698776   -3.688513   -0.131030
 H    7.973246   -0.130627    0.387599
 H    6.817624   -1.728347    2.002782
 H    5.735782   -2.670994    0.974728
 H    6.024049    0.402229    0.976321
 H    4.694559   -0.529285    1.620268
 H    4.163346   -1.383759   -0.675152
 H    5.541388   -0.512393   -1.327817
 H    3.543537    0.753228   -1.809025
 H    4.514412    1.665196   -0.665662
 H    3.021334    0.961547    1.204181
 H    2.112639   -0.072846    0.110357
 H    1.421200    1.946261   -1.213743
 H    2.350910    2.974632   -0.134912
 H    0.912845    2.218702    1.790832
 H   -0.020966    1.216968    0.693290
 H    0.104841    4.298467    0.764299
 H   -1.960054    4.298993   -0.364661
 H   -1.547988    1.267848   -0.798966
 H   -2.506129    2.354321   -1.789545
 H   -4.095633    2.697475    0.133165
 H   -3.142410    1.584313    1.102052
 H   -3.593581   -0.245123   -0.565099
 H   -4.547388    0.871867   -1.530279
 H   -6.134955    1.174936    0.392315
 H   -5.181309    0.055934    1.354959
 H   -5.621021   -1.755159   -0.325538
 H   -6.596198   -0.641126   -1.273356
 H   -8.119471   -0.324372    0.721703
 H   -7.191304   -1.533877    1.596257
 H   -8.743850   -2.012236   -1.002184
 H   -9.290903   -2.442844    0.610105
 H   -6.858573   -3.653525   -0.832433
 H   -7.308604   -4.014994    0.840433
 H   -8.393394   -4.456061   -0.487781
