44 
2lko_ligand_xtb.xyz
 C   -1.405582   -1.467430   -1.036774
 O   -2.288404   -2.147478   -0.179329
 C    0.015227   -1.968998   -0.724258
 O    0.318485   -1.780435    0.630098
 C    1.055516   -1.206146   -1.550904
 O    2.357054   -1.615912   -1.257283
 C    0.944051    0.309450   -1.308287
 O    1.240848    0.551235    0.035375
 C   -0.466882    0.819346   -1.616331
 O   -0.547808    2.193065   -1.329865
 C   -1.513733    0.037828   -0.824894
 O   -2.813385    0.397617   -1.224697
 P   -3.561883   -1.485929    0.562657
 O   -3.343481   -0.294759    1.389379
 O   -3.968435   -2.768975    1.390134
 O   -4.738882   -1.434712   -0.498690
 P    2.858132   -2.310084    0.119525
 O    2.295675   -3.627603    0.414779
 O    4.402372   -2.338035   -0.236065
 O    2.928639   -1.215075    1.264077
 P    2.200904    1.793107    0.428513
 O    1.865658    3.054103   -0.242362
 O    2.136828    1.737007    1.994316
 O    3.653687    1.314607    0.069682
 P   -0.841128    2.839803    0.104153
 O   -0.345873    2.233868    1.349718
 O   -2.444214    2.860608    0.116822
 O   -0.480027    4.334721   -0.161285
 H   -1.670936   -1.703901   -2.076970
 H    0.093082   -3.036388   -0.974556
 H   -0.210824   -2.404971    1.143857
 H    0.890331   -1.410775   -2.616462
 H    1.665362    0.838463   -1.943897
 H   -0.669831    0.731096   -2.691926
 H   -1.359525    0.241037    0.241839
 H   -2.971373    1.307802   -0.917879
 H   -4.074907   -2.528546    2.309149
 H   -4.653064   -0.670153   -1.069795
 H    4.663718   -3.230101   -0.457649
 H    2.056423   -0.970391    1.582281
 H    1.227452    1.973601    2.233182
 H    3.861313    0.458574    0.462604
 H   -2.767875    2.695468    1.004311
 H    0.478793    4.380648   -0.280557
