52 
2lzg_ligand_xtb.xyz
 C    2.671798    0.054540    0.130700
 C    4.025665   -0.186669   -0.024514
 C    4.449451   -1.401309   -0.536709
 C    3.532339   -2.376771   -0.894977
 C    2.182891   -2.125397   -0.732888
 C    1.738414   -0.911209   -0.221927
 C    0.246183   -0.667691   -0.087478
 N   -0.042878    0.217316    1.022695
 O   -0.646851    2.163312    1.961592
 C   -0.474896    1.494416    0.958068
 O    1.749197    3.166387    0.186846
 C   -0.813499    2.057138   -0.419759
 C   -0.072400    1.342169   -1.540222
 C   -0.313529   -0.165798   -1.429944
 C   -1.772257   -0.496154   -1.636866
 C   -2.258708   -0.616348   -2.934756
 C   -2.651935   -0.664153   -0.575352
 C   -3.984452   -0.951356   -0.821422
 O    0.926975    5.227507    0.328776
 C   -4.469926   -1.068828   -2.112414
 C   -3.592462   -0.896525   -3.169050
 C    0.205349   -0.340900    2.346290
 C   -1.045949   -0.962769    2.925131
 C   -0.936216   -2.002924    3.997519
 C   -1.403349   -2.389030    2.627301
 C   -0.566540    3.567641   -0.400416
 C    0.821738    3.922433    0.067201
Cl    6.140511   -1.710093   -0.729600
Cl   -5.055282   -1.163897    0.520787
 H    2.348294    1.004644    0.525684
 H    4.746066    0.567061    0.250470
 H    3.872342   -3.320556   -1.291171
 H    1.464978   -2.885257   -1.008394
 H   -0.230401   -1.633544    0.130421
 H   -1.891355    1.899453   -0.555125
 H    0.996762    1.541260   -1.464110
 H   -0.425283    1.704791   -2.508441
 H    0.253942   -0.663781   -2.224382
 H   -1.583448   -0.491701   -3.768603
 H   -2.316912   -0.573777    0.444410
 H    1.816951    5.440460    0.651389
 H   -5.510540   -1.292036   -2.285322
 H   -3.954542   -0.986219   -4.181954
 H    1.008379   -1.077192    2.272480
 H    0.528698    0.481690    2.990545
 H   -1.860903   -0.254123    3.011826
 H    0.052009   -2.313969    4.300468
 H   -1.652508   -1.987634    4.803838
 H   -0.729857   -2.973742    2.017710
 H   -2.443250   -2.642697    2.486813
 H   -0.715586    3.998404   -1.392716
 H   -1.263418    4.050403    0.286326
