90 
2m0u_ligand_xtb.xyz
 N   -3.526324   -1.673061   -1.319793
 C   -4.914942   -1.213537   -1.218818
 C   -4.850482    0.310850   -1.053202
 O   -5.300323    1.075038   -1.874441
 C   -5.630032   -1.892650   -0.040642
 C   -6.296892   -3.219859   -0.409617
 C   -5.335095   -4.374234   -0.618534
 O   -4.134802   -4.319999   -0.401417
 N   -5.917222   -5.498404   -1.063452
 N   -4.239694    0.707911    0.089170
 C   -3.681266    2.034575    0.193129
 C   -2.267554    1.996921   -0.438767
 O   -1.786914    0.953696   -0.843408
 C   -3.622931    2.480148    1.670264
 C   -2.183665    2.344560    2.135998
 O   -1.592907    1.285770    2.160723
 O   -1.652358    3.508566    2.409694
 N   -1.633538    3.174262   -0.507730
 C   -0.266135    3.269544   -0.970882
 C    0.721543    2.833128    0.127499
 O    0.682982    3.260785    1.271141
 C    0.013150    4.731576   -1.379173
 O   -0.516388    5.541151   -0.353193
 C   -0.621155    5.047826   -2.733001
 N    1.643229    1.959207   -0.279632
 C    2.676399    1.421052    0.578407
 C    3.553637    0.540231   -0.318998
 O    3.252255    0.322608   -1.475426
 C    2.075326    0.615550    1.742269
 C    1.331620   -0.625643    1.257531
 C    0.500530   -1.217726    2.398898
 N   -0.155380   -2.454447    2.016583
 C   -1.214128   -2.527672    1.200459
 N   -1.601522   -3.730103    0.762505
 N   -1.915060   -1.465953    0.855333
 N    4.670173    0.072280    0.263343
 C    5.507319   -0.906975   -0.399727
 C    4.856980   -2.280173   -0.276518
 O    5.356923   -3.158115   -1.133090
 C    6.913437   -0.879049    0.213726
 C    7.983957   -1.651800   -0.566485
 C    8.206625   -1.060166   -1.955734
 C    9.288416   -1.626229    0.229152
 O    3.978877   -2.541715    0.506353
 H   -2.571645   -1.540020    0.033796
 H   -3.497892   -2.651072   -1.590526
 H   -3.024128   -1.124152   -2.010958
 H   -5.482907   -1.396078   -2.143690
 H   -6.405946   -1.218015    0.323306
 H   -4.915669   -2.065659    0.765465
 H   -6.972415   -3.513280    0.398299
 H   -6.900208   -3.097739   -1.311553
 H   -5.357004   -6.323603   -1.206358
 H   -6.905595   -5.560026   -1.233633
 H   -3.766089    0.006881    0.637904
 H   -4.318399    2.698992   -0.398691
 H   -3.932520    3.516556    1.788628
 H   -4.280059    1.841410    2.260094
 H   -0.662169    3.505661    2.352248
 H   -1.988221    4.016355   -0.074573
 H   -0.151437    2.607811   -1.834423
 H    1.104639    4.865446   -1.445080
 H   -0.306916    6.463247   -0.532613
 H   -0.462071    6.094013   -2.984898
 H   -0.176499    4.435231   -3.511467
 H   -1.690820    4.856941   -2.698614
 H    1.666499    1.573528   -1.219402
 H    3.272531    2.246692    0.988376
 H    2.864868    0.330486    2.438610
 H    1.381790    1.270917    2.270165
 H    2.043612   -1.370412    0.897201
 H    0.671733   -0.352577    0.432243
 H    1.145640   -1.445423    3.248485
 H   -0.249308   -0.494000    2.724193
 H    0.384250   -3.296686    2.144581
 H   -2.494681   -3.847376    0.293582
 H   -1.148741   -4.561892    1.097458
 H   -1.587509   -0.540626    1.105066
 H    4.799379    0.185287    1.256613
 H    5.540410   -0.648129   -1.462280
 H    4.934671   -4.028093   -1.042923
 H    6.854823   -1.274884    1.231500
 H    7.218332    0.168169    0.276937
 H    7.665693   -2.691889   -0.678348
 H    9.042704   -1.557933   -2.439456
 H    7.332490   -1.191679   -2.587403
 H    8.435408    0.001062   -1.887909
 H    9.643114   -0.604610    0.345515
 H   10.055970   -2.196543   -0.286520
 H    9.150914   -2.057897    1.217890
