90 
2m0v_ligand_xtb.xyz
 N   -3.576975   -1.633591   -1.316889
 C   -4.960623   -1.166690   -1.185303
 C   -4.881044    0.354715   -1.001052
 O   -5.333786    1.133527   -1.806699
 C   -5.658330   -1.857384   -0.003353
 C   -6.348520   -3.169920   -0.381209
 C   -5.403470   -4.326918   -0.644508
 O   -4.199513   -4.292694   -0.444174
 N   -6.004907   -5.429086   -1.117683
 N   -4.251625    0.731500    0.138321
 C   -3.672716    2.049097    0.246536
 C   -2.273739    1.999132   -0.416894
 O   -1.814718    0.952726   -0.838350
 C   -3.576653    2.475813    1.727347
 C   -2.126192    2.338357    2.156246
 O   -1.534285    1.279828    2.159611
 O   -1.589835    3.501018    2.425502
 N   -1.627059    3.168896   -0.493212
 C   -0.266887    3.248530   -0.980581
 C    0.732789    2.811348    0.106183
 O    0.721526    3.256003    1.244001
 C    0.018099    4.704744   -1.405554
 O   -0.494475    5.527913   -0.381787
 C   -0.628826    5.012216   -2.755518
 N    1.631681    1.913356   -0.299561
 C    2.665960    1.379060    0.559473
 C    3.552821    0.504726   -0.333943
 O    3.252233    0.273612   -1.487799
 C    2.064602    0.568114    1.719753
 C    1.337474   -0.681632    1.231698
 C    0.499136   -1.275866    2.366633
 N   -0.177186   -2.497068    1.970400
 C   -1.245901   -2.543716    1.165423
 N   -1.659509   -3.734998    0.721303
 N   -1.932017   -1.466617    0.837869
 N    4.676614    0.059236    0.251864
 C    5.533864   -0.910591   -0.398928
 C    4.917228   -2.296740   -0.249463
 O    5.441804   -3.179763   -1.086030
 C    6.940922   -0.831557    0.207849
 C    8.026302   -1.619803   -0.535058
 C    8.206399   -1.123380   -1.967065
 C    9.340117   -1.489571    0.234639
 O    4.041093   -2.562762    0.533895
 H   -2.598287   -1.521860    0.022520
 H   -3.559743   -2.607707   -1.602270
 H   -3.082951   -1.077738   -2.008384
 H   -5.546025   -1.332979   -2.102257
 H   -6.417976   -1.180586    0.389679
 H   -4.928512   -2.053109    0.783537
 H   -7.001308   -3.476142    0.440567
 H   -6.978220   -3.022129   -1.260904
 H   -5.456422   -6.255114   -1.296563
 H   -6.996545   -5.474305   -1.273385
 H   -3.777680    0.018002    0.670690
 H   -4.313041    2.729433   -0.323271
 H   -3.885559    3.509744    1.866944
 H   -4.216611    1.827769    2.325842
 H   -0.600894    3.499497    2.347078
 H   -1.964208    4.014800   -0.053327
 H   -0.172982    2.578591   -1.840265
 H    1.109714    4.830515   -1.484489
 H   -0.280749    6.446668   -0.572957
 H   -0.468866    6.055807   -3.017669
 H   -0.193897    4.391815   -3.533380
 H   -1.698790    4.825206   -2.708981
 H    1.644032    1.518774   -1.235474
 H    3.253362    2.208643    0.973734
 H    2.851634    0.292261    2.422496
 H    1.359949    1.216591    2.241410
 H    2.059868   -1.421191    0.881467
 H    0.683561   -0.417088    0.398916
 H    1.141734   -1.523202    3.212634
 H   -0.239133   -0.544562    2.701351
 H    0.347933   -3.350013    2.087032
 H   -2.556267   -3.833058    0.254725
 H   -1.215537   -4.577806    1.039988
 H   -1.583874   -0.549188    1.089020
 H    4.803176    0.185067    1.243967
 H    5.555621   -0.669255   -1.465912
 H    5.040001   -4.057606   -0.979817
 H    6.890757   -1.180162    1.243256
 H    7.226423    0.222968    0.221443
 H    7.745489   -2.676149   -0.565869
 H    9.061612   -1.614751   -2.423032
 H    7.333671   -1.345127   -2.574889
 H    8.383258   -0.050234   -1.981316
 H    9.661576   -0.450927    0.265009
 H   10.119369   -2.073111   -0.247516
 H    9.231007   -1.846228    1.256258
