38 
2m3z_ligand_xtb.xyz
 C   -3.148315   -0.075854   -1.038185
 C   -4.275529   -0.617442   -0.527245
 C   -4.586393    0.278488    2.856256
 C    1.782863    2.333592   -0.288622
 C    2.196006   -0.233278   -0.245808
 C    3.061350   -1.181126    0.266667
 N    0.099328    1.708915   -1.697287
 C    4.151509   -0.858446    1.050542
 C    3.561872    1.432812    0.863733
 C    4.420913    0.468761    1.361842
 C    2.452292    1.090563    0.058032
 N    0.728945    2.560173   -0.980883
 C   -0.996678    1.094823   -1.605392
 C    2.559600    3.432683    0.356575
 O    2.375969    4.621690    0.344475
 N    3.596564    2.798800    1.021724
 S   -2.010450    0.913316   -0.149147
 C   -4.705123   -0.455861    0.817518
 C   -2.735374   -0.255861   -2.437837
 O   -3.327677   -0.882377   -3.282290
 N   -1.553796    0.415103   -2.655289
 O   -3.961286    0.285918    1.674933
 C   -5.734832   -0.458724    2.795721
 C   -5.818835   -0.938541    1.475794
 S    2.702469   -2.880866   -0.074749
 O    3.869466   -3.696863    0.075858
 O    1.742952   -3.220705    1.188567
 O    1.925229   -2.977653   -1.265623
 H   -4.893462   -1.211224   -1.184568
 H   -4.129733    0.825590    3.657332
 H    1.374125   -0.553095   -0.863461
 H    4.788600   -1.655686    1.398014
 H    5.270764    0.736260    1.969586
 H    4.294276    3.298543    1.549885
 H   -1.100961    0.396908   -3.557851
 H   -6.428056   -0.633382    3.592534
 H   -6.586953   -1.554201    1.055387
 H    2.132654   -3.929472    1.702728
