48 
2mlm_ligand_xtb.xyz
 S   -5.833815    1.735792    0.624650
 C   -5.348715    0.085803    0.269757
 C   -6.292337   -0.908420    0.528522
 C   -4.087273   -0.267647   -0.237028
 C   -6.022798   -2.230483    0.253704
 C   -4.799951   -2.583372   -0.300532
 C   -3.849490   -1.611508   -0.534996
 C   -3.016672    0.737738   -0.460535
 O   -3.226743    1.928252   -0.698103
 N   -1.758774    0.278199   -0.369616
 C   -0.609166    1.124489   -0.537162
 C    0.635247    0.279869   -0.254770
 O    0.538875   -0.910030   -0.024991
 N    1.780141    0.975689   -0.290874
 C    3.119764    0.419700   -0.081174
 C    3.211684   -0.239054    1.298465
 C    4.624347   -0.782951    1.506015
 C    4.935840   -1.818739    0.426956
 C    4.847111   -1.159753   -0.948485
 C    3.434719   -0.617964   -1.163043
 C    5.854417   -0.013759   -1.034113
 C    5.539716    1.018993    0.047052
 C    4.127217    1.565882   -0.165000
 C    5.631673    0.363029    1.423849
 H   -4.759107    2.272614    0.027090
 H   -7.246374   -0.612831    0.938282
 H   -6.767880   -2.985346    0.454835
 H   -4.589786   -3.612959   -0.546347
 H   -2.911431   -1.898384   -0.987247
 H   -1.528363   -0.674304   -0.109552
 H   -0.660941    1.979662    0.147621
 H   -0.569820    1.517398   -1.561033
 H    1.730699    1.960296   -0.501646
 H    2.483007   -1.047277    1.359146
 H    2.971344    0.495971    2.070468
 H    4.685280   -1.253184    2.493148
 H    4.223451   -2.643355    0.488887
 H    5.937456   -2.225880    0.580226
 H    5.069022   -1.899835   -1.724729
 H    3.352606   -0.154328   -2.149277
 H    2.706219   -1.426970   -1.104679
 H    5.807116    0.452583   -2.020837
 H    6.866801   -0.397749   -0.894331
 H    6.256898    1.844937   -0.014683
 H    3.900552    2.313068    0.600054
 H    4.060088    2.046768   -1.144576
 H    6.642226   -0.017332    1.585094
 H    5.423347    1.099656    2.202978
