48 
2mlm_ligand_dft.xyz
 S   -5.755449    1.794099    0.792284
 C   -5.350843    0.132858    0.312603
 C   -6.322025   -0.836661    0.587814
 C   -4.135379   -0.269432   -0.274703
 C   -6.116922   -2.171523    0.271683
 C   -4.933448   -2.568787   -0.343458
 C   -3.958905   -1.618779   -0.609143
 C   -3.025767    0.697453   -0.572549
 O   -3.206974    1.864063   -0.921885
 N   -1.773457    0.199663   -0.447537
 C   -0.622506    1.028230   -0.673142
 C    0.620487    0.231775   -0.270224
 O    0.519515   -0.895142    0.200499
 N    1.787497    0.879207   -0.476823
 C    3.123748    0.363518   -0.158807
 C    3.428000   -0.917490   -0.959414
 C    4.854415   -1.398254   -0.647354
 C    5.861501   -0.307019   -1.043308
 C    5.568090    0.973940   -0.245907
 C    4.139449    1.449683   -0.553150
 C    5.696463    0.682442    1.257890
 C    4.689140   -0.407904    1.655588
 C    3.262485    0.075077    1.348571
 C    4.977610   -1.689760    0.857177
 H   -4.814249    2.380507    0.028459
 H   -7.257415   -0.527483    1.044979
 H   -6.892292   -2.899352    0.491165
 H   -4.772436   -3.606118   -0.618137
 H   -3.044189   -1.922124   -1.110107
 H   -1.578059   -0.690675   -0.005700
 H   -0.686910    1.952997   -0.084501
 H   -0.557414    1.328009   -1.726605
 H    1.738255    1.809830   -0.866363
 H    3.321174   -0.703980   -2.031018
 H    2.694940   -1.686796   -0.699527
 H    5.056836   -2.311863   -1.218116
 H    5.795021   -0.104993   -2.120428
 H    6.885627   -0.645512   -0.840707
 H    6.275020    1.760703   -0.533526
 H    3.923769    2.373767    0.001790
 H    4.040192    1.674293   -1.624620
 H    5.511176    1.596617    1.836947
 H    6.718610    0.355810    1.488052
 H    4.773551   -0.614669    2.728669
 H    2.527104   -0.680738    1.639743
 H    3.038798    0.991168    1.910765
 H    5.986415   -2.056211    1.087176
 H    4.271504   -2.478438    1.145678
