74 
2n06_ligand_dft.xyz
 N    0.637959   -1.704236   -1.887479
 C    0.511919    2.029683    2.122642
 O    0.098519    1.361220    3.060035
 N    0.181685    3.334813    1.946579
 C    0.519171    4.159412    0.791173
 C    1.751408    3.592181    0.095706
 N    1.548865    2.169963   -0.136070
 C    1.471697    1.421055    1.105154
 C    0.825069    1.836706   -1.253403
 O    0.474878    2.660123   -2.082683
 N    0.439775    0.488409   -1.364344
 C    1.234886   -0.664642   -1.453541
 C   -0.770591   -1.364643   -2.106215
 C   -0.835922    0.209843   -2.023286
 C   -1.983441    0.830436   -1.262051
 C   -2.025809    0.786607    0.133796
 C   -3.071604    1.367065    0.837105
 C   -4.094717    1.991325    0.131336
Cl   -5.417340    2.732988    1.008190
 C   -4.080521    2.045202   -1.256215
 C   -3.016153    1.468089   -1.942872
 C   -1.676974   -2.071403   -1.116571
 C   -1.182962   -2.552352    0.097464
 C   -2.059631   -3.106668    1.019621
 C   -3.426419   -3.191231    0.760023
 C   -3.914533   -2.718284   -0.458973
 O   -5.221457   -2.744132   -0.829458
 C   -3.033960   -2.170974   -1.393783
 C    2.672630   -0.626212   -1.091920
 C    3.588068   -0.035613   -1.949496
 C    4.952646   -0.016191   -1.672107
 C    5.398154   -0.610643   -0.493258
 C    4.491989   -1.200091    0.396161
 C    3.133872   -1.211503    0.104263
 O    2.179097   -1.730958    0.909851
 C    2.503416   -2.237614    2.213283
 C    1.306324   -3.074335    2.632465
 C    2.769397   -1.103605    3.197412
 O    6.694055   -0.664552   -0.101735
 C    7.668101   -0.105055   -0.955396
 C   -6.159197   -3.244148    0.094792
 H   -0.525335    3.671747    2.586098
 H   -0.313826    4.180707    0.078561
 H    0.712910    5.182167    1.130224
 H    2.642632    3.711408    0.721347
 H    1.911223    4.094452   -0.857185
 H    1.140387    0.400597    0.934373
 H    2.467763    1.360625    1.559146
 H   -1.055979   -1.676648   -3.115510
 H   -0.814932    0.626983   -3.036404
 H   -1.243216    0.279263    0.687726
 H   -3.088035    1.329141    1.920907
 H   -4.882435    2.541783   -1.791364
 H   -2.988769    1.529223   -3.027585
 H   -0.120719   -2.486937    0.302737
 H   -1.678624   -3.484675    1.964559
 H   -4.088548   -3.622180    1.502109
 H   -3.445980   -1.795963   -2.326500
 H    3.226089    0.419509   -2.867153
 H    5.636161    0.449545   -2.370705
 H    4.893370   -1.637795    1.301142
 H    3.382848   -2.887902    2.122820
 H    1.495146   -3.536731    3.606031
 H    0.419235   -2.438072    2.717218
 H    1.108107   -3.861802    1.899985
 H    1.876833   -0.477843    3.305349
 H    3.604560   -0.472870    2.878159
 H    3.019469   -1.521001    4.178213
 H    8.626901   -0.262051   -0.460360
 H    7.506598    0.970739   -1.098920
 H    7.678693   -0.603577   -1.932590
 H   -7.134485   -3.148756   -0.384260
 H   -6.156551   -2.663537    1.026456
 H   -5.973304   -4.300993    0.327403
