51 
2n27_ligand_dft.xyz
 C   -3.333611   -1.244732   -0.254253
 C   -3.633858    0.117599   -0.369122
 C   -4.934139    0.580049   -0.247799
 C   -5.978034   -0.333413   -0.011859
 C   -5.687370   -1.688512    0.090302
 C    8.988684    0.453878   -0.587384
 C    7.690549   -0.343330   -0.435094
 C    7.402690   -1.144929   -1.707721
 C    6.531129    0.590825   -0.060514
 C    5.203678   -0.109544    0.232252
 C    4.125674    0.848607    0.739346
 C    2.789638    0.159384    1.012748
 C    1.715353    1.123073    1.516167
 C    0.381253    0.436719    1.804458
 C   -0.288729   -0.077106    0.535997
 O   -0.163447    0.483564   -0.543522
 N   -1.047525   -1.199855    0.696623
 C   -1.898829   -1.711134   -0.365135
 C   -4.372479   -2.138803   -0.026603
 O   -7.236879    0.169745    0.111055
 O   -5.178737    1.922810   -0.312111
 C   -5.853999    2.346337   -1.486843
 H   -2.844478    0.840361   -0.556198
 H   -6.491417   -2.398811    0.273067
 H    9.835871   -0.204234   -0.810691
 H    8.903455    1.178243   -1.407334
 H    9.224447    1.010406    0.326754
 H    7.825436   -1.056348    0.391942
 H    6.536887   -1.804234   -1.590478
 H    7.200722   -0.470961   -2.550224
 H    8.261073   -1.769881   -1.978525
 H    6.385237    1.320518   -0.871317
 H    6.824550    1.173691    0.824305
 H    5.366746   -0.901427    0.977996
 H    4.834101   -0.609494   -0.672307
 H    3.974054    1.647925    0.000588
 H    4.478411    1.341115    1.657017
 H    2.938424   -0.642894    1.750560
 H    2.436121   -0.320710    0.091279
 H    1.546938    1.904062    0.767068
 H    2.063780    1.618436    2.431186
 H   -0.315829    1.151164    2.261961
 H    0.516514   -0.380729    2.524400
 H   -1.232363   -1.517957    1.636285
 H   -1.451942   -1.365110   -1.300282
 H   -1.855049   -2.805511   -0.355189
 H   -4.165710   -3.202401    0.062796
 H   -7.848221   -0.558206    0.274412
 H   -5.274446    2.086468   -2.382137
 H   -6.853677    1.904779   -1.555612
 H   -5.940058    3.431968   -1.414723
