26 
2nn1_ligand_dft.xyz
 C   -1.713177    0.003691    0.216202
 C   -1.040738    1.216246    0.324759
 C    0.329581    1.208261    0.554196
 C    1.031394    0.006689    0.679666
 C    0.328021   -1.196504    0.578611
 C   -1.042106   -1.207354    0.349446
 S   -3.465532    0.001093   -0.092008
 O   -3.991834    1.286864    0.338771
 O   -3.999277   -1.261601    0.394270
 N   -3.568767   -0.038875   -1.766889
 C    2.526892    0.007822    0.879816
 C    3.265020   -0.004741   -0.461413
 C    4.775885   -0.003481   -0.289164
 O    5.338203    0.006103    0.771674
 O    5.488213   -0.013913   -1.438281
 H   -1.589330    2.149017    0.250113
 H    0.861260    2.151526    0.650213
 H    0.858578   -2.138260    0.693773
 H   -1.591686   -2.140914    0.293733
 H   -4.021895    0.802611   -2.109191
 H   -4.057367   -0.877409   -2.064790
 H    2.838031   -0.863239    1.464175
 H    2.838844    0.889060    1.448286
 H    2.975732    0.868328   -1.062321
 H    2.975226   -0.888551   -1.046206
 H    4.895418   -0.020939   -2.201608
