26 
2nno_ligand_xtb.xyz
 C   -1.677408    0.019776   -0.017271
 C   -1.029374    1.236759    0.026517
 C    0.323819    1.290919   -0.259691
 C    1.022218    0.134724   -0.592683
 C    0.345385   -1.080901   -0.629356
 C   -1.006798   -1.141540   -0.342552
 S   -3.422694   -0.054616    0.321347
 O   -3.822203    1.121013    1.039346
 O   -3.755864   -1.347732    0.843225
 N   -4.047833    0.044733   -1.241080
 C    2.499160    0.186420   -0.855065
 C    3.278419   -0.068416    0.439642
 C    4.778056   -0.051822    0.195926
 O    5.524351   -0.258883    1.297262
 O    5.288889    0.124802   -0.868766
 H   -1.591555    2.116500    0.295550
 H    0.843618    2.237236   -0.229082
 H    0.882575   -1.981577   -0.888031
 H   -1.550399   -2.072377   -0.353163
 H   -4.566422    0.896281   -1.381860
 H   -4.600854   -0.764292   -1.472705
 H    2.784829    1.161653   -1.250124
 H    2.784805   -0.568590   -1.588279
 H    3.002111   -1.041738    0.856365
 H    3.032309    0.697302    1.181385
 H    4.994677   -0.388771    2.094629
