26 
2nno_ligand_dft.xyz
 C   -1.696928    0.006892   -0.036270
 C   -1.027728    1.218518   -0.168534
 C    0.331462    1.209264   -0.458106
 C    1.025782    0.007216   -0.613448
 C    0.329024   -1.195690   -0.468527
 C   -1.029282   -1.205249   -0.179224
 S   -3.439434    0.005332    0.323076
 O   -3.770882    1.304074    0.888884
 O   -3.751813   -1.241634    1.003931
 N   -4.153660   -0.085820   -1.191206
 C    2.512096    0.006641   -0.872928
 C    3.303303   -0.003270    0.437738
 C    4.805858   -0.005293    0.204557
 O    5.564270   -0.012382    1.323474
 O    5.324461   -0.001207   -0.878556
 H   -1.564499    2.151253   -0.032673
 H    0.862138    2.152003   -0.564485
 H    0.858366   -2.138200   -0.583282
 H   -1.566510   -2.139076   -0.052434
 H   -4.654012    0.771873   -1.401630
 H   -4.758054   -0.899832   -1.241289
 H    2.801678    0.886331   -1.455502
 H    2.799054   -0.866165   -1.467057
 H    3.035741   -0.884787    1.036334
 H    3.039529    0.871887    1.047217
 H    5.003327   -0.014845    2.110601
