39 
2no3_ligand_dft.xyz
 C    1.464898    2.219580    0.086074
 N    0.433557    1.397071   -0.116173
 C   -0.759458    1.956028   -0.313425
 C   -0.926126    3.351579   -0.299338
 C    0.219493    4.091356   -0.075666
 N    1.428794    3.560109    0.118147
 N   -1.848145    1.144165   -0.514470
 C   -1.887580   -0.250454   -0.549076
 C   -3.040841   -0.921980   -0.079824
 C   -3.105069   -2.318055   -0.170308
 C   -2.051261   -3.061157   -0.677710
 C   -0.913274   -2.394615   -1.130109
 C   -0.834105   -1.010655   -1.079261
 N    2.711910    1.683092    0.282385
 C    3.147253    0.350998    0.254568
 C    4.513942    0.118660    0.056064
 C    4.995694   -1.184444    0.032955
 C    4.146558   -2.273434    0.190348
 C    2.789363   -2.032548    0.393529
 C    2.288409   -0.733848    0.446223
 O    1.967075   -3.107518    0.543528
 C   -4.191107   -0.155035    0.491165
 N   -4.983402   -0.825774    1.376560
 O   -4.445115    1.006997    0.181554
 H   -1.891341    3.817582   -0.457016
 H    0.171940    5.178145   -0.051870
 H   -2.766666    1.570633   -0.421126
 H   -4.014777   -2.826783    0.134857
 H   -2.123263   -4.141699   -0.742692
 H   -0.082080   -2.954215   -1.550455
 H    0.045351   -0.504222   -1.450862
 H    3.427899    2.392082    0.346460
 H    5.191104    0.955477   -0.091338
 H    6.056894   -1.353929   -0.123643
 H    4.511761   -3.293766    0.158054
 H    1.235353   -0.560810    0.619202
 H    1.059468   -2.790766    0.645415
 H   -5.700019   -0.276012    1.827587
 H   -4.637041   -1.630041    1.874371
