37 
2nq7_ligand_dft.xyz
 S   -3.310491   -1.784130    0.000003
 N   -4.652246    0.431663    0.000025
 N   -2.352515    0.803818   -0.000114
 N   -0.658997    2.786856    0.000058
 N    1.835465    0.101916   -0.000212
 C   -5.041290   -1.853581    0.000084
 C   -5.560596   -0.599872    0.000104
 C   -3.443963   -0.046161   -0.000039
 C   -1.048716    0.428338   -0.000118
 C   -0.085358    1.577933   -0.000043
 C    0.104462    3.868884    0.000122
 C    1.496354    3.788865    0.000070
 C    2.110005    2.549948   -0.000054
 C    1.313610    1.391472   -0.000097
 C    3.158960   -0.273399   -0.000056
 C    3.436791   -1.788778    0.000048
 C    2.181125   -2.669063   -0.000145
 C    4.273109   -2.083199    1.257494
 C    4.273554   -2.083318   -1.257081
 O   -0.707790   -0.755750   -0.000175
 O    4.082663    0.524575    0.000004
 H   -2.541011    1.802058    0.000051
 H    1.120187   -0.620920   -0.000174
 H   -5.564198   -2.799105    0.000103
 H   -6.617189   -0.362177    0.000164
 H   -0.408284    4.826592    0.000207
 H    2.095213    4.693540    0.000122
 H    3.185536    2.446433   -0.000105
 H    1.559853   -2.509478    0.888281
 H    1.560116   -2.509429   -0.888742
 H    2.481791   -3.721833   -0.000116
 H    5.167870   -1.456096    1.278497
 H    3.695685   -1.892749    2.169280
 H    4.578942   -3.135123    1.263173
 H    3.696430   -1.892973   -2.169079
 H    5.168303   -1.456195   -1.277844
 H    4.579401   -3.135239   -1.262543
