77 
2o22_ligand_dft.xyz
 C    7.937231   -1.206226   -1.146161
 C    8.610913   -1.322520    0.232859
 C    7.493266   -1.496829    1.275540
 C    6.394958   -0.437518    1.187942
 N    5.831694   -0.385828   -0.153866
 C    6.840442   -0.147474   -1.188146
 C    9.522195   -2.554320    0.252875
 C    9.459343   -0.078997    0.538965
 C    4.579205    0.203608   -0.324259
 C    3.898662    0.075517   -1.552552
 C    2.644139    0.619749   -1.734290
 C    2.005845    1.324636   -0.706803
 C    2.664841    1.442863    0.517109
 C    3.927344    0.898838    0.708736
 C    0.645097    1.857007   -0.988129
 O   -0.016057    1.499551   -1.947733
 N    0.144877    2.767324   -0.071659
 S   -1.358537    3.548127   -0.206287
 C   -2.525459    2.230063   -0.177939
 C   -3.008707    1.775664    1.027119
 C   -3.935282    0.733779    1.058130
 C   -4.399574    0.103614   -0.141465
 C   -3.859494    0.615191   -1.350753
 C   -2.955145    1.644881   -1.376264
 N   -5.308332   -0.898236   -0.099326
 C   -5.724342   -1.923699   -1.066194
 C   -4.761841   -3.137733   -1.035149
 S   -3.013723   -2.849347   -1.445445
 C   -2.305962   -2.179761    0.052485
 C   -1.261003   -1.263648   -0.093556
 C   -0.638834   -0.735744    1.033708
 C   -1.068452   -1.086442    2.309318
 C   -2.110837   -1.996704    2.453571
 C   -2.717161   -2.554541    1.332823
 N   -4.338599    0.309692    2.383949
 O   -5.215766   -0.554312    2.506341
 O   -3.794577    0.818801    3.350550
 O   -1.448252    4.216447   -1.486704
 O   -1.422426    4.287218    1.043979
 C   -7.087129   -2.414920   -0.544832
 C   -5.920942   -1.423108   -2.502343
 H    7.490276   -2.174273   -1.406826
 H    8.686653   -0.975308   -1.913823
 H    7.916557   -1.484812    2.287881
 H    7.025926   -2.479304    1.131411
 H    6.780046    0.549538    1.500966
 H    5.599736   -0.711495    1.886389
 H    6.365148   -0.161516   -2.169231
 H    7.272365    0.860313   -1.063133
 H   10.317052   -2.465123   -0.497060
 H    9.997519   -2.674408    1.233583
 H    8.956433   -3.468294    0.037903
 H    9.938936   -0.174572    1.520030
 H   10.250405    0.040609   -0.210402
 H    8.872705    0.844992    0.548639
 H    4.345823   -0.495015   -2.359170
 H    2.122823    0.496307   -2.677596
 H    2.201299    1.948390    1.360558
 H    4.408105    1.036398    1.669446
 H    0.725150    3.174641    0.649511
 H   -2.685028    2.215342    1.961908
 H   -4.155941    0.174244   -2.286688
 H   -2.560246    2.002973   -2.318924
 H   -5.574675   -1.118560    0.853833
 H   -5.096685   -3.864896   -1.783181
 H   -4.832060   -3.638998   -0.065907
 H   -0.949237   -0.938476   -1.081794
 H    0.178196   -0.032974    0.910895
 H   -0.601845   -0.649145    3.186101
 H   -2.463767   -2.271226    3.442747
 H   -3.517648   -3.272867    1.473448
 H   -7.019469   -2.748380    0.497205
 H   -7.825393   -1.609369   -0.600222
 H   -7.445151   -3.257502   -1.144064
 H   -6.406332   -0.443160   -2.513358
 H   -4.982758   -1.371060   -3.059325
 H   -6.569527   -2.127140   -3.033264
