33 
2o63_ligand_dft.xyz
 C   -4.686146    0.720215   -0.000078
 C   -4.016633   -0.491298    0.000093
 C   -2.593695   -0.515857    0.000073
 C   -1.898192    0.698854   -0.000088
 C   -2.556759    1.922591   -0.000204
 C   -3.951615    1.911573   -0.000216
 C   -1.852400   -1.741551    0.000162
 C   -0.402257   -1.628799    0.000057
 C    0.210732   -0.414505   -0.000032
 C    1.649372   -0.119031   -0.000048
 C    2.602958   -1.144220   -0.000352
 C    3.957359   -0.831924   -0.000312
 C    4.372615    0.497964    0.000039
 C    3.422782    1.515819    0.000279
 C    2.069459    1.221169    0.000223
 O   -0.549486    0.723648   -0.000110
 O   -2.361501   -2.883095    0.000311
 O    3.943076    2.782055    0.000498
 O    5.711995    0.747957    0.000087
 O    4.875108   -1.827796   -0.000548
 O    0.250904   -2.808121    0.000175
 O   -4.669528    3.055961   -0.000297
 O   -4.711120   -1.629708    0.000234
 H   -5.768605    0.749026   -0.000124
 H   -1.985956    2.845227   -0.000259
 H    2.313921   -2.185419   -0.000617
 H    1.341077    2.024170    0.000431
 H    3.227613    3.427662    0.001306
 H    5.838713    1.706983    0.000180
 H    5.753976   -1.422523   -0.001008
 H   -0.463516   -3.476506    0.000319
 H   -4.071720    3.813379   -0.000910
 H   -4.066558   -2.375200    0.000294
