43 
2ohq_ligand_xtb.xyz
 C    5.216762   -1.019802   -1.300209
 O    3.919486   -0.521095   -1.512024
 C    3.298048    0.133842   -0.491086
 C    3.849346    0.357765    0.765247
 C    3.116063    1.046871    1.718356
 C    1.849836    1.517417    1.438809
 C    1.284953    1.294800    0.183120
 C    2.014905    0.601088   -0.769307
 C   -0.077859    1.761940   -0.111608
 C   -0.517642    3.016625    0.301643
 C   -1.817649    3.415359    0.052988
 C   -2.703907    2.558237   -0.576792
 C   -2.284878    1.302460   -0.994142
 C   -3.255909    0.310682   -1.567776
 C   -3.826813   -0.569006   -0.431551
 C   -2.706925   -1.222026    0.317050
 C   -2.202881   -0.741637    1.486363
 C   -1.049727   -1.353219    2.041812
 C   -0.455464   -2.399395    1.425845
 C   -0.988175   -2.939359    0.195849
 N   -0.569075   -3.916182   -0.516206
 N   -2.117893   -2.288266   -0.273306
 C   -0.967428    0.926183   -0.776630
 H    5.924420   -0.216544   -1.069090
 H    5.236922   -1.763839   -0.497080
 H    5.506396   -1.495104   -2.236205
 H    4.837987    0.005087    1.013264
 H    3.548810    1.213941    2.694204
 H    1.284174    2.038467    2.196305
 H    1.613029    0.424799   -1.754719
 H    0.167001    3.685247    0.802324
 H   -2.148066    4.395846    0.364386
 H   -3.726800    2.865775   -0.742772
 H   -2.750508   -0.325824   -2.296641
 H   -4.080304    0.822382   -2.066725
 H   -4.492911   -1.322270   -0.858558
 H   -4.400858    0.058544    0.250644
 H   -2.652862    0.109021    1.968759
 H   -0.643190   -0.955266    2.960370
 H    0.433772   -2.861736    1.827478
 H    0.257849   -4.367306   -0.140080
 H   -2.482107   -2.657015   -1.141970
 H   -0.627807   -0.047274   -1.098999
