37 
2ohr_ligand_dft.xyz
 N   -3.406532   -1.922969   -1.636775
 C   -3.334754   -1.336010   -0.368521
 N   -3.945149   -1.941997    0.636552
 C   -3.900369   -1.359646    1.844491
 C   -3.229511   -0.176130    2.087294
 C   -2.600772    0.472345    1.019514
 C   -2.663435   -0.094494   -0.244235
 N   -2.095230    0.448655   -1.405181
 C   -1.579373    1.803054   -1.371899
 C   -0.238613    1.918292   -0.669676
 C    0.131838    3.121225   -0.068937
 C    1.370244    3.243122    0.553127
 C    2.244846    2.163598    0.586744
 C    1.886478    0.946861   -0.002591
 C    0.641138    0.840382   -0.628005
 C    2.807632   -0.213762    0.035877
 C    3.547284   -0.533917    1.176189
 C    4.392743   -1.635070    1.151634
 C    4.469620   -2.388450   -0.015547
 N    3.777822   -2.102867   -1.120618
 C    2.975777   -1.040160   -1.081473
 H   -3.831982   -2.840798   -1.578295
 H   -2.506808   -1.966402   -2.104558
 H   -4.415520   -1.886601    2.643639
 H   -3.196648    0.246710    3.085563
 H   -2.071646    1.405209    1.182713
 H   -2.688184    0.272972   -2.208888
 H   -2.291773    2.504469   -0.905642
 H   -1.459180    2.123500   -2.412917
 H   -0.553191    3.965994   -0.083982
 H    1.655081    4.184552    1.013378
 H    3.218343    2.268767    1.057543
 H    0.327769   -0.104016   -1.062757
 H    3.442712    0.063005    2.078173
 H    4.974787   -1.913515    2.024065
 H    5.115647   -3.262074   -0.067922
 H    2.439578   -0.814957   -2.001878
