41 
2ohs_ligand_xtb.xyz
 C    4.665393   -2.812943   -0.979154
 O    3.571871   -1.955956   -1.208241
 C    3.356429   -0.938697   -0.334769
 C    4.133441   -0.651525    0.786725
 N    3.866162    0.356047    1.600028
 C    2.833278    1.131395    1.348102
 C    1.986098    0.952335    0.249909
 C    2.264179   -0.111209   -0.596907
 C    0.848381    1.849038    0.011027
 C    0.966036    3.218455    0.227091
 C   -0.115604    4.051822    0.005482
 C   -1.321438    3.529537   -0.423081
 C   -1.457185    2.163014   -0.643782
 C   -2.795166    1.630713   -1.118891
 N   -2.897451    0.203761   -1.256341
 C   -2.871586   -0.654998   -0.177310
 C   -2.977712   -0.256271    1.123076
 C   -2.998076   -1.203859    2.178051
 C   -2.888868   -2.519522    1.887351
 N   -2.771837   -2.920789    0.592613
 C   -2.775210   -2.082871   -0.494769
 N   -2.682454   -2.655744   -1.639319
 C   -0.368916    1.334790   -0.430270
 H    5.614730   -2.269294   -1.011667
 H    4.575211   -3.330173   -0.018979
 H    4.639490   -3.543020   -1.786358
 H    5.000826   -1.237489    1.055394
 H    2.658150    1.924044    2.062628
 H    1.666067   -0.306804   -1.473919
 H    1.910284    3.631057    0.549409
 H   -0.017643    5.115044    0.168580
 H   -2.166832    4.181752   -0.589982
 H   -3.019189    2.070053   -2.097390
 H   -3.577534    1.967468   -0.429342
 H   -2.478037   -0.171164   -2.096055
 H   -3.035683    0.790670    1.375252
 H   -3.086777   -0.868188    3.197048
 H   -2.885402   -3.297724    2.633394
 H   -2.702444   -3.900779    0.358318
 H   -2.711890   -2.034690   -2.439360
 H   -0.460084    0.268741   -0.577210
