35 
2ojg_ligand_xtb.xyz
 C   -5.217565    1.595744   -0.293090
 N   -4.291641    0.508161   -0.079704
 C   -4.907419   -0.718866    0.353702
 C   -2.973491    0.745500   -0.272828
 O   -2.565563    1.850538   -0.611118
 C   -1.974711   -0.330423   -0.079171
 C   -0.633922   -0.087971   -0.132165
 C    0.019568   -1.345880    0.069971
 C   -1.104750   -2.299095    0.213578
 N   -2.234666   -1.709708    0.141838
 C    1.331518   -1.702823    0.117351
 N    1.694291   -3.055924    0.043489
 N    2.923148   -3.133686   -0.199278
 C    3.508850   -1.878357   -0.230053
 C    2.562498   -0.917164   -0.033570
 C    2.712596    0.518185    0.062383
 C    1.998315    1.245132    1.017761
 C    2.166565    2.612048    1.121190
 C    3.041114    3.273371    0.273537
 C    3.760455    2.558432   -0.671889
 C    3.605642    1.190115   -0.774276
 H   -4.652918    2.479548   -0.582962
 H   -5.924467    1.338008   -1.084918
 H   -5.774732    1.800637    0.623784
 H   -4.165232   -1.504546    0.456644
 H   -5.408446   -0.559822    1.313217
 H   -5.659630   -1.026586   -0.377351
 H   -0.175913    0.862641   -0.312877
 H   -0.997581   -3.354061    0.380317
 H    4.565410   -1.789122   -0.386964
 H    1.334537    0.727925    1.695356
 H    1.611830    3.164077    1.865018
 H    3.164142    4.343046    0.351566
 H    4.443188    3.072004   -1.332414
 H    4.154822    0.632359   -1.518473
