42 
2ok1_ligand_dft.xyz
 C    5.939055   -0.479487    0.003467
 C    5.775978   -1.365634    1.062492
 C    4.609708   -1.300643    1.819000
 C    3.623515   -0.368551    1.519359
 C    3.791436    0.514330    0.446462
 C    4.963159    0.457206   -0.313198
 C    2.771439    1.527545    0.138349
Cl    7.395518   -0.546801   -0.956781
 C    2.938689    2.856731   -0.025266
 N    1.692977    3.503679   -0.259317
 N    0.759096    2.651463   -0.245884
 C    1.328855    1.356849   -0.031898
 C    0.531213    0.270618   -0.123360
 C    0.887798   -1.176937   -0.113907
 N   -0.144704   -1.922801   -0.265334
 C   -1.264925   -1.033270   -0.385087
 C   -0.913450    0.267035   -0.316997
 C   -2.637991   -1.617689   -0.469462
 O   -2.941288   -2.615090    0.163882
 N   -3.493391   -0.933216   -1.275092
 C   -4.910305   -1.254966   -1.344970
 C   -5.752658   -0.385802   -0.435722
 C   -5.639574   -0.519423    0.951582
 C   -6.387349    0.290425    1.797667
 C   -7.258896    1.241611    1.268575
 C   -7.378528    1.377582   -0.110091
 C   -6.625785    0.566529   -0.957335
 H    6.548948   -2.091433    1.288956
 H    4.473909   -1.981951    2.652659
 H    2.724136   -0.313522    2.125199
 H    5.102658    1.128256   -1.153918
 H    3.843119    3.447454    0.028321
 H    1.889201   -1.581970   -0.031518
 H   -1.535820    1.149646   -0.341922
 H   -3.168391   -0.090392   -1.723908
 H   -4.998802   -2.306941   -1.062897
 H   -5.237736   -1.154874   -2.384557
 H   -4.962809   -1.266227    1.358809
 H   -6.294748    0.177108    2.873819
 H   -7.844139    1.872354    1.931131
 H   -8.056711    2.115157   -0.529099
 H   -6.722483    0.675431   -2.035427
