17 
2ooz_ligand_dft.xyz
 O    3.639434   -0.368393    0.000139
 C    2.304188   -0.121741   -0.000103
 C    1.448367   -1.227912   -0.000078
 C    0.078402   -1.040172   -0.000067
 C   -0.472576    0.250251   -0.000071
 C    0.394450    1.343578    0.000050
 C    1.773648    1.167070    0.000031
 C   -1.919968    0.481620   -0.000139
 N   -2.751028   -0.487137    0.000190
 O   -4.059208   -0.021181    0.000019
 H    4.118273    0.469083    0.000008
 H    1.880296   -2.223024   -0.000123
 H   -0.587542   -1.896776   -0.000164
 H   -0.011169    2.352193    0.000094
 H    2.433382    2.031922    0.000128
 H   -2.281301    1.513141   -0.000609
 H   -4.575613   -0.836157    0.000322
