28 
2op3_ligand_xtb.xyz
 C   -2.779876   -1.285937   -1.159347
 C    1.577899    3.240551   -0.441549
 C    2.329832    1.934094   -0.347356
 C   -2.486128    0.401533    0.531992
 C   -1.150510    0.036607    0.646648
 C    3.474307   -2.093500    0.248596
 C    3.148185   -0.766890    0.021013
 C    1.818998   -0.386652   -0.115920
 C    0.810611   -1.359782   -0.016133
 O    1.399975    0.881494   -0.387055
 C    2.486158   -3.056883    0.331547
 F   -2.984244    1.381558    1.298425
 F   -0.396786    0.662473    1.563134
 C   -3.295168   -0.265829   -0.379987
 F   -4.585533    0.079050   -0.499418
 C   -1.448591   -1.633142   -1.033824
 C   -0.607369   -0.977641   -0.139276
 C    1.160471   -2.686086    0.194563
 O    2.091965    4.306058   -0.611780
 H   -3.429396   -1.790774   -1.855884
 H    0.487205    3.114653   -0.325896
 H    2.885227    1.937797    0.602920
 H    3.055517    1.868853   -1.170718
 H    4.512186   -2.369570    0.356648
 H    3.939161   -0.037633   -0.053464
 H    2.744098   -4.089634    0.506044
 H   -1.040511   -2.419639   -1.648875
 H    0.377137   -3.424863    0.274833
