29 
2ork_ligand_dft.xyz
 C    0.196439   -0.268357    0.257761
 C   -0.750240   -1.456547    0.068764
 C   -2.168534   -1.143730    0.544084
 C   -2.695036    0.147363   -0.086457
 C   -1.750713    1.298354    0.204807
 C   -0.369912    1.004458   -0.360781
 P    2.831142   -0.104892    0.216555
 O    1.417049   -0.630380   -0.393971
 O   -0.867421   -1.796343   -1.301510
 O   -3.047815   -2.211422    0.262984
 O   -3.955245    0.492129    0.446258
 O   -2.173074    2.506583   -0.392269
 O    0.501762    2.089661   -0.071660
 O    3.060029    1.297171   -0.484844
 O    2.894522   -0.197192    1.685635
 O    3.872044   -1.020327   -0.578830
 H    0.383194   -0.108747    1.326612
 H   -0.355232   -2.308074    0.639265
 H   -2.167915   -1.019252    1.633071
 H   -2.760353    0.010548   -1.176755
 H   -1.669675    1.424391    1.297127
 H   -0.449372    0.866033   -1.446817
 H    0.026254   -1.953787   -1.635754
 H   -2.818132   -2.513024   -0.629290
 H   -4.502255   -0.303711    0.386994
 H   -3.087488    2.653042   -0.114879
 H    0.014276    2.897894   -0.291037
 H    2.233382    1.828433   -0.418929
 H    4.299348   -1.628637    0.038659
