24 
2os9_ligand_dft.xyz
 C   -1.302530   -0.635406   -0.516712
 C   -0.122312   -1.554932   -0.181294
 C    1.190412   -0.852476   -0.527277
 C    1.281885    0.491107    0.181325
 C    0.116412    1.408203   -0.179070
 C   -1.207508    0.737660    0.155039
 O   -2.514498   -1.216850   -0.035155
 O   -0.138549   -1.887881    1.185041
 O    2.339024   -1.577120   -0.137984
 O    2.460446    1.181589   -0.187368
 O    0.215513    2.612088    0.539731
 O   -2.263886    1.553622   -0.290826
 H   -1.359913   -0.474987   -1.602517
 H   -0.207603   -2.472151   -0.797075
 H    1.201940   -0.669658   -1.615452
 H    1.264254    0.308952    1.264659
 H    0.144791    1.602365   -1.265372
 H   -1.252038    0.596720    1.245336
 H   -2.805570   -1.887749   -0.663944
 H   -1.072970   -2.013839    1.408978
 H    2.309290   -2.453249   -0.539086
 H    3.198785    0.593443    0.018636
 H    1.132742    2.901223    0.434482
 H   -3.076251    1.080414   -0.068219
