15 
2osf_ligand_xtb.xyz
 C    1.145667    1.065668   -0.000361
 C   -0.235652    0.947153   -0.001417
 O   -0.974035    2.080932   -0.002345
 S   -2.591204   -0.458545    0.003269
 C   -0.811746   -0.328257   -0.001454
 C   -0.004147   -1.451829   -0.003830
 C    1.372580   -1.327428   -0.003348
 C    1.953074   -0.064543    0.000056
 O    3.299414    0.113765    0.004277
 H    1.591225    2.045752    0.000702
 H   -1.916259    1.866623   -0.005447
 H   -2.623742   -1.785520    0.002585
 H   -0.449374   -2.436203   -0.005569
 H    1.991850   -2.213495   -0.005404
 H    3.743881   -0.742605    0.007493
