48 
2ou7_ligand_dft.xyz
 P   -0.421145   -2.104032   -0.229486
 O    0.155297   -3.303836   -1.107259
 O    0.097662   -0.746364   -0.489843
 O   -0.250638   -2.560698    1.293176
 P   -3.349394   -1.433245   -0.089626
 O   -4.426400   -1.145661   -1.057680
 O   -3.838349   -2.184520    1.237374
 N   -2.055061   -2.335555   -0.588279
 P   -2.745310    1.354394   -0.271925
 O   -4.290038    1.720564   -0.194051
 O   -2.131198    1.379265   -1.610497
 O   -2.643007   -0.098778    0.483652
 O   -2.160996    2.304542    0.846591
 C   -0.872904    2.046434    1.441195
 C    0.213876    2.877528    0.772324
 O    1.394813    2.750990    1.585964
 C    0.614628    2.420973   -0.645332
 O    0.009327    3.178477   -1.658025
 C    2.123003    2.680193   -0.640717
 O    2.383839    4.051091   -0.808499
 C    2.474822    2.328599    0.802737
 N    2.616468    0.860095    0.975049
 C    1.972308    0.130349    1.931883
 N    2.098469   -1.168473    1.799654
 C    2.883362   -1.305824    0.671755
 C    3.256729   -2.407086   -0.102294
 N    2.747329   -3.680562    0.135300
 N    4.023289   -2.233499   -1.173045
 C    4.363574   -0.978270   -1.506605
 N    3.995147    0.154108   -0.919487
 C    3.236522   -0.058766    0.155858
 H    1.050404   -3.569259   -0.785140
 H    0.511949   -2.077028    1.702640
 H   -4.739351   -1.918511    1.470961
 H   -2.272891   -3.190337   -1.088184
 H   -4.777440    1.183306   -0.843926
 H   -0.975090    2.329020    2.490577
 H   -0.637161    0.980214    1.372778
 H   -0.078829    3.931559    0.745628
 H    0.421993    1.351276   -0.776035
 H   -0.776469    2.680460   -1.944895
 H    2.666311    2.071140   -1.368681
 H    1.739395    4.356199   -1.465644
 H    3.383441    2.820900    1.152060
 H    1.408595    0.618858    2.711651
 H    3.310111   -4.408229   -0.291900
 H    2.519881   -3.871884    1.104857
 H    5.005373   -0.882598   -2.377561
