52 
2ov4_ligand_dft.xyz
 N   -1.331408    3.583447   -0.810608
 C   -0.127597    3.362266   -0.243118
 N    0.115474    3.893361    0.966129
 C    1.266798    3.614525    1.578331
 N    2.260961    2.832190    1.155716
 C    2.011224    2.351722   -0.070559
 N    2.769427    1.450402   -0.779839
 C    2.088444    1.186206   -1.921931
 N    0.960966    1.857622   -2.016291
 C    0.890700    2.597482   -0.848593
 P    0.517739   -2.605861   -0.359189
 O    0.608758   -4.017256   -0.740101
 O    0.120536   -2.192870    1.101885
 O   -0.546060   -1.821516   -1.349306
 P   -1.235376   -0.390656   -1.243048
 O   -1.030137    0.321219   -2.612419
 O   -0.882271    0.376520   -0.023700
 O   -2.797116   -0.831054   -1.271535
 P   -3.977784    0.147412   -0.746168
 O   -5.273997   -0.492389   -1.397537
 O   -3.735146    1.574667   -0.992400
 O   -4.196404   -0.310216    0.771218
 P   -3.143761   -0.712220    1.957834
 O   -2.466260   -1.995445    1.653922
 O   -4.101758   -0.732432    3.216679
 O   -2.269003    0.559416    2.211037
 C    3.922626    0.721953   -0.244397
 O    4.269743   -0.284630   -1.143892
 C    4.252542   -1.568621   -0.499569
 C    3.071196   -2.388287   -0.982629
 O    1.856151   -1.750045   -0.558829
 C    4.290505   -1.279906    1.002775
 O    5.633666   -1.127171    1.385945
 C    3.559195    0.060097    1.106811
 O    4.022395    0.776361    2.214701
 H   -2.041632    3.944701   -0.189248
 H   -1.675442    2.930670   -1.500749
 H    1.398919    4.065591    2.558103
 H    2.453906    0.474577   -2.645761
 H   -0.844952   -2.235361    1.337269
 H   -0.264059    1.014580   -2.550531
 H   -5.569455    0.021837   -2.162131
 H   -4.319301   -1.637524    3.479264
 H   -1.608733    0.669434    1.475187
 H    4.749497    1.428409   -0.118636
 H    5.168742   -2.090219   -0.792225
 H    3.078830   -2.441921   -2.075203
 H    3.124949   -3.404209   -0.581743
 H    3.788064   -2.064661    1.584780
 H    5.634240   -0.467496    2.096979
 H    2.477408   -0.109419    1.148098
 H    3.550226    1.631861    2.201296
