53 
2ovv_ligand_xtb.xyz
 C   -4.648482    1.756923    0.300629
 C   -1.297218    0.300378   -0.315352
 C   -2.720914    0.350496   -0.213638
 C   -1.219278    2.561905   -0.066876
 C    3.758606   -1.322685    0.335304
 C    0.321156   -2.360307    1.138946
 C    0.811730   -0.843505   -0.666481
 C   -0.931723   -2.068370    0.287761
 C    6.274178   -0.137401   -0.065935
 C   -5.450274   -2.798575   -0.950117
 O   -5.886871   -1.537493   -0.511271
 C   -4.955340   -0.569950   -0.294893
 C   -5.489191    0.689297    0.126693
 O   -6.832920    0.710495    0.291075
 C   -7.434247    1.920215    0.685170
 C   -3.603080   -0.722606   -0.454229
 C   -3.260353    1.620981    0.106296
 N   -2.483033    2.723454    0.200403
 N   -0.582978    1.418082   -0.306346
 N   -0.622721   -0.876288   -0.484126
 C    1.386687   -1.356103    0.667455
 O    2.611987   -2.035803    0.534444
 C    4.927064   -2.115029    0.245629
 C    6.145167   -1.538664    0.050873
 C    7.517899    0.491551   -0.270100
 C    5.104025    0.658720    0.025004
 C    3.851284    0.041184    0.226210
 C    5.224949    2.058634   -0.094848
 C    6.446075    2.640515   -0.293658
 C    7.602945    1.851931   -0.381599
 H   -5.007628    2.736723    0.566079
 H   -0.596516    3.448384   -0.060623
 H    0.116598   -2.250599    2.201794
 H    0.695446   -3.367599    0.962518
 H    1.085850   -1.546063   -1.461099
 H    1.126638    0.161954   -0.931966
 H   -1.807778   -1.902773    0.914048
 H   -1.130697   -2.901426   -0.395157
 H   -4.782230   -3.270827   -0.221461
 H   -6.351290   -3.400607   -1.054392
 H   -4.943196   -2.735694   -1.918768
 H   -7.050452    2.261641    1.651683
 H   -7.281789    2.705216   -0.062087
 H   -8.497754    1.704585    0.772624
 H   -3.200948   -1.652982   -0.817238
 H    1.483733   -0.527869    1.381331
 H    4.815004   -3.184111    0.337712
 H    7.032868   -2.150938   -0.016857
 H    8.404805   -0.122608   -0.337494
 H    2.982300    0.677470    0.287982
 H    4.332347    2.664312   -0.027789
 H    6.528762    3.713788   -0.385149
 H    8.559497    2.328474   -0.538663
