43 
2ow1_ligand_dft.xyz
 C    6.044537   -0.074356   -0.885900
 C    6.994495    0.932257   -1.033433
 C    7.334957    1.740180    0.049249
 C    6.726631    1.543347    1.286354
 C    5.772358    0.542099    1.447137
 C    5.447497   -0.250097    0.355216
 O    4.535051   -1.290710    0.530088
 C    3.247779   -1.106224    0.194966
 C    2.725756    0.112015   -0.263652
 C    1.380599    0.199459   -0.580743
 C    2.420574   -2.232049    0.330036
 C    1.079439   -2.145258    0.016058
 C    0.564517   -0.924055   -0.434037
 S   -1.139875   -0.815637   -0.820632
 O   -1.697897   -2.138565   -1.028850
 O   -1.345445    0.260318   -1.796124
 C   -1.839896   -0.200062    0.774906
 C   -3.315875    0.238778    0.819433
 C   -4.317615   -0.740353    0.154891
 F   -5.560730   -0.338238    0.462635
 F   -4.183637   -0.758735   -1.155239
 F   -4.150015   -1.964144    0.658567
 N   -3.736557    0.309685    2.268242
 C   -3.604671    1.718279    0.352773
 O   -4.166014    2.454364    1.159224
 N   -3.253096    2.030942   -0.886525
 O   -3.297556    3.351939   -1.256327
 H    5.773550   -0.723887   -1.711968
 H    7.474465    1.078883   -1.995526
 H    8.081552    2.518551   -0.069283
 H    6.998558    2.165856    2.132754
 H    5.293773    0.362385    2.404152
 H    3.373015    0.972622   -0.382622
 H    0.972337    1.128553   -0.966045
 H    2.860678   -3.162842    0.669123
 H    0.438001   -3.017469    0.089105
 H   -1.687526   -1.040150    1.459213
 H   -1.206665    0.636357    1.087582
 H   -2.937552    0.328442    2.906723
 H   -4.225102    1.257610    2.311260
 H   -4.362122   -0.449664    2.551975
 H   -2.639290    1.441152   -1.461468
 H   -4.184265    3.496913   -1.624163
