28 
2ow6_ligand_dft.xyz
 O   -1.516836    2.058799   -0.838255
 C   -1.010945    0.755535   -0.769978
 C    0.006273    0.608803    0.387118
 C    1.381437    1.251603    0.184221
 O    2.123655    1.215273    1.392433
 C    2.271387    0.615926   -0.876717
 C    2.496133   -0.872612   -0.621723
 C    1.180081   -1.629018   -0.710588
 S    0.000001   -1.183478    0.808536
 C   -1.507786   -1.609112   -0.126956
 C   -2.144384   -0.262494   -0.507737
 O   -2.975318    0.245165    0.511819
 H   -2.256324    2.062410   -0.205734
 H   -0.524974    0.542845   -1.728069
 H   -0.451389    1.069556    1.269152
 H    1.167109    2.292720   -0.104940
 H    1.602070    1.634955    2.087298
 H    3.220906    1.160248   -0.874441
 H    1.817745    0.762125   -1.865446
 H    3.209333   -1.268977   -1.355036
 H    2.952246   -1.006778    0.366658
 H    1.322849   -2.711067   -0.607633
 H    0.708925   -1.442420   -1.684077
 H   -2.164266   -2.179647    0.531564
 H   -1.235795   -2.197170   -1.005037
 H   -2.765960   -0.371586   -1.401135
 H   -2.521156    0.005390    1.355839
 H   -1.166514   -0.722641    2.010645
