45 
2oyk_ligand_dft.xyz
 O   -0.302484    2.303873   -0.100401
 C   -1.196149    1.272031   -0.464400
 C   -2.562913    1.486497    0.156408
 O   -3.054091    2.704779   -0.347304
 C   -3.479048    0.308833   -0.140812
 O   -4.667600    0.563596    0.561776
 C   -2.792904   -0.994436    0.308172
 C   -3.540857   -2.239083   -0.153202
 O   -4.870100   -2.140572    0.325332
 O   -1.493157   -1.111137   -0.265438
 C   -0.636933   -0.048192    0.043999
 O    0.577630   -0.298834   -0.598813
 C    1.659643   -0.713682    0.206257
 C    2.608456   -1.398253   -0.793941
 O    3.666238   -2.095096   -0.152493
 C    3.207029   -0.377496   -1.757058
 N    3.780281    0.796609   -1.019511
 C    2.766429    1.499573   -0.154071
 C    2.285969    0.512833    0.906719
 C    3.386531    0.211836    1.938322
 O    4.647991   -0.106121    1.352621
 H   -0.809396    3.127528   -0.161931
 H   -1.295768    1.202561   -1.557184
 H   -2.443534    1.546121    1.252050
 H   -3.946595    2.820960    0.007524
 H   -3.651835    0.258904   -1.228920
 H   -5.219227   -0.232210    0.491209
 H   -2.727021   -0.987388    1.407898
 H   -3.038001   -3.132849    0.237726
 H   -3.507184   -2.274227   -1.251232
 H   -5.385262   -2.880588   -0.014489
 H   -0.489531    0.016070    1.137243
 H    1.336464   -1.453700    0.951904
 H    2.007599   -2.084890   -1.398756
 H    3.377061   -2.990559    0.061038
 H    4.007519   -0.830672   -2.343804
 H    2.426891    0.006136   -2.416650
 H    4.202668    1.448914   -1.682808
 H    4.509627    0.476635   -0.344381
 H    1.936572    1.840504   -0.775709
 H    3.269500    2.360071    0.292531
 H    1.475406    1.021189    1.441117
 H    3.066078   -0.586352    2.618561
 H    3.556287    1.108112    2.539887
 H    4.612773   -1.043216    1.093159
