46 
2oym_ligand_dft.xyz
 O    0.247892    0.577109    0.925863
 C   -0.412066   -0.270608    0.292719
 C   -1.868196   -0.190677    0.171379
 C   -2.682063   -1.276224   -0.185468
 C   -4.050983   -1.145581   -0.286630
 C   -4.684640    0.097703   -0.035772
 N   -6.034521    0.238498   -0.149115
 C   -6.856873   -0.894414   -0.534260
 C   -6.666147    1.505198    0.176560
 C   -3.858628    1.185057    0.345411
 C   -2.493211    1.033934    0.448635
 N    0.243171   -1.291298   -0.339028
 C    1.590742   -1.680210    0.034106
 C    2.690664   -0.883419   -0.680375
 N    2.593233    0.574834   -0.288683
 C    3.815792    0.983011    0.486548
 C    4.692126    1.860250   -0.406383
 O    3.810828    2.786949   -1.008777
 C    4.453129   -0.349683    0.899143
 O    3.834216   -0.898455    2.036470
 C    4.109182   -1.298129   -0.267494
 O    4.942434   -1.100503   -1.385442
 H   -2.258216   -2.264302   -0.347845
 H   -4.637369   -2.018318   -0.544123
 H   -7.893918   -0.571780   -0.623685
 H   -6.814593   -1.699612    0.210362
 H   -6.547829   -1.298205   -1.505645
 H   -7.743839    1.411285    0.045859
 H   -6.475283    1.794113    1.217445
 H   -6.315300    2.309201   -0.481710
 H   -4.292839    2.153111    0.560399
 H   -1.878997    1.877299    0.746339
 H   -0.289359   -1.919718   -0.919640
 H    1.724672   -2.735584   -0.215471
 H    1.719277   -1.574808    1.115776
 H    2.581770   -0.959311   -1.763513
 H    2.517492    1.211214   -1.090938
 H    1.703880    0.695965    0.289815
 H    3.473561    1.559869    1.349204
 H    5.444590    2.353644    0.221683
 H    5.201099    1.242131   -1.154659
 H    4.289881    3.311127   -1.661362
 H    5.539915   -0.253301    1.024194
 H    4.060766   -0.380747    2.818804
 H    4.133202   -2.335255    0.086180
 H    5.788331   -1.540289   -1.233327
