46 
2oym_ligand_xtb.xyz
 O    0.262338    0.707023    0.645446
 C   -0.403271   -0.249860    0.169378
 C   -1.840887   -0.184801    0.084230
 C   -2.666858   -1.278153   -0.223203
 C   -4.028515   -1.146076   -0.274222
 C   -4.663360    0.091735   -0.020527
 N   -6.004764    0.220025   -0.075194
 C   -6.839639   -0.875607   -0.510750
 C   -6.645651    1.456304    0.310615
 C   -3.827453    1.185445    0.298753
 C   -2.468656    1.045209    0.349712
 N    0.245841   -1.339754   -0.301935
 C    1.606059   -1.675271    0.077359
 C    2.676770   -0.879189   -0.685038
 N    2.567646    0.552340   -0.323774
 C    3.722561    0.965346    0.504327
 C    4.640949    1.859795   -0.338946
 O    3.805518    2.790922   -0.993453
 C    4.402561   -0.348428    0.927214
 O    3.834837   -0.903012    2.081533
 C    4.090673   -1.302673   -0.249635
 O    4.956897   -1.122322   -1.335446
 H   -2.248718   -2.259487   -0.397010
 H   -4.619458   -2.018825   -0.493921
 H   -7.857928   -0.522628   -0.648828
 H   -6.853805   -1.684075    0.226032
 H   -6.489887   -1.273198   -1.465516
 H   -7.721160    1.308959    0.354510
 H   -6.308936    1.775014    1.299010
 H   -6.437078    2.253552   -0.408409
 H   -4.253115    2.154049    0.496220
 H   -1.846283    1.892995    0.590922
 H   -0.307796   -2.070034   -0.717932
 H    1.753543   -2.738207   -0.110719
 H    1.749887   -1.489704    1.148148
 H    2.569675   -1.013722   -1.763687
 H    2.543769    1.182056   -1.130516
 H    1.523166    0.682178    0.231877
 H    3.352035    1.525201    1.367794
 H    5.367339    2.358551    0.311624
 H    5.177957    1.245493   -1.074171
 H    4.341291    3.457182   -1.434073
 H    5.485444   -0.211124    1.036960
 H    4.124156   -0.421161    2.864351
 H    4.099909   -2.336208    0.111416
 H    5.786506   -1.588668   -1.188008
