82 
2oz2_ligand_dft.xyz
 C    2.129637    1.375321    3.122980
 C    2.891164    0.029702    3.217660
 N    3.461524   -0.317629    1.882063
 C    3.979047   -1.709919    1.828511
 C    4.506209    0.682499    1.479599
 C    4.034008    2.106515    1.838940
 N    2.587684    2.156498    1.976727
 C    1.890933    2.043693    0.763302
 O    2.481113    1.851797   -0.294800
 N    0.539037    2.140048    0.857131
 C   -0.304399    1.392520   -0.048835
 C   -0.414242    2.034809   -1.449318
 C   -0.845848    3.476092   -1.344689
 C   -2.198018    3.795341   -1.207796
 C   -2.599993    5.119845   -1.063923
 C   -1.650887    6.138796   -1.056086
 C   -0.300504    5.827685   -1.192050
 C    0.099227    4.502089   -1.332317
 C    0.151051   -0.082640   -0.052382
 O    0.942591   -0.525235    0.793981
 N   -0.399226   -0.846581   -1.003789
 C   -0.321066   -2.307061   -1.063228
 C    1.128000   -2.813196   -1.045159
 C    2.019193   -2.113328   -2.082156
 C    3.494622   -2.184691   -1.766083
 C    4.268556   -1.020475   -1.762037
 C    5.637112   -1.073177   -1.497641
 C    6.249564   -2.290377   -1.211483
 C    5.484971   -3.456092   -1.201907
 C    4.122287   -3.401828   -1.481607
 C   -1.160845   -2.944412    0.055144
 C   -2.680275   -2.820555   -0.093435
 S   -3.333850   -1.137112    0.074502
 O   -3.180353   -0.441233   -1.213672
 O   -2.741490   -0.548793    1.278994
 C   -5.070697   -1.394715    0.341193
 C   -5.533882   -1.575394    1.642622
 C   -6.890797   -1.802340    1.841166
 C   -7.758041   -1.844438    0.750789
 C   -7.279038   -1.654980   -0.543490
 C   -5.924180   -1.426826   -0.758649
 H    1.068146    1.165946    3.009591
 H    2.277534    1.939446    4.048581
 H    3.729579    0.067935    3.918876
 H    2.220458   -0.777596    3.514733
 H    2.664883   -0.271361    1.212085
 H    4.443537   -1.874520    0.856002
 H    3.140831   -2.394645    1.961791
 H    4.712025   -1.846850    2.625836
 H    4.645631    0.561077    0.407648
 H    5.427972    0.412117    2.002128
 H    4.469432    2.434336    2.787405
 H    4.351191    2.799713    1.060969
 H    0.127764    2.493432    1.705061
 H   -1.304975    1.379178    0.398662
 H    0.551410    1.950990   -1.953178
 H   -1.156379    1.486469   -2.038342
 H   -2.940515    2.999635   -1.220846
 H   -3.654920    5.356486   -0.963223
 H   -1.963227    7.173056   -0.948697
 H    0.442989    6.619052   -1.191964
 H    1.152985    4.255299   -1.434965
 H   -1.162670   -0.436676   -1.528404
 H   -0.762110   -2.569743   -2.032423
 H    1.539205   -2.667341   -0.043963
 H    1.102885   -3.893324   -1.229824
 H    1.833733   -2.547238   -3.073153
 H    1.734406   -1.059312   -2.153043
 H    3.795158   -0.063538   -1.970025
 H    6.226201   -0.160265   -1.525482
 H    7.315794   -2.334991   -1.012234
 H    5.954941   -4.412157   -0.991900
 H    3.543083   -4.321866   -1.488575
 H   -0.944953   -4.018739    0.084047
 H   -0.847672   -2.527341    1.017722
 H   -3.038515   -3.186440   -1.061178
 H   -3.176667   -3.394583    0.694739
 H   -4.845555   -1.518882    2.479741
 H   -7.273892   -1.938704    2.847039
 H   -8.816821   -2.019598    0.912474
 H   -7.962286   -1.677188   -1.385956
 H   -5.534258   -1.256905   -1.756574
