34 
2oz6_ligand_dft.xyz
 P    3.681000    0.779825   -0.117169
 O    2.978735    2.229635   -0.077121
 O    5.056127    0.741236   -0.613428
 O    3.467124    0.284682    1.388380
 C    2.174671   -0.041139    1.937775
 C    1.535529   -0.994164    0.949248
 O    0.213515   -1.373233    1.257860
 C    1.391917   -0.309255   -0.400144
 O    2.667050   -0.125012   -1.007604
 C    0.488662   -1.288633   -1.132825
 O    1.205372   -2.405569   -1.599382
 C   -0.406295   -1.780643    0.039914
 N   -1.759724   -1.295660    0.020145
 C   -2.891795   -2.049324    0.259715
 N   -3.996428   -1.361319    0.283167
 C   -3.575761   -0.063317    0.059701
 C   -4.271784    1.157432   -0.030747
 N   -5.611865    1.228714    0.087799
 N   -3.577997    2.283298   -0.252919
 C   -2.250154    2.192722   -0.386926
 N   -1.477282    1.110625   -0.327250
 C   -2.197698    0.006881   -0.096724
 H    3.350365    2.810903   -0.754137
 H    2.366823   -0.493628    2.910573
 H    1.577402    0.867759    2.063193
 H    2.183673   -1.875377    0.838449
 H    0.867891    0.646076   -0.292285
 H   -0.103853   -0.819502   -1.926220
 H    2.019752   -2.075572   -2.005285
 H   -0.455645   -2.873351   -0.012129
 H   -2.817312   -3.119662    0.404468
 H   -6.051612    2.134612    0.097455
 H   -6.139723    0.409561    0.340657
 H   -1.736818    3.133921   -0.567349
