47 
2p0x_ligand_dft.xyz
 P    4.262672   -0.649054   -0.447100
 O    3.619704   -0.295677   -1.736537
 O    5.815677   -0.346947   -0.360506
 O    4.166010   -2.137298    0.037353
 P    2.200232    0.278030    1.397830
 O    1.904024   -0.729802    2.417805
 O    2.050064    1.806247    1.751793
 O    3.692241    0.264477    0.779470
 P    0.791895   -1.155437   -0.734555
 O    1.514179   -2.381563   -0.317796
 O    0.940196   -0.692249   -2.233626
 O    1.264613    0.168924    0.064474
 O   -0.773345   -1.186536   -0.499032
 C   -1.420633   -2.416566   -0.120743
 C   -2.856384   -2.122618    0.254933
 O   -2.935340   -1.397444    1.494757
 C   -3.665425   -1.312245   -0.789706
 O   -4.484024   -2.110468   -1.594786
 C   -4.466424   -0.344771    0.101485
 O   -5.650240   -0.980502    0.555870
 C   -3.521102   -0.134036    1.282993
 N   -2.489226    0.881070    1.083244
 C   -1.496358    1.084664    2.003374
 N   -0.579353    1.924390    1.604402
 C   -0.966286    2.282738    0.324841
 C   -0.350371    3.053050   -0.681501
 N    0.849443    3.654758   -0.520527
 N   -0.992155    3.204176   -1.847819
 C   -2.163526    2.584606   -2.017040
 N   -2.809468    1.782496   -1.173618
 C   -2.154998    1.652591   -0.017307
 H    6.103695    0.188827   -1.111741
 H    3.226965   -2.459206   -0.019668
 H    1.070931    1.972517    1.958239
 H    1.895331   -0.488097   -2.384092
 H   -0.885635   -2.866663    0.718202
 H   -1.410815   -3.104900   -0.971333
 H   -3.344239   -3.092492    0.410845
 H   -2.996832   -0.744121   -1.439770
 H   -5.339357   -2.155175   -1.137890
 H   -4.760078    0.565387   -0.416215
 H   -5.403444   -1.641843    1.218863
 H   -4.068142    0.126943    2.192258
 H   -1.488324    0.563995    2.950795
 H    1.484847    3.305354    0.184504
 H    1.260993    4.037679   -1.358885
 H   -2.643587    2.746719   -2.978400
