61 
2p15_ligand_xtb.xyz
 C   -0.951751   -2.126432    2.153303
 C   -0.293611   -1.161084    1.163836
 C   -0.539075    0.280469    1.601016
 C   -2.019156    0.654090    1.461075
 C   -2.573327    0.373639    0.055547
 C   -4.050512    0.687587   -0.074716
 C   -4.623068    1.745008    0.623053
 C   -5.962848    2.061298    0.504920
 C   -6.774720    1.315624   -0.337303
 O   -8.103545    1.576973   -0.493797
 C   -6.214500    0.269322   -1.053883
 C   -4.869154   -0.047746   -0.935758
 C   -4.357031   -1.209307   -1.744228
 C   -2.836322   -1.269581   -1.790487
 C   -2.292822   -1.075231   -0.378937
 C   -0.792928   -1.317147   -0.279569
 C   -0.228517   -2.669290   -0.722305
 C    1.109640   -2.791542    0.031281
 C    1.197640   -1.584558    1.010116
 O    1.728666   -1.951269    2.265337
 C    2.034714   -0.501186    0.382381
 C    2.863284    0.272311    1.071979
 C    3.719455    1.304160    0.478519
 C    3.567604    2.629685    0.881311
 C    4.329697    3.637702    0.324582
 C    5.276792    3.340467   -0.642519
 C    5.466536    2.029674   -1.036714
 C    4.697118    1.015276   -0.478694
 C    4.963814   -0.401397   -0.903849
 F    4.080075   -0.857299   -1.816368
 F    4.930602   -1.283315    0.112936
 F    6.171755   -0.549380   -1.470788
 H   -0.850904   -3.155488    1.825766
 H   -2.005756   -1.907855    2.284972
 H   -0.455915   -2.030273    3.115223
 H   -0.223827    0.418680    2.636739
 H    0.055414    0.952962    0.977188
 H   -2.618394    0.117176    2.197276
 H   -2.106653    1.718337    1.683532
 H   -2.035938    1.032308   -0.643130
 H   -4.018444    2.350671    1.278986
 H   -6.376901    2.888943    1.066162
 H   -8.351367    2.327843    0.058582
 H   -6.850174   -0.300371   -1.714353
 H   -4.739370   -2.131716   -1.294169
 H   -4.766909   -1.153347   -2.755343
 H   -2.448735   -0.485285   -2.444436
 H   -2.519296   -2.231741   -2.195057
 H   -2.823285   -1.762956    0.284787
 H   -0.306103   -0.540806   -0.881074
 H   -0.081119   -2.709422   -1.800783
 H   -0.908046   -3.476000   -0.447375
 H    1.154415   -3.711957    0.613535
 H    1.958277   -2.790551   -0.652864
 H    2.647232   -2.211925    2.133102
 H    1.945479   -0.394016   -0.688459
 H    2.898137    0.191664    2.151380
 H    2.825969    2.858683    1.631952
 H    4.186603    4.658889    0.644456
 H    5.873517    4.124281   -1.081995
 H    6.217525    1.786738   -1.772696
