39 
2p2a_ligand_xtb.xyz
 C    2.418080    0.082305   -0.097268
 C    2.161944   -1.243203    0.060133
 O    3.189762   -1.894048    0.637269
 N    4.146533   -0.931574    0.883759
 C    3.766604    0.312806    0.446800
 C    0.965666   -1.971448   -0.280842
 N    0.844723   -3.281854   -0.526830
 N   -0.389041   -3.492711   -0.798727
 N   -1.024161   -2.362366   -0.725093
 N   -0.222264   -1.362174   -0.399079
 C   -2.431050   -2.194470   -0.981414
 C   -3.801025    1.193010    1.258396
 C   -3.584531    1.309999   -0.106733
 C   -3.153074    0.211985   -0.836586
 C   -2.939456   -1.008034   -0.206033
 C   -3.156993   -1.118363    1.163288
 C   -3.588396   -0.022216    1.891290
 O    4.395187    1.335183    0.536230
 C    1.640497    1.163106   -0.767568
 C    0.734726    1.929115    0.204949
 C    0.094012    3.145095   -0.491220
 O    0.964364    4.005146   -0.935000
 O   -1.105819    3.213643   -0.579892
 N   -0.402565    1.092123    0.660013
 H    5.035064   -1.258443    1.230037
 H   -2.922919   -3.124499   -0.687571
 H   -2.577275   -2.050012   -2.056698
 H   -4.156863    2.040687    1.822311
 H   -3.766757    2.248018   -0.606101
 H   -3.005871    0.301446   -1.902255
 H   -3.011967   -2.068542    1.655289
 H   -3.778365   -0.123066    2.948303
 H    1.042234    0.759101   -1.586184
 H    2.367030    1.875412   -1.167577
 H    1.336933    2.284132    1.045489
 H    0.560822    4.776589   -1.370736
 H   -0.384767    0.111180    0.203327
 H   -0.449851    0.989973    1.673949
 H   -1.270004    1.590410    0.328111
