50 
2p2i_ligand_xtb.xyz
 C    2.867163   -1.526484   -0.409882
 C    1.621631   -0.936020   -0.346210
 C    1.506576    0.451556   -0.358813
 C    2.661843    1.225994   -0.452008
 C    3.907105    0.636307   -0.520820
 C    4.019219   -0.750476   -0.490004
 C   -5.903832   -2.246089   -1.341684
 N   -7.045840   -2.773642   -0.939259
 C   -5.130952   -1.398716   -0.562142
 C   -5.572292   -1.081432    0.715511
 C   -6.775012   -1.638568    1.139859
 C   -7.466992   -2.471158    0.277656
 C   -2.053766    1.622234   -0.180469
 C   -1.936863    2.821239   -0.873386
 C   -2.987325    3.724493   -0.894790
 C   -4.145533    3.385010   -0.213139
 N   -4.307045    2.247179    0.426566
 C   -3.307275    1.358468    0.448651
 N   -3.514075    0.219699    1.133872
 C   -4.806559   -0.159541    1.633202
 C   -0.971446    0.612951   -0.131704
 N    0.281122    1.121579   -0.302073
 O   -1.189194   -0.576590    0.063443
 O    5.213198   -1.407596   -0.621773
 C    7.594191    0.308918    1.586176
 C    8.777702    0.033152    0.923113
 C    8.751799   -0.710148   -0.245413
 C    7.551257   -1.163628   -0.757141
 C    6.361165   -0.874510   -0.096353
 C    6.386498   -0.142866    1.086331
 H    2.964132   -2.600514   -0.403462
 H    0.736170   -1.544742   -0.280975
 H    2.584689    2.304407   -0.478643
 H    4.792313    1.248812   -0.608866
 H   -5.591280   -2.516889   -2.341921
 H   -4.206250   -0.998924   -0.948039
 H   -7.161433   -1.422366    2.124632
 H   -8.406132   -2.921797    0.571661
 H   -1.041163    3.048976   -1.436533
 H   -2.911797    4.653960   -1.434868
 H   -4.998693    4.050914   -0.191157
 H   -2.809471   -0.501747    1.016370
 H   -4.681236   -0.645407    2.607306
 H   -5.383402    0.760390    1.771073
 H    0.358553    2.126989   -0.361913
 H    7.607779    0.875924    2.505333
 H    9.716260    0.390554    1.318588
 H    9.671486   -0.935655   -0.764349
 H    7.513101   -1.746016   -1.664477
 H    5.465415    0.058798    1.613895
