130 
2p3a_ligand_xtb.xyz
 N    1.409822   -2.368219   -0.046266
 C    2.847099   -2.481224   -0.160599
 N   -1.070705   -1.255083   -0.153819
 C    3.393457   -1.432903   -1.157024
 C    3.269377   -3.903778   -0.565961
 C    4.743637   -4.079645   -0.348716
 C    5.645349   -3.882448   -1.386314
 O    3.180789   -1.804362   -2.492127
 C    7.006559   -4.001375   -1.165867
 C    7.481747   -4.319959    0.095025
 O    1.376964   -2.407426    2.210761
 C    6.588722   -4.519100    1.134442
 C    5.228469   -4.396921    0.913887
 C   -0.673627   -1.844983    1.102424
 C    0.814218   -2.225216    1.151358
 C   -1.541364   -3.065936    1.457537
 C   -4.791975   -4.481809   -1.302528
 C   -4.902499   -5.317995   -0.204722
 N   -3.078570    0.101538   -1.748641
 C   -5.769392   -5.000769    0.826710
 C   -6.528962   -3.844185    0.758708
 C   -6.427131   -3.013382   -0.342152
 O   -0.647769    0.874602    0.447176
 C   -1.665968    0.447983   -1.728587
 C   -1.062487    0.063453   -0.365514
 C   -1.494433    1.923440   -2.045964
 O   -2.548650    5.128309    1.780158
 C   -2.266810    4.075742    1.263880
 O   -3.154681    3.286266    0.594704
 C   -4.518999    3.673285    0.630191
 C   -5.417529    2.482589    0.835614
 C   -4.908288    1.208459    1.042791
 C   -5.764260    0.137401    1.238420
 C   -7.133678    0.332413    1.229909
 C   -7.647939    1.601320    1.018066
 C   -6.794884    2.670504    0.819978
 N   -1.043321    3.522370    1.181375
 C    0.117055    4.045455    1.865657
 C    0.491534    3.181882    3.067710
 C    1.292580    4.109325    0.883000
 O    2.450544    3.960534    1.239391
 N    0.919693    4.337715   -0.385586
 C    1.786487    4.379148   -1.553891
 C    2.943052    5.386019   -1.401177
 C    2.381452    6.788504   -1.180306
 C    3.824808    5.350594   -2.646353
 C    2.286514    2.967556   -1.888711
 O    1.964082    2.417985   -2.937688
 N    3.061280    2.398473   -0.966829
 C    3.711867    1.108937   -1.157327
 C    4.980377    1.055471   -0.280655
 C    4.774617    0.449055    1.085007
 C    3.936774    1.042665    2.023750
 C    3.725112    0.447010    3.254341
 C    4.361763   -0.738676    3.577030
 C    5.225134   -1.317597    2.664951
 C    5.426004   -0.729536    1.428083
 C    2.735213   -0.048203   -0.887819
 O    1.581192    0.029312   -1.709676
 C   -3.000919   -2.651574    1.625966
 C   -1.414849   -4.176273    0.416610
 C   -3.523386   -1.123088   -2.082285
 O   -2.801033   -2.082543   -2.268622
 O   -4.862373   -1.141644   -2.188749
 C   -5.443644   -2.398371   -2.558660
 C   -5.558811   -3.328250   -1.380210
 H    0.899034   -2.109845   -0.877221
 H    3.254084   -2.262285    0.833694
 H   -1.462458   -1.859333   -0.869429
 H    4.474437   -1.386143   -1.020213
 H    3.015598   -4.063643   -1.614614
 H    2.712822   -4.609909    0.052334
 H    5.273873   -3.627309   -2.367823
 H    2.322787   -1.420958   -2.744147
 H    7.699439   -3.846072   -1.980427
 H    8.544144   -4.414059    0.267028
 H    6.955619   -4.771669    2.119092
 H    4.531655   -4.546117    1.725996
 H   -0.801818   -1.079604    1.878828
 H   -1.162145   -3.437115    2.415049
 H   -4.106338   -4.722360   -2.101116
 H   -4.308978   -6.218830   -0.155384
 H   -3.751756    0.818035   -1.525035
 H   -5.853802   -5.653276    1.683358
 H   -7.204329   -3.592927    1.563376
 H   -7.017649   -2.111441   -0.406105
 H   -1.166641   -0.164508   -2.488996
 H   -0.436674    2.165481   -2.068792
 H   -1.923671    2.145928   -3.019850
 H   -1.989734    2.525155   -1.288031
 H   -4.656506    4.405042    1.437262
 H   -4.766678    4.171387   -0.317847
 H   -3.838993    1.059563    1.062033
 H   -5.359439   -0.850249    1.401437
 H   -7.802110   -0.499696    1.394915
 H   -8.716392    1.758335    1.010734
 H   -7.194216    3.661376    0.658300
 H   -0.973055    2.549502    0.871461
 H   -0.122229    5.066259    2.191366
 H   -0.283225    3.239706    3.827111
 H    0.604050    2.147822    2.748447
 H    1.433136    3.526882    3.485229
 H   -0.075102    4.386416   -0.549751
 H    1.165244    4.691717   -2.400015
 H    3.539159    5.108248   -0.528723
 H    3.194240    7.499425   -1.056894
 H    1.779955    7.099060   -2.032446
 H    1.762859    6.820357   -0.286875
 H    4.639878    6.062830   -2.546830
 H    3.245740    5.611182   -3.529867
 H    4.250128    4.361568   -2.798805
 H    3.182399    2.873224   -0.075144
 H    3.999000    1.055584   -2.217909
 H    5.350250    2.078958   -0.174387
 H    5.749276    0.487500   -0.806197
 H    3.446530    1.978880    1.806817
 H    3.059292    0.913817    3.964616
 H    4.187935   -1.205586    4.534154
 H    5.740623   -2.234546    2.906478
 H    6.100132   -1.200160    0.725457
 H    2.398967    0.003635    0.155048
 H    1.695001    0.767285   -2.342108
 H   -3.409601   -2.304334    0.678945
 H   -3.093040   -1.854998    2.361075
 H   -3.597246   -3.498384    1.956441
 H   -1.949106   -5.058481    0.760412
 H   -0.372296   -4.444152    0.263683
 H   -1.848796   -3.878061   -0.535498
 H   -4.836208   -2.853593   -3.347109
 H   -6.429793   -2.136416   -2.949064
