130 
2p3a_ligand_dft.xyz
 N    1.051752   -2.494428   -0.010665
 C    2.472731   -2.756323   -0.173357
 N   -1.373000   -1.293921    0.186869
 C    3.079693   -1.828492   -1.237656
 C    2.755724   -4.238344   -0.470112
 C    4.230501   -4.533027   -0.351710
 C    5.076690   -4.460753   -1.461563
 O    2.779696   -2.214203   -2.560841
 C    6.450262   -4.642949   -1.321740
 C    6.997728   -4.905171   -0.068198
 O    0.957428   -3.289072    2.117465
 C    6.161616   -4.987397    1.043114
 C    4.790084   -4.798589    0.900674
 C   -0.935638   -2.035060    1.351378
 C    0.451437   -2.674687    1.187331
 C   -1.979190   -3.079984    1.782223
 C   -5.894115   -2.912102   -0.477770
 C   -6.642537   -3.345924    0.609896
 N   -3.156752    0.390358   -1.389596
 C   -8.024920   -3.166552    0.623487
 C   -8.654917   -2.560863   -0.459448
 C   -7.901234   -2.120632   -1.545455
 O   -0.483455    0.683983    0.832164
 C   -1.717656    0.601602   -1.277146
 C   -1.136550    0.024477    0.027821
 C   -1.388949    2.074356   -1.444007
 O   -1.458931    5.015682    2.610152
 C   -1.337944    3.967939    2.010032
 O   -2.368091    3.173451    1.638611
 C   -3.680528    3.629159    1.973078
 C   -4.636907    2.613726    1.410717
 C   -4.749346    1.353811    2.003366
 C   -5.621399    0.404466    1.482506
 C   -6.386384    0.701920    0.357241
 C   -6.265627    1.947056   -0.252464
 C   -5.392267    2.898315    0.272629
 N   -0.180174    3.412675    1.555835
 C    1.114384    3.906938    1.972868
 C    1.738136    3.052489    3.075010
 C    2.055555    3.988870    0.761122
 O    3.276084    3.888204    0.887710
 N    1.440674    4.177403   -0.426827
 C    2.075040    4.115722   -1.742205
 C    3.270618    5.072555   -1.922476
 C    2.849390    6.512157   -1.628081
 C    3.827571    4.936490   -3.341927
 C    2.393078    2.655264   -2.098265
 O    1.825134    2.108762   -3.051062
 N    3.277931    2.027154   -1.306534
 C    3.711946    0.643259   -1.511716
 C    5.100770    0.440121   -0.854533
 C    5.104505    0.064933    0.617060
 C    4.671688    0.957463    1.604241
 C    4.643900    0.578944    2.942591
 C    5.058611   -0.693842    3.324073
 C    5.514690   -1.580727    2.355872
 C    5.537790   -1.203046    1.015724
 C    2.651543   -0.356082   -1.020320
 O    1.410651   -0.191562   -1.711596
 C   -3.289292   -2.395523    2.172199
 C   -2.197874   -4.154441    0.711952
 C   -3.676370   -0.730536   -1.934512
 O   -3.042034   -1.763852   -2.124448
 O   -4.970002   -0.566437   -2.255717
 C   -5.685539   -1.737788   -2.688660
 C   -6.517006   -2.284505   -1.559306
 H    0.597707   -1.882871   -0.675302
 H    2.954431   -2.508055    0.781863
 H   -1.884048   -1.767010   -0.555254
 H    4.159488   -1.927964   -1.136605
 H    2.385017   -4.473946   -1.471939
 H    2.192852   -4.831531    0.256284
 H    4.649277   -4.239621   -2.436419
 H    1.952294   -1.751521   -2.772165
 H    7.094283   -4.581940   -2.194631
 H    8.068378   -5.049726    0.042398
 H    6.580428   -5.197157    2.023670
 H    4.138188   -4.842300    1.770335
 H   -0.811035   -1.305403    2.157991
 H   -1.549341   -3.563737    2.665443
 H   -4.817498   -3.055108   -0.491925
 H   -6.147190   -3.828836    1.446900
 H   -3.790326    1.142969   -1.150312
 H   -8.609298   -3.504593    1.473881
 H   -9.732114   -2.424109   -0.457199
 H   -8.393237   -1.633946   -2.384208
 H   -1.247538    0.033677   -2.087579
 H   -0.305583    2.198341   -1.415248
 H   -1.752469    2.429712   -2.412151
 H   -1.839954    2.664550   -0.640817
 H   -3.766768    3.712566    3.061098
 H   -3.845934    4.622984    1.546015
 H   -4.146544    1.119026    2.876774
 H   -5.711784   -0.570662    1.950912
 H   -7.067883   -0.040148   -0.043300
 H   -6.850522    2.178359   -1.137565
 H   -5.303387    3.873739   -0.199844
 H   -0.248752    2.434219    1.256099
 H    0.959538    4.927987    2.339784
 H    1.089669    3.066353    3.955010
 H    1.854052    2.016339    2.740037
 H    2.722202    3.440933    3.345749
 H    0.430910    4.132480   -0.392505
 H    1.302056    4.405660   -2.459678
 H    4.048627    4.789419   -1.208237
 H    3.702277    7.188524   -1.742860
 H    2.065830    6.840410   -2.322730
 H    2.468431    6.619989   -0.608663
 H    4.660975    5.630862   -3.487023
 H    3.061458    5.168588   -4.091483
 H    4.196983    3.925426   -3.542317
 H    3.629852    2.546032   -0.506734
 H    3.824907    0.504801   -2.593604
 H    5.669291    1.364612   -1.012225
 H    5.629536   -0.335654   -1.415714
 H    4.357586    1.966107    1.351700
 H    4.298377    1.288128    3.689170
 H    5.030054   -0.989127    4.368546
 H    5.847744   -2.576058    2.631466
 H    5.895907   -1.917088    0.276431
 H    2.465860   -0.175285    0.044277
 H    1.496053    0.533200   -2.367354
 H   -3.729779   -1.869767    1.317689
 H   -3.131086   -1.658101    2.967454
 H   -4.018338   -3.130009    2.532033
 H   -2.912353   -4.904767    1.066947
 H   -1.262985   -4.670293    0.470026
 H   -2.601880   -3.735877   -0.218568
 H   -4.964153   -2.470150   -3.055557
 H   -6.314559   -1.400153   -3.514827
