62 
2p4y_ligand_xtb.xyz
 C   -0.451256    3.319431    1.121041
 C   -1.228093    2.246829    0.752149
 C   -0.665226    1.256770   -0.051198
 C    0.690929    1.361277   -0.444125
 C    1.484038    2.440814   -0.065580
 C    0.882588    3.407389    0.710077
 C   -1.138566    0.017692   -0.582530
 C   -0.087945   -0.561137   -1.263639
 N    1.005698    0.262093   -1.194939
 C   -2.452325   -0.545420   -0.390302
 C   -0.075410   -1.833362   -2.021700
 C    2.297682   -0.045978   -1.740526
 O    1.548613    4.565176    1.172538
 C    2.808181    4.771924    0.874074
 F    3.064155    4.865887   -0.446523
 F    3.654830    3.826247    1.328749
 F    3.200512    5.920908    1.415978
 C    3.016302   -1.148011   -0.994673
 C    2.546266   -1.623697    0.220502
 C    3.156972   -2.702734    0.851870
 C    4.302758   -3.261752    0.283796
 C    4.805116   -2.766700   -0.900037
 C    4.154757   -1.725422   -1.542945
Cl    4.774046   -1.143975   -3.053613
 O    2.724981   -3.267529    2.005041
 C    1.453061   -2.918869    2.513132
 C    1.163513   -3.852563    3.687062
 C    0.355124   -3.095160    1.455164
 O    0.471954   -3.780081    0.474325
 O   -0.720967   -2.399862    1.768548
 N   -2.618855   -1.806247   -0.077628
 O   -3.962675   -2.066603    0.057089
 C   -4.634460   -0.927716   -0.187599
 C   -3.725821    0.103015   -0.483661
 C   -6.009793   -0.745248   -0.175559
 C   -6.465869    0.526201   -0.486883
 C   -5.561837    1.564537   -0.806936
 C   -4.206206    1.372267   -0.811957
 O   -7.769968    0.884011   -0.521614
 C   -8.747860   -0.085716   -0.223980
 H   -0.842637    4.111105    1.737507
 H   -2.250786    2.171162    1.085610
 H    2.518229    2.499907   -0.361989
 H    0.346968   -1.693990   -3.015822
 H    0.516759   -2.588437   -1.504789
 H   -1.089755   -2.210906   -2.111448
 H    2.908841    0.860514   -1.732708
 H    2.188062   -0.351792   -2.787275
 H    1.679107   -1.155269    0.658892
 H    4.775948   -4.090498    0.783863
 H    5.690058   -3.198416   -1.339920
 H    1.441502   -1.873694    2.857002
 H    1.945179   -3.748964    4.434382
 H    1.146781   -4.881314    3.336824
 H    0.202927   -3.600982    4.126698
 H   -1.426456   -2.444416    1.062270
 H   -6.661010   -1.568291    0.061934
 H   -5.987737    2.523755   -1.053696
 H   -3.526468    2.168934   -1.068286
 H   -8.715047   -0.917540   -0.934148
 H   -9.704803    0.425599   -0.311059
 H   -8.633017   -0.470045    0.794075
