37 
2p53_ligand_dft.xyz
 C    0.322163   -0.492136   -1.309449
 C    1.513156    0.475465   -1.154410
 C    1.239370    1.414341    0.033255
 C   -0.103972    2.116087   -0.168823
 C   -1.166529    1.032372   -0.299782
 C   -2.579285    1.543063   -0.472575
 P    3.513738   -0.742297    0.359092
 C    5.093532   -1.422471   -0.176917
 N    2.797334   -0.211001   -1.063253
 O    0.283623   -1.367910   -0.208853
 O    2.215603    2.404748    0.207051
 O   -0.397933    2.925802    0.940184
 O   -0.873854    0.226007   -1.431313
 O   -3.519268    0.464246   -0.647678
 O    3.613522    0.349266    1.371731
 O    2.728151   -2.061198    0.846105
 P   -3.547008   -0.827281    0.261291
 O   -2.440947   -1.814401    0.185762
 O   -3.758681   -0.203967    1.722788
 O   -4.957044   -1.458338   -0.144930
 H    0.401998   -1.057375   -2.247185
 H    1.535115    1.091937   -2.061495
 H    1.147137    0.817192    0.950178
 H   -0.070946    2.709027   -1.098349
 H   -1.124258    0.429821    0.616546
 H   -2.670998    2.139442   -1.381556
 H   -2.869043    2.139260    0.395523
 H    4.964136   -2.174937   -0.959445
 H    5.570842   -1.897562    0.684005
 H    5.734204   -0.614414   -0.536300
 H    3.000623   -0.782050   -1.875216
 H   -0.633749   -1.709872   -0.126814
 H    2.933093    1.961047    0.703942
 H    0.444997    3.345023    1.173640
 H    1.772908   -1.970955    0.632015
 H   -3.449499   -0.807480    2.411830
 H   -4.824821   -2.311800   -0.578867
