16 
2p7a_ligand_xtb.xyz
 C   -0.043621   -1.487273   -0.000889
 C    0.788070   -0.382886   -0.000337
 C    0.276848    0.914414   -0.000442
 C    1.188772    2.099232   -0.000344
 C   -1.099187    1.067419   -0.000394
 C   -1.950643   -0.033263   -0.000067
 C   -1.416026   -1.315423   -0.000730
Cl    2.503781   -0.628181    0.000713
 O   -3.290070    0.196485    0.000989
 H    0.379880   -2.479348   -0.001309
 H    1.831196    2.079365    0.878976
 H    1.834080    2.077326   -0.877482
 H    0.619743    3.024285   -0.002303
 H   -1.538542    2.052426   -0.000401
 H   -2.067155   -2.178722   -0.001047
 H   -3.768187   -0.641458    0.002761
