85 
2p83_ligand_dft.xyz
 N   -1.179933   -0.523878    2.435028
 C    0.446118   -1.685423    1.037917
 C    1.459494   -0.752780    1.260377
 C    3.756367    0.107808    1.062293
 C    2.257863   -4.431249   -0.793884
 C   -0.962073   -1.370196    1.381509
 C    4.417855    0.246584   -1.345333
 C    5.489293   -0.629534   -1.995082
 C   -2.266500    0.466349    2.473775
 C   -2.411737    1.243705    1.147181
 C   -4.867791   -0.879405   -0.996845
 C   -3.736313   -1.188996   -1.759952
 C   -3.277633   -0.270934   -2.694681
 C   -5.054579    1.257220   -2.125633
 C    0.675001    1.559297   -1.011437
 C   -1.073695    1.714721    0.621961
 C    2.741955   -0.971645    0.772682
 C    3.024584   -2.173820    0.126863
 C    2.026589   -3.130889   -0.067930
 C    0.727842   -2.866652    0.354263
 O    3.766441    0.599344    2.185170
 N    4.620649    0.487625    0.081567
 C    5.624351    1.489552    0.446745
 C    5.099485    2.925367    0.406839
 C    6.176919    3.930098    0.808543
 C    5.185076   -0.875439   -3.471285
 O   -1.894952   -1.835341    0.720171
 C   -3.608276   -0.110943    3.047565
 C   -4.739632   -0.376926    2.051343
 N   -4.501363   -1.650041    1.316421
 C   -5.329356   -1.833988    0.072625
 C   -3.918371    0.953328   -2.879601
 C   -5.525972    0.330283   -1.186221
 O   -5.761266    2.399582   -2.216694
 C   -0.589053    1.187982   -0.573870
 C   -0.287695    2.608983    1.354905
 C    0.969521    2.949473    0.875787
 C    1.481942    2.435168   -0.307878
 O   -3.408648   -1.307711    3.760404
 C   -5.381447    3.352712   -3.194737
 N    3.546231   -4.878329   -0.834132
 O    1.335770   -5.015515   -1.333444
 F    1.716775    3.802328    1.576499
 F    1.142579    1.027045   -2.146815
 H   -0.337282   -0.217106    2.901125
 H    1.273209    0.195358    1.755062
 H    4.396869    1.220379   -1.853311
 H    3.428707   -0.189853   -1.498960
 H    6.470365   -0.152054   -1.891676
 H    5.559544   -1.585772   -1.462970
 H   -1.920143    1.177018    3.228542
 H   -3.078663    2.095886    1.327090
 H   -2.884104    0.623220    0.380556
 H   -3.216988   -2.131636   -1.620380
 H   -2.406786   -0.508142   -3.298350
 H    4.025496   -2.347921   -0.254462
 H   -0.053710   -3.586197    0.136082
 H    5.977258    1.256769    1.453652
 H    6.470872    1.376871   -0.238669
 H    4.243480    3.002739    1.084410
 H    4.744793    3.159527   -0.606745
 H    6.531722    3.736916    1.826455
 H    5.788965    4.952248    0.778264
 H    7.040248    3.879423    0.135504
 H    5.961545   -1.489413   -3.935452
 H    5.130030    0.068114   -4.025373
 H    4.227427   -1.393379   -3.595965
 H   -3.999215    0.659778    3.725536
 H   -4.850555    0.424963    1.322133
 H   -5.683046   -0.488417    2.591031
 H   -3.478601   -1.705486    1.059955
 H   -4.647298   -2.416436    1.978318
 H   -6.375780   -1.678872    0.346805
 H   -5.195648   -2.874256   -0.232607
 H   -3.535392    1.649471   -3.616292
 H   -6.424626    0.581553   -0.629023
 H   -1.171585    0.479887   -1.152956
 H   -0.635491    3.056321    2.280846
 H    2.468883    2.708504   -0.658992
 H   -2.455309   -1.481552    3.789634
 H   -6.105181    4.162936   -3.114796
 H   -4.375013    3.742695   -3.001654
 H   -5.425550    2.923438   -4.202141
 H    3.683214   -5.791126   -1.245026
 H    4.220541   -4.590114   -0.142217
