23 
2p9a_ligand_xtb.xyz
Cl    2.626444   -2.102946    0.292354
 C    2.651163   -0.393556    0.063784
 C    3.886203    0.234994    0.084930
 C    3.971881    1.608704   -0.048656
 C    2.816416    2.360713   -0.193531
 C    1.587881    1.735355   -0.216355
 C    1.473369    0.344429   -0.098312
 C    0.142969   -0.236746   -0.145323
 O   -0.891728    0.581215    0.101281
 C   -0.325853   -1.505522   -0.447059
 C   -1.718758   -1.442098   -0.371312
 C   -2.028782   -0.137680   -0.025552
 C   -3.314191    0.473181    0.180392
 O   -3.561709    1.612818    0.503632
 N   -4.389086   -0.491936   -0.042202
 N   -5.522178   -0.066661   -0.080576
 H    4.777102   -0.360012    0.212199
 H    4.938289    2.088176   -0.033181
 H    2.874791    3.433678   -0.290357
 H    0.684974    2.314498   -0.331989
 H    0.257201   -2.362796   -0.708723
 H   -2.425734   -2.227894   -0.539067
 H   -5.603631    0.971692    0.043205
