24 
2pax_ligand_xtb.xyz
 C    1.665695   -1.634949   -0.001873
 O    2.066492   -2.780451   -0.004477
 C    0.258447   -1.241075   -0.006030
 C   -0.728136   -2.213018   -0.014781
 C   -2.066769   -1.865222   -0.005999
 C   -2.468263   -0.534604    0.008381
 N   -3.795956   -0.237063   -0.015685
 C   -1.794223    1.868452   -0.013264
 C   -0.815219    2.831209   -0.016950
 C    0.529065    2.465324   -0.007106
 C    0.883821    1.132726   -0.000351
 C    2.310992    0.767882    0.008514
 O    3.219558    1.571759    0.017845
 N    2.569058   -0.584221    0.007915
 C   -0.105542    0.122986   -0.001643
 C   -1.476337    0.497351   -0.001644
 H   -0.427651   -3.249635   -0.021105
 H   -2.822209   -2.637516   -0.006430
 H   -4.448506   -0.987152    0.132275
 H   -4.110889    0.688914    0.209105
 H   -2.827334    2.184264   -0.029538
 H   -1.085360    3.876243   -0.027614
 H    1.310956    3.209479   -0.006832
 H    3.549696   -0.848436    0.014058
