44 
2pbw_ligand_xtb.xyz
 O   -2.917712    0.856027   -0.506639
 C   -3.661513   -0.024626   -0.102798
 O   -4.957804    0.134793   -0.020346
 C   -3.192137   -1.371963    0.390253
 C   -3.051079   -1.254002    1.916521
 C   -1.932952   -1.798011   -0.316729
 C   -0.707627   -1.673887    0.171304
 C    0.514024   -2.220877   -0.433076
 C    1.485191   -1.640212   -1.131381
 C    2.678463   -2.438803   -1.569363
 C    1.502342   -0.213342   -1.643398
 C    0.143834    0.300197   -2.147939
 N   -0.377243    1.253350   -1.128993
 C    0.616194    1.396647   -0.042194
 C    0.777270    2.837442    0.424287
 O   -0.013964    3.676144   -0.255777
 O    1.545216    3.174980    1.272030
 C    1.941703    0.867471   -0.626512
 C    2.929092    0.421412    0.450551
 C    2.406793   -0.608854    1.428203
 O    1.349344   -0.541212    2.005617
 O    3.286819   -1.574948    1.632945
 H   -5.254118    1.021561   -0.288461
 H   -3.983778   -2.095029    0.174449
 H   -2.652170   -2.182815    2.313625
 H   -2.388416   -0.438302    2.195759
 H   -4.025423   -1.075557    2.363292
 H   -2.090086   -2.241408   -1.292179
 H   -0.551931   -1.266095    1.162946
 H    0.650239   -3.268256   -0.184428
 H    2.653021   -3.443263   -1.159182
 H    2.702666   -2.514065   -2.656095
 H    3.603203   -1.963277   -1.249090
 H    2.214296   -0.202694   -2.471817
 H   -0.559122   -0.519867   -2.279692
 H    0.260017    0.818302   -3.099744
 H   -0.532532    2.182951   -1.534941
 H   -1.332104    0.950540   -0.771365
 H    0.347582    0.778607    0.821989
 H    0.098972    4.590926    0.051231
 H    2.423677    1.676334   -1.187524
 H    3.840538    0.037526   -0.004850
 H    3.190274    1.298962    1.050568
 H    2.993111   -2.196358    2.319448
