91 
2pcu_ligand_dft.xyz
 N   -4.545063   -1.271493   -1.202860
 C   -4.115728    0.091432   -1.532523
 C   -2.819851   -0.046915   -2.342274
 O   -2.497873   -1.117032   -2.842456
 C   -3.908021    0.922613   -0.242743
 C   -5.016540    0.710135    0.760061
 C   -4.812633   -0.103092    1.877021
 C   -6.277628    1.279065    0.564621
 C   -5.843532   -0.340039    2.782154
 C   -7.311639    1.041162    1.465428
 C   -7.096828    0.229880    2.576835
 N   -2.058784    1.072653   -2.461870
 C   -0.678138    0.903291   -2.847186
 C    0.064931    0.057284   -1.790160
 O   -0.396448   -0.120899   -0.660372
 C   -0.002564    2.255992   -3.117622
 C   -0.125609    3.282873   -2.001325
 O   -0.968223    3.192016   -1.099286
 N    0.684226    4.345960   -2.102378
 N    1.212512   -0.493797   -2.205619
 C    2.109324   -1.208653   -1.322228
 C    3.526676   -0.733953   -1.673126
 O    3.749931   -0.246983   -2.775021
 C    1.959674   -2.733618   -1.480398
 C    0.619038   -3.279804   -0.981075
 C    0.425650   -3.089279    0.527314
 N   -0.803638   -3.718958    1.016743
 C   -2.031353   -3.230954    0.800221
 N   -3.096480   -3.944871    1.232221
 N   -2.233959   -2.072005    0.212602
 N    4.486328   -0.853571   -0.721783
 C    4.353556   -1.490598    0.591575
 C    3.339209   -0.819893    1.524173
 O    2.713665   -1.488830    2.335159
 C    5.788447   -1.429765    1.163404
 C    6.439097   -0.257218    0.423139
 C    5.846482   -0.363141   -0.980064
 N    3.230291    0.522348    1.390288
 C    2.165275    1.282189    2.013205
 C    1.354689    1.897501    0.877345
 O    0.124792    2.224775    1.223367
 C    2.723292    2.338972    3.001424
 C    1.610338    3.099780    3.726456
 C    3.651427    1.656920    4.009760
 O    1.825635    2.066280   -0.235570
 H   -4.510888   -1.832933   -2.050773
 H   -5.499445   -1.253228   -0.854568
 H   -3.163927   -1.848081   -0.208218
 H   -4.852648    0.606167   -2.168151
 H   -2.943369    0.661147    0.205611
 H   -3.854851    1.984641   -0.509591
 H   -3.831701   -0.542465    2.043317
 H   -6.449935    1.923121   -0.295114
 H   -5.665095   -0.961499    3.654851
 H   -8.283470    1.497409    1.304336
 H   -7.900122    0.050821    3.284587
 H   -2.194830    1.825591   -1.795158
 H   -0.654987    0.328344   -3.777987
 H    1.057683    2.096375   -3.340373
 H   -0.457188    2.694041   -4.013982
 H    1.462084    4.366514   -2.743309
 H    0.655852    5.040432   -1.369716
 H    1.631229   -0.231392   -3.091935
 H    1.858447   -0.904248   -0.306029
 H    2.079246   -2.975380   -2.541960
 H    2.776903   -3.239919   -0.954056
 H   -0.202274   -2.807466   -1.532282
 H    0.571883   -4.350908   -1.206763
 H    1.250959   -3.537268    1.084932
 H    0.419091   -2.031284    0.803700
 H   -0.717065   -4.478265    1.674650
 H   -4.019210   -3.563491    1.086721
 H   -3.029478   -4.944456    1.340970
 H   -1.460905   -1.456792   -0.049110
 H    4.023225   -2.528396    0.507857
 H    5.785553   -1.317126    2.249842
 H    6.307669   -2.363014    0.925224
 H    6.150730    0.692678    0.886465
 H    7.529305   -0.315253    0.420972
 H    6.394059   -1.079571   -1.603515
 H    5.798639    0.584062   -1.520060
 H    3.623348    0.942491    0.557458
 H    1.532981    0.578821    2.563369
 H   -0.339134    2.590531    0.432075
 H    3.315289    3.053410    2.411351
 H    0.969421    3.660997    3.043163
 H    0.973003    2.408618    4.290156
 H    2.047739    3.806103    4.438651
 H    4.501406    1.176461    3.517266
 H    4.041837    2.392070    4.720051
 H    3.110855    0.890092    4.576632
