53 
2pgj_ligand_dft.xyz
 O    0.780577    3.247723    1.306809
 P    1.267263    2.710877    0.011799
 O    0.070733    1.880571   -0.724837
 O    1.777668    3.748639   -1.069191
 O    2.417028    1.633105    0.077503
 C    3.365386    1.665778    1.167933
 C    4.032228    0.311924    1.270200
 C    4.710576   -0.194633   -0.003153
 O    5.826414   -0.958275    0.371014
 C    3.644538   -1.107206   -0.624295
 O    4.283991   -2.102458   -1.368687
 O    3.064118   -0.674851    1.636644
 C    2.908802   -1.631487    0.629250
 N    1.466280   -1.862017    0.392324
 C    1.168905   -2.983401   -0.422517
 O    2.075472   -3.639492   -0.926976
 C   -0.244269   -3.175012   -0.544523
 N   -0.945088   -4.142683   -1.228628
 C   -2.190574   -3.811758   -1.047982
 C    0.519973   -1.041564    0.934648
 N   -0.764532   -1.180500    0.794468
 C   -1.098305   -2.259986    0.046497
 N   -2.365044   -2.685317   -0.268529
 C   -3.617321   -1.987769   -0.082847
 O   -3.710990   -0.940974   -1.038959
 C   -3.791775   -1.359594    1.314774
 O   -5.072366   -1.730263    1.788031
 C   -3.674355    0.099525    0.981798
 O   -3.620332    1.006052    1.975064
 C   -3.674245    0.256563   -0.344500
 C   -3.629980    1.480356   -1.167750
 O   -2.276610    1.793943   -1.622284
 P   -1.306133    2.756453   -0.861119
 O   -1.867709    2.815405    0.645624
 O   -0.992346    4.064240   -1.472175
 H    1.015706    4.267750   -1.407470
 H    2.838038    1.901589    2.095631
 H    4.110781    2.439898    0.961886
 H    4.778471    0.369824    2.069189
 H    4.990866    0.626462   -0.677325
 H    5.865288   -1.684841   -0.273960
 H    2.943513   -0.519960   -1.231341
 H    3.657487   -2.850273   -1.426286
 H    3.332870   -2.591216    0.941759
 H   -3.044774   -4.342672   -1.448076
 H    0.907577   -0.230164    1.535165
 H   -4.420256   -2.703918   -0.266763
 H   -3.005785   -1.676994    2.009086
 H   -5.239208   -1.231765    2.598188
 H   -3.150407    1.793119    1.650905
 H   -4.192935    1.342444   -2.090593
 H   -4.037069    2.333670   -0.621094
 H   -1.131112    3.123379    1.227597
