53 
2pgj_ligand_xtb.xyz
 O    0.235501    3.203669    1.172680
 P    0.736865    2.476211   -0.003424
 O   -0.443371    1.584626   -0.655479
 O    1.319789    3.354044   -1.165046
 O    1.862405    1.412715    0.273282
 C    2.796695    1.774817    1.295788
 C    3.885399    0.704829    1.379312
 C    4.608403    0.481673    0.041575
 O    5.944908    0.152125    0.269988
 C    3.826760   -0.691401   -0.579972
 O    4.697508   -1.514891   -1.287630
 O    3.354656   -0.556588    1.758636
 C    3.191722   -1.387828    0.655257
 N    1.781784   -1.712558    0.405016
 C    1.567179   -2.652956   -0.631242
 O    2.514597   -3.104296   -1.248154
 C    0.174240   -2.935162   -0.783380
 N   -0.469127   -3.793999   -1.630960
 C   -1.726418   -3.660462   -1.361058
 C    0.791205   -1.166656    1.141019
 N   -0.470840   -1.390324    0.993210
 C   -0.764015   -2.273532    0.013204
 N   -1.984553   -2.759998   -0.355232
 C   -3.293853   -2.296213    0.025225
 O   -3.694108   -1.283451   -0.877628
 C   -3.335614   -1.687109    1.438860
 O   -4.463877   -2.187556    2.113972
 C   -3.445707   -0.212826    1.104093
 O   -3.362273    0.701805    2.089665
 C   -3.675656   -0.069702   -0.204287
 C   -3.951951    1.133418   -1.034400
 O   -2.785462    1.685795   -1.667889
 P   -1.729641    2.566857   -0.938108
 O   -2.295995    2.837501    0.516922
 O   -1.276925    3.737203   -1.685786
 H    0.603577    3.842459   -1.606591
 H    2.267435    1.857577    2.248125
 H    3.246322    2.741690    1.059600
 H    4.604679    0.992671    2.152445
 H    4.542692    1.375940   -0.592594
 H    6.168046   -0.564433   -0.345622
 H    3.022998   -0.301866   -1.220200
 H    4.183491   -2.298793   -1.561373
 H    3.704006   -2.344473    0.847187
 H   -2.513419   -4.194052   -1.854870
 H    1.099766   -0.506445    1.936539
 H   -3.998737   -3.131876   -0.055859
 H   -2.419654   -1.900930    2.001863
 H   -4.592081   -1.664058    2.914172
 H   -3.213245    1.582889    1.713332
 H   -4.596182    0.843359   -1.867619
 H   -4.434233    1.908527   -0.434744
 H   -1.533811    3.166997    1.044719
