71 
2ph6_ligand_xtb.xyz
 C    3.512885   -1.533949    1.406158
 N    4.456645   -0.378599    1.264983
 C    2.416648   -0.967093    2.336186
 O    1.210918   -1.374590    2.036598
 O    2.730910   -0.207570    3.218945
 C    4.225091   -2.680726    2.114259
 C    2.982469   -1.906211    0.017702
 C    4.106581   -2.265927   -0.921144
 C    4.774082   -1.267864   -1.625527
 C    6.227891   -2.903468   -2.609991
 C    5.561628   -3.903355   -1.921837
 C    5.827932   -1.585366   -2.465648
 C    4.507069   -3.586390   -1.082332
 C   -0.842634    2.442988   -0.103823
 C   -1.801464    1.478944    0.184947
 C   -1.521581    0.458744    1.087138
 C   -0.304397    0.442780    1.754044
 C    0.619899    1.450926    1.514907
 C    0.377302    2.424587    0.555364
 N    1.437306    3.308425    0.263661
 C   -3.065353    1.515154   -0.627957
 N   -4.179429    1.170733    0.040037
 O   -3.038241    1.839396   -1.798707
 S    2.676677    2.629740   -0.601392
 C    2.097891    2.452119   -2.300353
 O    3.816672    3.481698   -0.547444
 O    2.896201    1.280217   -0.086507
 C    1.160017    4.684694   -0.090797
 C   -5.489256    1.099300   -0.588524
 C   -6.019340   -0.314949   -0.510826
 C   -6.193468   -0.938861    0.719882
 C   -6.978655   -2.900258   -0.374771
 C   -6.819103   -2.305268   -1.612896
 C   -6.672204   -2.233395    0.797976
 C   -6.335245   -1.010608   -1.670761
 C   -6.450857    2.095893    0.058176
 F   -7.437700   -4.162862   -0.305813
 C    0.096909   -0.698044    2.655855
 H    3.955983    0.383150    0.708671
 H    5.309595   -0.658106    0.771230
 H    4.658529   -0.007979    2.204380
 H    3.536468   -3.507354    2.265404
 H    5.060379   -3.039598    1.517147
 H    4.589191   -2.363726    3.089346
 H    2.293823   -2.743749    0.121600
 H    2.428234   -1.052508   -0.376345
 H    4.446257   -0.240234   -1.539855
 H    7.047915   -3.150986   -3.265260
 H    5.859776   -4.933153   -2.042031
 H    6.333613   -0.803369   -3.011143
 H    3.983749   -4.372893   -0.559348
 H   -1.076513    3.182114   -0.854240
 H   -2.234767   -0.335784    1.248953
 H    1.551673    1.487269    2.052275
 H   -4.130856    0.965681    1.025217
 H    2.828580    1.866417   -2.843344
 H    1.141085    1.944916   -2.280500
 H    2.016326    3.439330   -2.735440
 H    2.121889    5.181641   -0.197259
 H    0.603994    5.150454    0.721269
 H    0.591971    4.786697   -1.019120
 H   -5.327348    1.373662   -1.635493
 H   -5.963059   -0.413151    1.635421
 H   -7.070509   -2.852189   -2.507396
 H   -6.814333   -2.725025    1.747302
 H   -6.202488   -0.535126   -2.630627
 H   -6.060929    3.106468   -0.033375
 H   -6.596708    1.868860    1.111574
 H   -7.414872    2.047287   -0.439847
 H   -0.692966   -1.443688    2.745232
 H    0.401048   -0.338918    3.643903
