66 
2ph8_ligand_xtb.xyz
 C   -0.106890   -2.161931    1.909513
 C    0.974748   -1.512318    2.477264
 C   -0.747971    2.411567   -2.561236
 C   -1.889006    1.920319   -1.955994
 O   -2.418047   -1.690268    1.647199
 C   -1.458504   -2.244684    2.566169
 C   -2.029324    1.989173   -0.574268
 C   -3.311080    1.542634    0.086934
 C   -3.401533    0.044694    0.402228
 C    0.253177    2.985050   -1.795184
 C    0.131550    3.070612   -0.413095
 C   -1.015914    2.558715    0.181040
 C    2.888458    0.945752    2.458030
 C    2.432140    1.664234    1.179256
 C    1.731431    2.969444    1.577450
 C    1.171805    3.782205    0.405226
 C    2.122054   -1.306797    1.709978
 C    3.277620   -0.526274    2.248341
 N    2.191059   -1.683108    0.437868
 C    0.006406   -2.620622    0.603102
 C    1.164659   -2.323647   -0.092719
 N    1.149798   -2.561726   -1.485399
 S    0.562739   -1.194413   -2.241774
 C    1.907067   -0.007520   -2.305313
 O    0.107659   -1.535581   -3.548529
 O   -0.472543   -0.667680   -1.352939
 C    2.334321   -3.117859   -2.111872
 C    3.622603    1.926396    0.259522
 C   -2.438919   -0.361657    1.540084
 O   -1.841220    0.401148    2.236119
 C   -4.822415   -0.337912    0.815776
 N   -3.025262   -0.756133   -0.805352
 H    0.923434   -1.133202    3.485055
 H   -0.649603    2.365957   -3.635306
 H   -2.683204    1.525284   -2.574217
 H   -1.776670   -3.276135    2.726783
 H   -1.482224   -1.686869    3.505319
 H   -4.154809    1.809368   -0.553988
 H   -3.424956    2.079197    1.029552
 H    1.121647    3.407706   -2.281629
 H   -1.137063    2.627828    1.250597
 H    3.746272    1.474584    2.876485
 H    2.082259    0.989374    3.192474
 H    1.702019    1.031938    0.658654
 H    0.916611    2.728181    2.262166
 H    2.440769    3.599302    2.118437
 H    1.985801    4.107249   -0.242782
 H    0.711511    4.684028    0.819722
 H    3.583476   -0.944560    3.208899
 H    4.113038   -0.607340    1.554855
 H   -0.796053   -3.140611    0.107343
 H    1.458308    0.978931   -2.310167
 H    2.503795   -0.150949   -1.412088
 H    2.476620   -0.185968   -3.207282
 H    3.244915   -2.592380   -1.817184
 H    2.186589   -3.052887   -3.187369
 H    2.417064   -4.165270   -1.824727
 H    4.162541    1.006387    0.051927
 H    4.311585    2.624307    0.730129
 H    3.302511    2.346588   -0.689525
 H   -5.120404    0.231542    1.692135
 H   -5.528379   -0.115995    0.018161
 H   -4.885696   -1.394910    1.064729
 H   -1.982972   -0.636408   -1.066268
 H   -3.180670   -1.751585   -0.617898
 H   -3.586746   -0.463719   -1.610627
