43 
2ph9_ligand_dft.xyz
 C    0.541390    1.760498    1.048632
 C   -0.349552    2.686925    1.399573
 C   -1.469357    3.172411    0.507298
 C   -1.189992    2.834152   -0.957924
 C   -0.704526    1.411653   -1.138396
 C    0.534453    1.025776   -0.278701
 O   -1.747237    0.484733   -0.753711
 C   -1.753266   -1.864121   -0.103346
 C   -0.956200   -2.912510    0.365657
 C    0.399730   -2.720794    0.638596
 C    2.433865   -1.267113    0.860637
 N    3.283686   -0.694845   -0.267208
 C    3.133438    0.802869   -0.439800
 C    1.824769    1.237930   -1.086465
 C   -1.118880   -0.629707   -0.301258
 C    0.216873   -0.435476   -0.024374
 C    1.005687   -1.477083    0.467039
 C   -3.738242   -3.151315   -0.188758
 O   -3.059091   -1.920613   -0.387282
 O   -2.711807    2.672379    0.956064
 C    4.721580   -1.057676   -0.084255
 H    1.278555    1.435918    1.782327
 H   -0.323471    3.100257    2.404347
 H   -1.550727    4.258936    0.606377
 H   -0.420468    3.507940   -1.354721
 H   -2.098472    2.991907   -1.545917
 H   -0.485916    1.210438   -2.196347
 H   -1.386993   -3.894423    0.520558
 H    0.978651   -3.562192    1.009311
 H    2.557964   -0.570359    1.695737
 H    2.893215   -2.216057    1.143809
 H    2.949389   -1.138440   -1.128863
 H    3.966687    1.116918   -1.072346
 H    3.278553    1.240857    0.550961
 H    1.729345    0.741590   -2.061867
 H    1.941742    2.308324   -1.293141
 H   -4.776632   -2.960620   -0.455189
 H   -3.681249   -3.467217    0.859023
 H   -3.330835   -3.934090   -0.838628
 H   -2.739969    1.731413    0.731436
 H    5.074675   -0.607250    0.844838
 H    4.813748   -2.142701   -0.030678
 H    5.300863   -0.677747   -0.926081
