43 
2ph9_ligand_xtb.xyz
 C    0.597185    1.733015    1.039622
 C   -0.296953    2.623402    1.435043
 C   -1.433288    3.123563    0.579494
 C   -1.119056    2.888500   -0.900458
 C   -0.643234    1.464508   -1.152036
 C    0.578963    1.029128   -0.296856
 O   -1.689315    0.526827   -0.871170
 C   -1.787900   -1.795923   -0.125563
 C   -1.023173   -2.836651    0.399113
 C    0.321351   -2.672730    0.691895
 C    2.411923   -1.287504    0.871857
 N    3.233427   -0.753457   -0.262174
 C    3.155296    0.728382   -0.401339
 C    1.882808    1.212520   -1.086709
 C   -1.117850   -0.584224   -0.348651
 C    0.219664   -0.416083   -0.032117
 C    0.966821   -1.456639    0.503419
 C   -3.813734   -3.032077   -0.195569
 O   -3.091776   -1.842240   -0.438619
 O   -2.652384    2.540340    0.970498
 C    4.636320   -1.189012   -0.140839
 H    1.359799    1.406245    1.732420
 H   -0.261800    3.015118    2.440205
 H   -1.561850    4.197664    0.759314
 H   -0.342468    3.580859   -1.226650
 H   -2.018347    3.068007   -1.490076
 H   -0.395379    1.355483   -2.220213
 H   -1.475862   -3.796781    0.581930
 H    0.868746   -3.510473    1.095619
 H    2.532221   -0.609924    1.720462
 H    2.813771   -2.260710    1.159134
 H    2.838080   -1.158196   -1.120517
 H    4.005366    1.049906   -1.007168
 H    3.259456    1.174275    0.588402
 H    1.784393    0.709753   -2.053735
 H    2.009329    2.278878   -1.284847
 H   -4.835927   -2.817232   -0.499747
 H   -3.798105   -3.297176    0.865038
 H   -3.425052   -3.863315   -0.790473
 H   -2.714854    1.656936    0.581988
 H    5.068164   -0.777440    0.770053
 H    4.694368   -2.275032   -0.099710
 H    5.218908   -0.845133   -0.993724
