51 
2piz_ligand_dft.xyz
 C    4.941957   -1.538008   -1.033362
 C    4.707409   -2.885650   -0.785002
 C    4.038212   -3.275701    0.373901
 C    3.600450   -2.305907    1.270647
 C    3.820417   -0.953950    1.008614
 C    4.504954   -0.553754   -0.140764
 C    4.752159    0.911112   -0.425246
 C    3.928227    1.450656   -1.608444
 C    2.417837    1.214893   -1.487213
 P    1.609884    2.100587   -0.128558
 O    1.592184    3.621665   -0.725773
 O    2.217502    2.006549    1.232262
 C   -0.153660    1.606695   -0.118649
 C   -0.446491    0.453849    0.856203
 C    0.155254   -0.848893    0.361345
 O    0.300004   -1.145143   -0.804839
 O    0.486116   -1.668164    1.364184
 C   -1.945186    0.271383    1.052547
 C   -2.728260   -0.253078    0.025727
 C   -2.550306    0.675354    2.240782
 C   -3.926657    0.538539    2.394390
 C   -4.708403   -0.003373    1.382586
 C   -4.108211   -0.398739    0.180681
 N   -4.852474   -0.995695   -0.846114
 C   -6.130700   -0.594871   -1.258485
 N   -6.643723   -1.485587   -2.196119
 N   -6.794586    0.438353   -0.913856
 H    5.478540   -1.243197   -1.932901
 H    5.055335   -3.634325   -1.490892
 H    3.870487   -4.329465    0.578132
 H    3.093362   -2.595802    2.187593
 H    3.453917   -0.197059    1.696630
 H    4.524037    1.494016    0.470890
 H    5.814193    1.065118   -0.652818
 H    4.128489    2.521339   -1.729261
 H    4.261984    0.963442   -2.532751
 H    1.907536    1.529434   -2.405336
 H    2.202763    0.149879   -1.357901
 H    1.654001    4.255200    0.002529
 H   -0.478025    1.350204   -1.132159
 H   -0.725397    2.485404    0.198065
 H    0.012826    0.681838    1.821610
 H    0.913380   -2.441980    0.958885
 H   -2.256431   -0.560942   -0.904945
 H   -1.946957    1.088961    3.043592
 H   -4.398184    0.841386    3.324407
 H   -5.774127   -0.143334    1.526945
 H   -4.311833   -1.446220   -1.571502
 H   -6.556433   -2.460871   -1.939667
 H   -7.590458   -1.235983   -2.451116
 H   -6.226248    1.072031   -0.355251
