60 
2pj0_ligand_dft.xyz
 C   -2.912827   -2.552065    0.887978
 C   -3.565419   -1.812803    1.875634
 C   -2.828249   -1.099500    2.816122
 C   -1.435388   -1.146595    2.780867
 C   -0.785078   -1.904292    1.812894
 C   -1.519939   -2.605157    0.850165
 C   -0.806874   -3.380103   -0.232286
 O    0.059527   -2.510082   -0.966939
 C    1.357797   -2.492508   -0.582759
 O    1.878950   -3.298367    0.156608
 N    1.979927   -1.428009   -1.173609
 C    3.228692   -0.918209   -0.639652
 C    4.163411   -0.374154   -1.737286
 C    3.531015    0.768375   -2.538892
 C    4.605551   -1.515142   -2.655166
 P    2.887368    0.332131    0.667594
 O    3.847358    1.443855    0.848001
 O    2.564878   -0.587109    1.941876
 O    1.404540    0.851565    0.208211
 C    0.952993    2.157278    0.482471
 C    0.780172    2.348044    1.989910
 O    0.943438    1.492454    2.834645
 O    0.418690    3.593668    2.283422
 C   -0.373663    2.347881   -0.224326
 C   -1.296982    1.306407   -0.199193
 C   -0.666918    3.535976   -0.886013
 C   -1.900712    3.674030   -1.515408
 C   -2.835422    2.646864   -1.487354
 C   -2.533758    1.445656   -0.831730
 N   -3.461702    0.403759   -0.737994
 C   -4.299277   -0.028085   -1.770798
 N   -5.197990   -0.988190   -1.308183
 N   -4.302532    0.314226   -3.000048
 H   -3.497609   -3.064914    0.128925
 H   -4.651321   -1.785333    1.897277
 H   -3.335772   -0.511099    3.574539
 H   -0.852178   -0.586032    3.504708
 H    0.300477   -1.950460    1.802731
 H   -1.517536   -3.778249   -0.959308
 H   -0.214412   -4.198654    0.184036
 H    1.340805   -0.741043   -1.550224
 H    3.714631   -1.755876   -0.128961
 H    5.042860    0.026123   -1.219385
 H    2.636785    0.432634   -3.077297
 H    3.259960    1.613171   -1.897869
 H    4.239920    1.137070   -3.286778
 H    3.743913   -1.956344   -3.166796
 H    5.303709   -1.147605   -3.414301
 H    5.105526   -2.309602   -2.090613
 H    2.020812   -0.061647    2.563143
 H    1.686132    2.900351    0.146451
 H    0.332464    3.651849    3.248955
 H   -1.047206    0.370098    0.292816
 H    0.058437    4.343522   -0.909457
 H   -2.142175    4.598746   -2.030445
 H   -3.804468    2.775749   -1.957452
 H   -3.244368   -0.311783   -0.053715
 H   -5.651540   -0.742423   -0.437230
 H   -5.860765   -1.234689   -2.032311
 H   -3.495311    0.892719   -3.224166
