62 
2pj3_ligand_xtb.xyz
 C    0.192558    2.233201    1.486655
 C    0.938916    1.342462    2.238784
 C    2.322274    1.351271    2.158097
 C    2.955372    2.251555    1.316839
 C    2.203359    3.128685    0.550663
 C    0.815966    3.133805    0.630267
 C    0.004753    4.085241   -0.203195
 C   -0.745896    3.360712   -1.334028
 C   -2.034023    2.734240   -0.821838
 O   -2.919297    3.388989   -0.315041
 N   -2.131961    1.398820   -1.024648
 C   -3.260876    0.628244   -0.569648
 C   -4.070835    0.026300   -1.720503
 C   -5.419024   -0.457040   -1.197023
 C   -3.313461   -1.117468   -2.387109
 P   -2.631538   -0.627024    0.626303
 O   -3.335793   -1.880225    0.919926
 O   -2.418201    0.334762    1.875595
 O   -1.144752   -0.900881    0.006768
 C   -0.628897   -2.201940    0.124848
 C   -0.597730   -2.609038    1.588203
 O   -0.295410   -3.885567    1.756047
 O   -0.808826   -1.845654    2.493911
 C    0.774637   -2.252478   -0.433557
 C    1.566171   -1.119020   -0.389538
 C    1.273362   -3.433902   -0.967542
 C    2.558657   -3.455285   -1.479698
 C    3.349376   -2.321593   -1.463827
 C    2.865922   -1.140648   -0.897981
 N    3.606919    0.028790   -0.888986
 C    4.993448    0.137700   -0.739713
 N    5.426129    1.436555   -0.897002
 N    5.831366   -0.754709   -0.430058
 H   -0.883206    2.235054    1.567406
 H    0.440635    0.639244    2.889085
 H    2.907176    0.660761    2.747509
 H    4.034194    2.271185    1.256621
 H    2.703536    3.828868   -0.105253
 H   -0.736388    4.592042    0.418773
 H    0.663869    4.840853   -0.635374
 H   -1.035525    4.097036   -2.087044
 H   -0.102941    2.614552   -1.804089
 H   -1.327019    0.873440   -1.325157
 H   -3.892119    1.317116    0.004023
 H   -4.234840    0.824964   -2.455247
 H   -5.268372   -1.206026   -0.424914
 H   -6.001948   -0.897171   -2.002889
 H   -5.984358    0.370146   -0.774430
 H   -3.180207   -1.928555   -1.674527
 H   -2.337829   -0.792739   -2.743927
 H   -3.877340   -1.498357   -3.236190
 H   -2.067937   -0.158601    2.624419
 H   -1.273643   -2.923224   -0.393581
 H   -0.294368   -4.119454    2.699427
 H    1.172433   -0.210019    0.040199
 H    0.659287   -4.320094   -0.986231
 H    2.946017   -4.364411   -1.914057
 H    4.331080   -2.343551   -1.910105
 H    3.093362    0.858819   -0.617400
 H    6.430391    1.513682   -0.930796
 H    4.935485    2.000790   -1.572386
 H    5.440540   -1.658577   -0.196135
