67 
2pj4_ligand_dft.xyz
 C    3.100597   -2.237053    1.012389
 C    3.790278   -1.713479    2.101937
 C    3.112200   -0.971956    3.068612
 C    1.741649   -0.763611    2.936252
 C    1.053386   -1.285510    1.842910
 C    1.729450   -2.020104    0.868984
 C    1.024149   -2.558583   -0.356587
 O   -0.387334   -2.502845   -0.178282
 C   -1.064466   -1.597444   -0.925297
 O   -0.684107   -1.132930   -1.974800
 N   -2.255687   -1.316352   -0.305377
 C   -2.960920   -0.081742   -0.611156
 C   -4.483221   -0.202080   -0.433437
 C   -5.065662   -1.170737   -1.472484
 C   -6.586841   -1.289210   -1.342864
 C   -6.997414   -1.693413    0.075507
 C   -6.422808   -0.722125    1.109328
 C   -4.900373   -0.617537    0.986653
 P   -2.178679    1.227014    0.403699
 O   -1.920509    0.879386    1.823819
 O   -3.043397    2.540961    0.099063
 O   -0.806237    1.473078   -0.431849
 C    0.395993    1.809505    0.221351
 C    0.344476    3.292028    0.590933
 O    1.506407    3.737249    1.064779
 O   -0.644752    3.989984    0.515393
 C    1.561331    1.452900   -0.677490
 C    2.758044    1.035160   -0.107863
 C    1.426935    1.512566   -2.062837
 C    2.510108    1.175144   -2.865779
 C    3.719526    0.780132   -2.304598
 C    3.841890    0.690162   -0.915488
 N    5.048149    0.279200   -0.315498
 C    5.710672   -0.904973   -0.671266
 N    6.825234   -1.106889    0.139158
 N    5.400748   -1.765468   -1.561346
 H    3.645808   -2.799673    0.258244
 H    4.860252   -1.883274    2.186546
 H    3.646236   -0.569185    3.924474
 H    1.196397   -0.195164    3.684356
 H   -0.013767   -1.108849    1.754983
 H    1.287532   -3.606367   -0.526229
 H    1.295246   -1.983253   -1.248060
 H   -2.301000   -1.623735    0.657363
 H   -2.733846    0.161033   -1.653800
 H   -4.897464    0.797265   -0.627042
 H   -4.797998   -0.836089   -2.482391
 H   -4.604232   -2.157320   -1.333745
 H   -6.966656   -2.013827   -2.072130
 H   -7.047692   -0.322009   -1.588295
 H   -6.623050   -2.705500    0.284612
 H   -8.089488   -1.736238    0.158525
 H   -6.691703   -1.038490    2.123445
 H   -6.866672    0.272175    0.960364
 H   -4.504290    0.084871    1.728236
 H   -4.465816   -1.601214    1.216873
 H   -2.458990    3.319236    0.210333
 H    0.481717    1.264622    1.170894
 H    1.376215    4.666333    1.315929
 H    2.842669    0.939027    0.971461
 H    0.475895    1.786161   -2.503799
 H    2.413241    1.222956   -3.945824
 H    4.568773    0.541517   -2.936747
 H    5.077252    0.440401    0.683560
 H    7.396499   -0.282034    0.274359
 H    7.365050   -1.899836   -0.182962
 H    4.490490   -1.559498   -1.968832
