67 
2pj4_ligand_xtb.xyz
 C    3.153838   -2.408033    0.576717
 C    4.090666   -1.944301    1.481113
 C    3.683688   -1.231493    2.597798
 C    2.336730   -0.995419    2.808130
 C    1.397310   -1.471037    1.908334
 C    1.798800   -2.177323    0.784041
 C    0.801602   -2.717287   -0.208825
 O   -0.530381   -2.381007    0.153927
 C   -1.241957   -1.645529   -0.728765
 O   -0.881552   -1.376367   -1.844958
 N   -2.448460   -1.315591   -0.187134
 C   -3.113728   -0.126550   -0.667954
 C   -4.625710   -0.151158   -0.485668
 C   -5.257153   -1.296823   -1.278591
 C   -6.776265   -1.270802   -1.132796
 C   -7.178613   -1.350358    0.336580
 C   -6.543818   -0.208450    1.124828
 C   -5.024725   -0.250955    0.985766
 P   -2.298606    1.261906    0.233783
 O   -2.043337    1.080476    1.669166
 O   -3.155304    2.535033   -0.189316
 O   -0.913569    1.336690   -0.601970
 C    0.271068    1.522193    0.129005
 C    0.263992    2.938168    0.679924
 O    1.390715    3.293858    1.279064
 O   -0.701348    3.655211    0.608048
 C    1.479979    1.204896   -0.716167
 C    2.711794    1.044570   -0.103929
 C    1.359304    1.053474   -2.089612
 C    2.484825    0.762718   -2.840995
 C    3.722613    0.621947   -2.243141
 C    3.843061    0.743251   -0.858760
 N    5.070794    0.633264   -0.216946
 C    6.093976   -0.262300   -0.530364
 N    7.194734   -0.094717    0.286408
 N    6.102092   -1.193944   -1.383195
 H    3.474581   -2.958987   -0.295192
 H    5.139318   -2.136756    1.311179
 H    4.415827   -0.868508    3.304722
 H    2.010474   -0.444443    3.678469
 H    0.345545   -1.302634    2.085528
 H    0.869887   -3.811172   -0.249896
 H    1.005993   -2.314973   -1.209584
 H   -2.516732   -1.461763    0.812269
 H   -2.857253   -0.027734   -1.726877
 H   -4.999163    0.801815   -0.876860
 H   -4.982593   -1.212753   -2.331776
 H   -4.866345   -2.245664   -0.906351
 H   -7.214709   -2.104671   -1.684689
 H   -7.163597   -0.344355   -1.562883
 H   -6.846354   -2.304593    0.751405
 H   -8.265823   -1.306678    0.427022
 H   -6.821022   -0.282972    2.178008
 H   -6.916153    0.746047    0.746837
 H   -4.570321    0.570601    1.542064
 H   -4.659015   -1.191343    1.403717
 H   -2.717374    3.336167    0.120115
 H    0.268194    0.874554    1.021360
 H    1.313316    4.193885    1.638812
 H    2.799791    1.150757    0.966757
 H    0.392783    1.147663   -2.554166
 H    2.397081    0.654696   -3.911361
 H    4.597506    0.439548   -2.847453
 H    5.074529    0.955483    0.740858
 H    7.415160    0.851111    0.556573
 H    7.989348   -0.632949   -0.022579
 H    5.222621   -1.352600   -1.858408
