66 
2pj5_ligand_dft.xyz
 C    3.569944   -2.024357    0.779259
 C    4.272269   -1.446756    1.832387
 C    3.584166   -0.871641    2.899974
 C    2.191685   -0.886794    2.906425
 C    1.489589   -1.464651    1.850101
 C    2.174138   -2.030426    0.774891
 C    1.449196   -2.619578   -0.415143
 O    0.063938   -2.769536   -0.125360
 C   -0.795678   -1.976229   -0.809552
 O   -0.563886   -1.444674   -1.870717
 N   -1.975105   -1.901639   -0.114703
 C   -2.906148   -0.806850   -0.345179
 C   -4.337553   -1.243601   -0.008503
 C   -5.432811   -0.297564   -0.503311
 C   -6.832681   -0.856420   -0.249052
 C   -7.942600    0.074250   -0.738790
 C   -9.341371   -0.484597   -0.485290
 P   -2.269298    0.585223    0.665993
 O   -1.919705    0.215306    2.060207
 O   -3.287455    1.802454    0.450796
 O   -0.978391    1.036451   -0.212493
 C    0.204789    1.503176    0.391935
 C   -0.023490    2.940242    0.861567
 O   -1.092034    3.514500    0.846917
 O    1.086246    3.496384    1.342645
 C    1.343633    1.380389   -0.600333
 C    2.634153    1.161731   -0.132169
 C    1.098286    1.461903   -1.969027
 C    2.160671    1.347727   -2.858140
 C    3.458755    1.155313   -2.398506
 C    3.697883    1.042920   -1.026305
 N    4.999658    0.837470   -0.528996
 C    5.832939   -0.196885   -0.980254
 N    7.025463   -0.215191   -0.260849
 N    5.612462   -1.073638   -1.881021
 H    4.120149   -2.452016   -0.055568
 H    5.358723   -1.440686    1.808326
 H    4.129574   -0.425831    3.726837
 H    1.642517   -0.451264    3.736292
 H    0.404191   -1.466590    1.869174
 H    1.843153   -3.611694   -0.653927
 H    1.562847   -1.979657   -1.296405
 H   -1.924255   -2.237389    0.838899
 H   -2.825259   -0.528248   -1.399582
 H   -4.470238   -2.228870   -0.471855
 H   -4.431220   -1.392335    1.075861
 H   -5.335981    0.679919   -0.020136
 H   -5.299362   -0.126251   -1.580498
 H   -6.962710   -1.038898    0.827168
 H   -6.935129   -1.834197   -0.741159
 H   -7.839308    1.048966   -0.244187
 H   -7.809209    0.259339   -1.812963
 H   -9.479661   -1.445535   -0.994173
 H   -9.510277   -0.649112    0.585159
 H  -10.116006    0.200374   -0.845061
 H   -2.784236    2.636331    0.565570
 H    0.433750    0.919296    1.293224
 H    0.850115    4.386192    1.652117
 H    2.813998    1.046272    0.933483
 H    0.084500    1.580050   -2.331858
 H    1.977604    1.414937   -3.925870
 H    4.286901    1.094489   -3.097186
 H    5.076793    0.973927    0.471120
 H    7.671952   -0.887618   -0.653024
 H    7.448321    0.695865   -0.134222
 H    4.651586   -1.022023   -2.214338
