81 
2pjc_ligand_xtb.xyz
 C   -1.007268   -2.889937    1.787073
 C   -2.277807   -3.245369    1.371149
 C   -2.659279   -4.577159    1.353878
 C   -1.764423   -5.553950    1.757458
 C   -0.488402   -5.201056    2.165392
 C   -0.100181   -3.867279    2.184475
 C    1.301513   -3.470965    2.574379
 O    1.878398   -2.691058    1.532175
 C    2.010353   -1.353926    1.773571
 O    1.977037   -0.868096    2.878637
 N    2.248453   -0.695389    0.619731
 C    2.070192    0.738772    0.636737
 C    2.459732    1.327989   -0.727280
 C    3.909868    1.065890   -1.016563
 C    4.298631   -0.093183   -1.673633
 C    5.635396   -0.356124   -1.908831
 C    6.609319    0.540840   -1.487880
 O    7.937113    0.324266   -1.702823
 C    6.228294    1.704299   -0.828179
 C    4.890923    1.955301   -0.595741
 C    0.598423    1.046169    0.942241
 O   -0.259957    0.188703    0.878891
 N    0.342275    2.315656    1.313008
 C   -1.016138    2.765447    1.402425
 C   -1.236200    3.906530    2.390006
 C   -0.908802    3.439985    3.806668
 C   -0.437062    5.151667    2.020165
 P   -1.592242    3.266835   -0.298525
 O   -0.151614    3.707896   -0.891063
 O   -2.608201    4.296105   -0.549279
 O   -1.796382    1.936628   -1.213914
 C   -3.090751    1.524115   -1.555758
 C   -4.009633    1.694240   -0.362970
 O   -5.271654    1.386536   -0.616043
 O   -3.612881    2.074087    0.705577
 C   -3.100929    0.078921   -2.008446
 C   -2.130818   -0.799082   -1.553405
 C   -4.107189   -0.358944   -2.860206
 C   -4.144527   -1.688688   -3.241853
 C   -3.162695   -2.564591   -2.823173
 C   -2.130054   -2.122899   -1.995362
 N   -1.157975   -3.030988   -1.597871
 C    0.182754   -2.789867   -1.342817
 N    0.853216   -3.907132   -0.910982
 N    0.833497   -1.719477   -1.562092
 H   -0.713748   -1.851286    1.784204
 H   -2.969483   -2.478324    1.055833
 H   -3.651674   -4.853612    1.028153
 H   -2.057030   -6.594063    1.749545
 H    0.210176   -5.966989    2.472121
 H    1.297742   -2.872109    3.494138
 H    1.934974   -4.351353    2.718341
 H    1.903649   -1.155915   -0.239042
 H    2.697166    1.154657    1.434203
 H    1.836481    0.859433   -1.489478
 H    2.257650    2.400342   -0.726971
 H    3.548681   -0.795167   -2.005147
 H    5.927944   -1.262984   -2.422528
 H    8.058276   -0.516915   -2.159201
 H    6.992960    2.393679   -0.507366
 H    4.606570    2.862625   -0.081919
 H    1.055949    3.016896    1.195965
 H   -1.605394    1.899417    1.710672
 H   -2.300567    4.152880    2.322904
 H    0.132106    3.132232    3.875118
 H   -1.080865    4.243645    4.518439
 H   -1.532213    2.593887    4.083153
 H   -0.688771    5.965906    2.695979
 H    0.634240    4.973965    2.094768
 H   -0.679399    5.462611    1.007156
 H   -0.295259    4.256836   -1.663377
 H   -3.492815    2.163782   -2.355198
 H   -5.820892    1.530976    0.172899
 H   -1.400775   -0.457942   -0.836465
 H   -4.862078    0.330154   -3.204448
 H   -4.937090   -2.040916   -3.884583
 H   -3.186294   -3.598267   -3.137991
 H   -1.411806   -4.004443   -1.687467
 H    0.318039   -4.552072   -0.348398
 H    1.754199   -3.689413   -0.509304
 H    0.292414   -0.976777   -1.987774
