101 
2pk5_ligand_dft.xyz
 O    4.905312   -2.260420    1.985833
 C    4.360359   -1.750443    1.019981
 N    4.135022   -0.418863    0.904453
 C    4.286241    0.466103    2.033622
 C    4.338041    1.915790    1.620412
 C    4.918804    2.470524    0.488936
 C    4.764491    3.838058    0.261005
 C    4.046407    4.626561    1.158181
 C    3.474254    4.063284    2.300408
 C    3.620244    2.701045    2.524106
 C    3.060841    1.839115    3.631077
 C    3.074260    0.428655    3.020409
 O    1.857181    0.258737    2.327572
 C    3.917741   -2.620675   -0.167490
 C    5.023884   -2.854585   -1.224588
 C    6.436086   -2.807607   -0.643256
 C    4.783378   -4.195240   -1.929043
 S    4.793201   -1.446895   -2.387883
 C    2.990823   -1.577356   -2.233070
 N    2.751292   -2.071114   -0.868173
 C    1.609347   -1.972287   -0.144571
 O    1.600696   -2.324948    1.040188
 C    0.347607   -1.338186   -0.738069
 O    0.328300   -1.468131   -2.131305
 C   -0.898923   -1.938492   -0.044842
 C   -1.364014   -3.238173   -0.722034
 C   -2.605682   -3.788370   -0.068950
 C   -2.553970   -4.332055    1.215885
 C   -3.714365   -4.760491    1.852356
 C   -4.945204   -4.649942    1.212553
 C   -5.007811   -4.122604   -0.073417
 C   -3.843881   -3.696857   -0.707465
 N   -1.988719   -0.967607    0.084946
 C   -2.483494   -0.219281   -0.899833
 O   -2.029810   -0.150149   -2.048323
 C   -3.701838    0.646729   -0.524163
 C   -4.990764   -0.189719   -0.371165
 S   -5.402359   -0.546162    1.349336
 O   -6.470022   -1.537311    1.359232
 C   -6.053017    0.998002    1.970979
 O   -4.138030   -0.804606    2.054119
 N   -3.815401    1.651668   -1.552006
 C   -4.361977    2.859973   -1.281437
 O   -5.132930    3.063843   -0.354439
 C   -3.879127    3.975637   -2.213258
 O   -2.482560    3.872453   -2.426325
 C   -1.696709    3.805980   -1.303239
 C   -0.484851    3.068806   -1.443709
 C   -0.080652    2.436731   -2.644057
 C    0.347313    2.919865   -0.309465
 C    1.524722    2.141918   -0.453197
 N    1.886296    1.547988   -1.567615
 C    1.079123    1.708648   -2.651928
 C   -0.013201    3.496141    0.933926
 C   -1.180647    4.201787    1.030495
 C   -2.033492    4.357097   -0.090254
 H    3.614577   -0.073956    0.108643
 H    5.194880    0.168557    2.569700
 H    5.452234    1.843755   -0.220647
 H    5.194878    4.288117   -0.628338
 H    3.921047    5.687412    0.962552
 H    2.904601    4.681298    2.989821
 H    3.707560    1.877978    4.517103
 H    2.049024    2.115117    3.941947
 H    3.205786   -0.358375    3.771578
 H    1.788192   -0.672062    2.052729
 H    3.646318   -3.575348    0.290023
 H    7.168455   -3.025342   -1.426867
 H    6.538824   -3.554588    0.149404
 H    6.664453   -1.828646   -0.214925
 H    4.920802   -5.016743   -1.215844
 H    5.492146   -4.327579   -2.751096
 H    3.769339   -4.268109   -2.335267
 H    2.572263   -2.265026   -2.968269
 H    2.560937   -0.587175   -2.360657
 H    0.411041   -0.280258   -0.436579
 H   -0.459074   -0.964236   -2.415982
 H   -0.601380   -2.158625    0.981345
 H   -0.537345   -3.956175   -0.661654
 H   -1.541583   -3.046781   -1.783360
 H   -1.595185   -4.414504    1.723311
 H   -3.657240   -5.175396    2.854268
 H   -5.854124   -4.963138    1.715668
 H   -5.966331   -4.027625   -0.574102
 H   -3.891750   -3.287378   -1.715214
 H   -2.529610   -0.998701    0.948522
 H   -3.477795    1.146142    0.426698
 H   -4.918323   -1.175060   -0.840841
 H   -5.842861    0.343318   -0.797902
 H   -6.134736    0.881392    3.053452
 H   -7.034759    1.164563    1.525923
 H   -5.382445    1.817233    1.707582
 H   -3.115457    1.565768   -2.283273
 H   -4.170267    4.936582   -1.778738
 H   -4.334981    3.887351   -3.202691
 H   -0.687539    2.520277   -3.537622
 H    2.154536    1.993779    0.418180
 H    1.403817    1.201330   -3.556232
 H    0.640470    3.351647    1.788136
 H   -1.479005    4.645845    1.974802
 H   -2.964496    4.897510    0.036834
