99 
2pk6_ligand_xtb.xyz
 C   -2.227559    1.538165   -1.638537
 C   -0.478420    1.860643    0.077690
 C    0.421201    0.612994    0.006295
 C    0.945265   -1.374716   -1.295171
 C    2.299146   -1.194727   -2.043707
 C    3.187843   -2.416242   -1.780264
 C   -0.000574   -2.318198   -2.042101
 C   -1.333214   -2.402569   -1.347720
 C   -1.426708   -2.863570   -0.039285
 C   -3.804103   -2.538085   -0.058338
 C   -3.723309   -2.088271   -1.364239
 C    4.663173   -3.645206   -0.329479
 C    3.858005   -1.490231    0.436495
 C    3.695621   -1.727500    2.944926
 C    5.966580   -1.673157    1.905034
 C   -0.497917    2.431915    1.497338
 C   -3.737312    1.409645   -1.814252
 C   -1.300656    0.010456    2.696967
 C   -7.369151   -0.480545    0.737201
 C   -6.057610    0.050305    0.655282
 C   -7.761377   -1.033453    1.977824
 C   -5.762931   -0.567499    2.948513
 C   -5.252704   -0.001627    1.810592
 C    4.422569    2.201144   -0.202165
 O    5.612858   -0.294033   -0.725952
 C    4.592854   -0.236646   -0.070459
 N    3.971085    0.905546    0.262018
 C    3.264192    2.987331   -0.750305
 C    2.619462    2.829851   -1.961334
 C    1.550059    3.664858   -2.256415
 C    1.141590    4.630835   -1.348914
 C    1.781757    4.774636   -0.124287
 C    2.842839    3.942012    0.172792
 C    3.683579    3.898110    1.412327
 C    4.915070    3.081198    0.986846
 O    5.404734    2.327405    2.063700
 C    4.512190   -2.083108    1.709907
 S    4.442665   -3.915354    1.444052
 N    3.845449   -2.496205   -0.612590
 O    3.246283   -3.283203   -2.637502
 O    2.116395   -1.072884   -3.420986
 C   -2.650349   -2.921550    0.604097
 C   -2.495135   -2.009035   -1.998769
 N    0.286315   -0.099948   -1.108284
 O    1.200615    0.327221    0.907852
 S   -1.818589    1.744521    2.550255
 N   -1.829354    1.607246   -0.367159
 O   -1.473891    1.561077   -2.596825
 O   -4.327926    1.055739   -0.588096
 C   -5.612928    0.596059   -0.583476
 C   -6.464400    0.623361   -1.659755
 C   -7.764510    0.101713   -1.556462
 C   -8.214431   -0.446702   -0.390714
 N   -6.998579   -1.080795    3.032818
 H   -0.021616    2.594583   -0.602903
 H    1.143831   -1.769290   -0.293958
 H    2.774906   -0.277784   -1.681080
 H   -0.132527   -1.944284   -3.058675
 H    0.464190   -3.305837   -2.095102
 H   -0.536999   -3.190696    0.480065
 H   -4.760657   -2.597007    0.438780
 H   -4.624680   -1.806520   -1.890088
 H    5.718070   -3.452107   -0.546808
 H    4.314662   -4.506878   -0.897605
 H    2.830435   -1.209749    0.684098
 H    3.678404   -0.647806    3.080961
 H    2.673774   -2.087511    2.849906
 H    4.139110   -2.183902    3.826391
 H    6.020950   -0.625291    2.196322
 H    6.546336   -1.808211    0.995661
 H    6.408448   -2.275053    2.695938
 H    0.458351    2.236674    1.981582
 H   -0.687741    3.503548    1.483219
 H   -4.121536    2.373489   -2.179872
 H   -3.919521    0.651362   -2.584785
 H   -1.497380   -0.522145    1.769481
 H   -1.887971   -0.418422    3.502485
 H   -0.243741   -0.023468    2.940048
 H   -8.754129   -1.453282    2.085961
 H   -5.179579   -0.628833    3.857227
 H   -4.254739    0.403300    1.791205
 H    5.214817    2.010453   -0.932629
 H    3.098695    0.876099    0.775774
 H    2.941661    2.082135   -2.670117
 H    1.030629    3.555651   -3.195750
 H    0.314441    5.279618   -1.597676
 H    1.458768    5.527646    0.579205
 H    3.953139    4.886541    1.780384
 H    3.167632    3.367417    2.216254
 H    5.691675    3.764045    0.609254
 H    6.166275    1.820669    1.759927
 H    2.359819   -1.937829   -3.801676
 H   -2.706774   -3.278009    1.622215
 H   -2.435881   -1.651095   -3.017103
 H   -0.212089    0.296071   -1.901044
 H   -2.530686    1.556381    0.367738
 H   -6.154700    1.046706   -2.602581
 H   -8.404208    0.140426   -2.425461
 H   -9.210229   -0.855498   -0.313094
