22 
2poq_ligand_xtb.xyz
 O    2.781114   -1.537871   -0.247554
 C    1.801338   -0.904563    0.017277
 C    1.544732    0.535869   -0.418882
 O    2.718196    1.301514   -0.437568
 C    0.531503    0.995736    0.634404
 O   -0.346590    1.999822    0.225822
 O    0.809277   -1.331524    0.800564
 C   -0.192845   -0.330587    0.961718
 C   -1.385169   -0.667945    0.051767
 O   -1.042477   -0.436146   -1.289708
 C   -2.644934    0.119231    0.430890
 O   -3.657304   -0.300280   -0.463704
 H    1.063107    0.521776   -1.409682
 H    3.457059    0.701416   -0.612381
 H    1.094889    1.321475    1.525823
 H    0.177874    2.696763   -0.186162
 H   -0.525001   -0.373446    2.002518
 H   -1.596448   -1.741455    0.194396
 H   -1.870581   -0.463524   -1.787875
 H   -2.920417   -0.103599    1.469154
 H   -2.446404    1.190196    0.324610
 H   -4.459562    0.199832   -0.286267
