42 
2pq9_ligand_xtb.xyz
 C    2.992226   -1.520727    0.003435
 C    3.305449   -0.241556    0.217230
 C    2.350504    0.738300    0.831626
 C    1.250841   -0.014901    1.585135
 C    0.647754   -1.008934    0.577750
 C    1.658809   -2.121782    0.341487
 C    3.957723   -2.456042   -0.634137
 O    1.776184    1.499713   -0.218149
 O    0.313379    0.905750    2.081918
 O   -0.592798   -1.515012    1.080277
 O    5.181055   -1.937643   -0.788676
 O    3.682211   -3.574707   -0.983320
 P    1.249028    2.977761    0.150828
 O    2.009556    3.608184    1.227377
 O    1.294778    3.697050   -1.255507
 O   -0.328988    2.877449    0.322030
 C   -1.735194   -1.079406    0.405961
 C   -2.944625   -1.316860    1.331647
 C   -1.871813   -1.846779   -0.924945
 O   -2.748957   -2.814562   -0.887426
 O   -1.133271   -1.616101   -1.850541
 P   -2.399316    0.842090   -1.196921
 O   -2.803578    2.279298   -0.769993
 O   -3.474433   -0.079973   -1.562265
 O   -1.253415    1.090592   -2.253857
 O   -1.648162    0.288410    0.154225
 F   -2.993414   -2.577655    1.788635
 F   -2.809530   -0.520517    2.417891
 H    4.263146    0.146488   -0.093520
 H    2.859185    1.429914    1.514568
 H    1.701687   -0.570024    2.421393
 H    0.472218   -0.473779   -0.359113
 H    1.740317   -2.742866    1.237410
 H    1.343320   -2.773331   -0.475396
 H   -0.455447    0.403444    2.390478
 H    5.762780   -2.588770   -1.213546
 H    2.062798    4.264083   -1.304973
 H   -0.479139    2.295200    1.080346
 H   -3.884213   -1.066821    0.821347
 H   -2.803361   -3.279166   -1.741828
 H   -2.017128    2.803260   -0.551453
 H   -0.943880    0.282698   -2.672908
