42 
2pqb_ligand_xtb.xyz
 C    2.288772   -2.311315   -0.025866
 C    3.034561   -1.244401    0.253397
 C    2.467328    0.018373    0.819607
 C    1.042309   -0.155423    1.371242
 C    0.196402   -0.990019    0.399831
 C    0.817136   -2.373673    0.221309
 C    2.883816   -3.530987   -0.635905
 O    2.452335    0.964041   -0.237142
 O    0.521016    1.140115    1.570427
 O   -1.098172   -1.186789    0.989494
 O    2.242182   -4.442656   -1.089355
 O    4.221820   -3.525323   -0.637864
 P    2.356469    2.527413    0.025155
 O    2.613527    2.811777    1.563638
 O    3.717976    3.013737   -0.618075
 O    1.195566    3.206604   -0.578178
 C   -2.204742   -0.589807    0.429130
 C   -3.418672   -1.055940    1.275839
 C   -2.547264   -1.009783   -1.014866
 O   -1.785797   -1.954221   -1.501907
 O   -3.557112   -0.596877   -1.534608
 P   -1.939557    1.648835   -0.887534
 O   -1.211060    0.782096   -1.826667
 O   -3.378459    2.117497   -1.317788
 O   -1.329160    2.962141   -0.371802
 O   -2.167263    0.805408    0.521690
 F   -3.188868   -0.864065    2.583722
 F   -3.632842   -2.375555    1.104420
 H    4.087454   -1.224592    0.019059
 H    3.113201    0.396211    1.622603
 H    1.086868   -0.685588    2.335201
 H    0.119511   -0.457966   -0.552166
 H    0.618901   -2.951974    1.128556
 H    0.333751   -2.900856   -0.601880
 H   -0.446382    1.107523    1.493816
 H    4.553411   -4.335214   -1.058485
 H    1.814768    2.642915    2.070159
 H    3.591209    3.839158   -1.083119
 H   -4.326016   -0.506191    0.988278
 H   -2.062632   -2.187590   -2.405210
 H   -3.864271    1.414340   -1.759187
 H   -0.335138    3.040128   -0.472426
