41 
2pqc_ligand_xtb.xyz
 C    2.507658    1.867397   -0.057344
 C    3.028715    0.665601   -0.305890
 C    2.205067   -0.476148   -0.809463
 C    0.871639   -0.001105   -1.397158
 C    0.212784    0.930587   -0.366348
 C    1.060232    2.199794   -0.259693
 C    3.337525    2.974519    0.484515
 O    1.935087   -1.329310    0.289635
 O    0.132767   -1.155967   -1.665088
 O   -1.104800    1.230943   -0.807082
 O    2.890071    4.013475    0.899799
 O    4.649624    2.713568    0.475012
 P    1.507973   -2.850015   -0.032870
 O    2.043771   -3.555704    1.288847
 O    2.031111   -3.386989   -1.284642
 O   -0.042836   -2.996162    0.300970
 C   -2.149026    1.140613    0.132941
 C   -2.002653    2.027223    1.364894
 C   -3.403119    1.541742   -0.617684
 O   -3.222363    2.539632   -1.457927
 O   -4.468587    1.003990   -0.442969
 P   -2.433149   -0.655271    0.591746
 O   -3.737219   -0.736346    1.495437
 O   -2.422224   -1.526915   -0.595412
 O   -1.326339   -0.984395    1.671724
 H    4.067877    0.461881   -0.099775
 H    2.735729   -1.061253   -1.570334
 H    1.050727    0.559462   -2.327188
 H    0.193951    0.410209    0.595270
 H    0.727649    2.833672    0.564057
 H    0.937615    2.780023   -1.178799
 H   -0.819954   -0.956268   -1.653125
 H    5.137224    3.465217    0.848803
 H    2.877409   -3.986560    1.110883
 H   -0.594146   -2.867544   -0.479046
 H   -1.170382    1.685653    1.975178
 H   -2.911295    1.958956    1.959172
 H   -1.838785    3.060403    1.062980
 H   -4.041900    2.743543   -1.939974
 H   -4.530908   -0.591467    0.972556
 H   -0.820604   -1.776540    1.417145
