24 
2pql_ligand_xtb.xyz
 N   -5.010228   -0.953953   -0.757627
 C   -2.007870    0.153572   -0.018514
 C   -1.654565    0.429254    1.391295
 C   -0.611260    0.646260    0.309496
 C   -0.126566    1.987807   -0.066387
 N    1.116165    2.029133   -0.376124
 C    1.615470    0.731044   -0.248718
 C    0.609531   -0.164502    0.167457
 C    2.907708    0.295570   -0.478617
 C    3.179460   -1.049691   -0.285576
 C    2.189822   -1.933026    0.123822
 C    0.891556   -1.500152    0.355023
 H   -5.173025   -1.696448   -1.427040
 H   -5.209644   -1.324213    0.163777
 H   -5.686227   -0.223231   -0.944443
 H   -2.667252    0.832158   -0.535539
 H   -2.099811   -0.870060   -0.344518
 H   -1.484139   -0.399760    2.061303
 H   -2.053078    1.311290    1.869518
 H   -0.740863    2.872087   -0.086027
 H    3.671775    0.986551   -0.797327
 H    4.179762   -1.420298   -0.456473
 H    2.434369   -2.975999    0.264675
 H    0.126858   -2.195156    0.672669
