24 
2pql_ligand_dft.xyz
 N   -3.858809   -0.952483   -0.385607
 C   -2.480694   -0.271418   -0.572900
 C   -2.026234    0.434187    0.695151
 C   -0.618904    0.843522    0.440199
 C   -0.114315    2.108996    0.099196
 N    1.183753    2.114072   -0.230274
 C    1.565468    0.801472   -0.125760
 C    0.483002   -0.043493    0.285728
 C    2.826038    0.238196   -0.373831
 C    3.000811   -1.129113   -0.225479
 C    1.935775   -1.959793    0.177761
 C    0.682015   -1.427372    0.435336
 H   -4.172365   -1.458108   -1.217435
 H   -3.802386   -1.614867    0.392322
 H   -4.566851   -0.255429   -0.143146
 H   -2.592298    0.420524   -1.408414
 H   -1.789244   -1.071587   -0.843314
 H   -2.115271   -0.259886    1.550607
 H   -2.671003    1.299981    0.900535
 H   -0.684705    3.038409    0.099188
 H    3.648079    0.879490   -0.681619
 H    3.975092   -1.571979   -0.417781
 H    2.105487   -3.027841    0.295277
 H   -0.126907   -2.080929    0.772529
