54 
2pre_ligand_xtb.xyz
 C    0.979968    2.699984   -0.768159
 O    2.202564    2.706257   -0.507792
 O    0.418744    1.943753   -1.585434
 C    0.139299    3.707737    0.028579
 C   -1.361928    3.387710    0.096322
 O   -2.039868    4.310768    0.912131
 C   -1.556835    1.986664    0.669217
 O   -1.564053    1.794165    1.880269
 N   -1.763675    1.018149   -0.234017
 C   -1.975886   -0.365881    0.158553
 C   -2.806013   -1.077926   -0.904900
 C   -3.221487   -2.501779   -0.516691
 C   -4.137022   -2.518369    0.705380
 C   -3.927132   -3.158392   -1.702083
 C   -0.598399   -1.009266    0.349643
 O   -0.097408   -1.740911   -0.492557
 N   -0.008891   -0.652673    1.501179
 C    1.389945   -0.899063    1.820566
 C    1.755865   -2.379554    1.656757
 C    3.253786   -2.663459    1.516387
 C    3.971355   -1.868226    0.409327
 N    3.157831   -1.670325   -0.773042
 C    2.799603   -0.452751   -1.245720
 N    3.553681    0.616903   -1.064533
 N    1.721230   -0.344954   -2.015541
 H    3.044774    1.572427   -0.990738
 H    0.268804    4.692523   -0.425559
 H    0.550729    3.753279    1.040295
 H   -1.803485    3.454315   -0.902218
 H   -1.926460    4.008430    1.825649
 H   -1.441210    1.198957   -1.179375
 H   -2.500569   -0.336814    1.118771
 H   -2.212034   -1.123907   -1.820371
 H   -3.697712   -0.480233   -1.103795
 H   -2.316950   -3.074720   -0.289961
 H   -4.998664   -1.874447    0.542625
 H   -4.495858   -3.528632    0.888310
 H   -3.617233   -2.182859    1.598997
 H   -4.201491   -4.183025   -1.462966
 H   -4.833187   -2.610833   -1.953067
 H   -3.280138   -3.172363   -2.575723
 H   -0.480943    0.066193    2.041714
 H    2.011882   -0.273013    1.172232
 H    1.552804   -0.577687    2.850688
 H    1.238715   -2.757494    0.776694
 H    1.377338   -2.936224    2.515505
 H    3.764339   -2.449626    2.456935
 H    3.364222   -3.731509    1.319148
 H    4.254480   -0.890438    0.805109
 H    4.892962   -2.395901    0.136869
 H    2.522893   -2.423608   -0.993692
 H    4.415249    0.531416   -0.552834
 H    1.296440    0.609617   -2.077415
 H    1.038529   -1.090355   -1.952150
