64 
2psx_ligand_xtb.xyz
 N    3.142295   -0.435935    1.328752
 C    2.578621    0.843718    0.888768
 C    1.060461    0.728252    1.084494
 O    0.573574   -0.168276    1.753900
 C    2.946245    1.122434   -0.576995
 C    4.444154    0.999238   -0.893202
 C    5.277333    1.989797   -0.082911
 C    4.658148    1.240448   -2.386418
 N    0.311545    1.676598    0.499806
 C   -1.122839    1.499866    0.427888
 C   -1.418426    0.163686   -0.261731
 O   -0.595185   -0.419498   -0.953052
 C   -1.770197    2.643647   -0.354601
 C   -1.655475    4.007732    0.340864
 C   -2.519356    4.067508    1.597727
 C   -2.073927    5.105581   -0.635005
 N   -2.649349   -0.307555   -0.038381
 C   -3.206391   -1.455601   -0.713966
 C   -4.652041   -1.152057   -1.058646
 O   -5.212832   -0.154462   -0.711599
 C   -3.154696   -2.724876    0.160370
 C   -1.736268   -3.115843    0.573571
 C   -0.877532   -3.578654   -0.609604
 N    0.401125   -4.098305   -0.161200
 C    1.460632   -3.348911    0.164647
 N    1.572860   -2.083028   -0.159727
 N    2.484096   -3.947406    0.797488
 H    4.143061   -0.355923    1.470190
 H    2.308685   -1.501653    0.305235
 H    2.706089   -0.681822    2.215389
 H    2.921422    1.681649    1.517010
 H    2.643885    2.140016   -0.831914
 H    2.394145    0.431221   -1.217106
 H    4.774096   -0.019526   -0.665270
 H    5.210918    1.799997    0.986078
 H    4.944854    3.008290   -0.270880
 H    6.323514    1.918880   -0.368494
 H    4.359200    2.250683   -2.656298
 H    5.706807    1.117775   -2.643095
 H    4.076354    0.539036   -2.979704
 H    0.727971    2.326032   -0.147137
 H   -1.516225    1.449465    1.449215
 H   -1.295862    2.694464   -1.338581
 H   -2.826697    2.417653   -0.512146
 H   -0.611483    4.174713    0.628164
 H   -2.459966    5.057189    2.042185
 H   -3.560446    3.867684    1.354091
 H   -2.190380    3.348675    2.344176
 H   -1.448135    5.097890   -1.524595
 H   -1.986858    6.081882   -0.166329
 H   -3.107768    4.965326   -0.941511
 H   -3.321134    0.248004    0.475998
 H   -2.645311   -1.620317   -1.640888
 H   -5.152729   -1.943722   -1.639303
 H   -3.619881   -3.544627   -0.389115
 H   -3.742159   -2.543941    1.062189
 H   -1.808060   -3.930502    1.297184
 H   -1.247415   -2.273960    1.067486
 H   -0.699991   -2.751665   -1.297661
 H   -1.383125   -4.379586   -1.152762
 H    0.391661   -5.048596    0.177929
 H    0.773350   -1.563973   -0.515715
 H    3.326791   -3.427527    0.968771
 H    2.497681   -4.937661    0.964552
