15 
2pu0_ligand_dft.xyz
 C   -0.004333    0.578719    0.940589
 C    1.236258   -0.067068    0.375016
 N    2.321574    0.709142    0.243701
 O    3.427811    0.172887   -0.389170
 O    1.304499   -1.267545    0.077757
 O   -2.778642    0.613868    0.509439
 O   -1.407209   -1.510506   -0.014185
 O   -1.068233    0.608658   -1.459846
 P   -1.499325    0.082015    0.012693
 H    0.056390    1.669764    0.963621
 H   -0.143791    0.224361    1.967435
 H    2.289906    1.713290    0.157934
 H    3.130592   -0.741914   -0.571052
 H   -0.464953   -1.790104   -0.076423
 H   -1.846646    0.721587   -2.023418
