37 
2pvh_ligand_xtb.xyz
 N    3.726571   -1.159642    0.080387
 C    4.162840   -2.409432    0.064662
 C    3.128347   -3.345507    0.000700
 C    1.967382   -2.590678   -0.019771
 N    2.391380   -1.268052    0.030711
 N    0.663867   -2.877895   -0.066589
 C   -0.157619   -1.846842   -0.042255
 N    0.201350   -0.538899   -0.019335
 C    1.476288   -0.260136    0.003501
 N    1.996985    0.981362    0.017921
 C    1.364124    2.220349   -0.063786
 C    0.032879    2.355863   -0.443532
 C   -0.535934    3.614718   -0.507981
 C    0.207925    4.743011   -0.206578
 C    1.538387    4.608759    0.155856
 C    2.117247    3.356484    0.226643
 N   -1.475371   -2.162269   -0.081530
 C   -2.605683   -1.361964    0.033932
 C   -2.577869   -0.087350    0.593345
 C   -3.742956    0.651137    0.686622
 C   -4.947573    0.132701    0.242850
 C   -4.983165   -1.144575   -0.292506
 C   -3.824360   -1.888444   -0.396130
 H    5.218472   -2.597685    0.100297
 H    3.205219   -4.410957   -0.021875
 H    3.007367    0.982985    0.117397
 H   -0.540820    1.478811   -0.688198
 H   -1.570427    3.710721   -0.802174
 H   -0.243119    5.722210   -0.258205
 H    2.128993    5.483304    0.384845
 H    3.155402    3.251336    0.508338
 H   -1.634656   -3.148899   -0.236944
 H   -1.647387    0.312234    0.957471
 H   -3.706676    1.639953    1.119800
 H   -5.853569    0.714381    0.320429
 H   -5.918792   -1.564030   -0.631996
 H   -3.855035   -2.885165   -0.813575
