45 
2pvn_ligand_dft.xyz
 N   -2.065991    3.033584    0.114001
 C   -1.014258    3.827264    0.188411
 C    0.215794    3.123543    0.200540
 C   -0.141648    1.774489    0.125551
 N   -1.515595    1.787170    0.077798
 N    0.550163    0.625469    0.100246
 C   -0.200861   -0.462869    0.044697
 N   -1.569675   -0.523094   -0.007792
 C   -2.220688    0.609965    0.006751
 N   -3.554179    0.761149   -0.039058
 C   -4.584084   -0.201871   -0.107999
 C   -5.892584    0.285146   -0.032540
 C   -6.967403   -0.589724   -0.101608
 C   -6.750702   -1.957663   -0.245107
 C   -5.447166   -2.435396   -0.320188
 C   -4.357764   -1.571297   -0.254576
 N    0.364902   -1.697095    0.040226
 C    1.714305   -2.088141    0.144983
 C    2.766399   -1.266381   -0.256800
 C    4.081823   -1.720021   -0.134661
 C    4.330910   -3.014606    0.334478
 C    3.271586   -3.837027    0.690622
 C    1.962981   -3.380724    0.613375
 C    1.521298    3.664483    0.283989
 N    2.583018    4.127135    0.355303
 N    5.180387   -0.940770   -0.528802
 C    5.440943    0.420369   -0.450248
 O    6.529552    0.820668   -0.819356
 C    4.378223    1.344505    0.089631
 H   -1.150921    4.898919    0.233298
 H   -3.841815    1.733701   -0.000841
 H   -6.067906    1.352053    0.082050
 H   -7.977844   -0.197717   -0.041669
 H   -7.590492   -2.642798   -0.298410
 H   -5.265401   -3.499767   -0.434252
 H   -3.346551   -1.947502   -0.314315
 H   -0.317113   -2.440790    0.068899
 H    2.551373   -0.292363   -0.665896
 H    5.354416   -3.365752    0.427588
 H    3.468994   -4.840962    1.053111
 H    1.138972   -4.019257    0.919741
 H    6.010695   -1.450465   -0.802184
 H    4.865854    2.262852    0.415978
 H    3.671024    1.615586   -0.700545
 H    3.806457    0.909813    0.913017
