26 
2pvu_ligand_xtb.xyz
 N   -2.742971   -1.537469   -0.059907
 C   -1.670771   -0.582205    0.355566
 C   -2.118015    0.861113    0.002131
 O   -1.359444    1.764798   -0.140398
 C   -0.319366   -0.932118   -0.278683
 C    0.837099   -0.218984    0.435792
 C    2.178221   -0.447946   -0.270467
 C    3.279033    0.344238    0.429814
 N    4.593065    0.187647   -0.262454
 O   -3.439921    0.922866   -0.094342
 H   -3.660709   -1.108560    0.155816
 H   -2.709956   -1.703981   -1.075709
 H   -2.665947   -2.442551    0.421951
 H   -1.586528   -0.618915    1.448393
 H   -0.163587   -2.011489   -0.222507
 H   -0.324236   -0.637213   -1.329700
 H    0.627983    0.849431    0.458852
 H    0.903694   -0.577871    1.463442
 H    2.092151   -0.120214   -1.307839
 H    2.418707   -1.512638   -0.263731
 H    3.022427    1.405079    0.441672
 H    3.392156    0.005003    1.460876
 H    4.534185    0.525108   -1.233478
 H    5.326772    0.725709    0.219481
 H    4.880218   -0.800920   -0.282536
 H   -3.760280    1.826875   -0.265456
