25 
2pvw_ligand_xtb.xyz
 O   -2.745889   -1.613138   -0.570387
 C    0.986451   -0.457837    1.103924
 O    3.452388   -1.279801    0.734363
 C   -0.327528   -0.047944    0.437868
 C   -0.090481    1.321044   -0.159415
 C   -1.473179   -0.033278    1.453113
 C   -2.810968    0.361516    0.831074
 O   -4.506718   -0.254668   -0.675425
 O    0.441914    1.221360   -1.386406
 C   -3.310329   -0.620087   -0.197490
 P    2.431821   -0.305832   -0.015401
 O    2.082732   -1.155921   -1.329987
 O   -0.316806    2.372468    0.368980
 O    2.998766    1.018757   -0.295009
 H    1.188265    0.174966    1.968911
 H    0.940439   -1.496051    1.429342
 H    4.350462   -1.003513    0.547570
 H   -0.552649   -0.747737   -0.371113
 H   -1.558542   -1.027507    1.893669
 H   -1.235279    0.682677    2.241259
 H   -3.577942    0.441700    1.604204
 H   -2.737940    1.341714    0.355506
 H   -4.820255   -0.893448   -1.335265
 H    0.744184    2.092814   -1.692130
 H    1.687055   -0.591080   -1.994428
