29 
2pwg_ligand_xtb.xyz
 C   -0.279832   -1.328774    0.908775
 C   -1.687793   -1.136775    0.340900
 C   -1.911098    0.337563   -0.099537
 C   -0.594756    1.149264   -0.119878
 C    0.608668    0.356525   -0.644694
 C    1.955656    0.915262   -0.152736
 O   -1.751120   -2.022699   -0.760535
 O   -2.744316    1.032196    0.789033
 O   -0.700652    2.248898   -0.980287
 O    1.858909    1.158325    1.227789
 N    0.639381   -1.079846   -0.218835
 C    2.890368   -0.266600   -0.446336
 C    2.061516   -1.444958    0.055326
 H   -0.063236   -0.640674    1.724774
 H   -0.159183   -2.361671    1.240396
 H   -2.428161   -1.394518    1.108163
 H   -2.326666    0.336443   -1.119328
 H   -0.404613    1.481787    0.909641
 H    0.579374    0.412928   -1.735580
 H    2.217720    1.820232   -0.707048
 H   -2.661627   -2.168825   -1.036745
 H   -3.663442    0.754844    0.702935
 H   -1.366754    2.856101   -0.635529
 H    2.566036    1.745623    1.513481
 H    0.249033   -1.655682   -0.975812
 H    3.093440   -0.334687   -1.513525
 H    3.834103   -0.186072    0.087544
 H    2.183851   -1.542016    1.134641
 H    2.315517   -2.387688   -0.425085
