46 
2pyi_ligand_xtb.xyz
 C    4.953219    1.548165    0.159110
 C    6.154471    2.092275   -0.251537
 C    7.100675    1.297944   -0.879304
 C    6.840091   -0.045279   -1.095899
 C    5.640152   -0.596411   -0.687766
 C    4.685325    0.197131   -0.055433
 C    3.416411   -0.356178    0.383429
 C    2.916530   -1.648328    0.296506
 N    2.467776    0.395604    0.990838
 N    1.459809   -0.332806    1.274510
 N    1.695745   -1.582434    0.866998
 C    0.712961   -2.613259    1.021110
 C   -0.576224   -2.329187    0.227042
 O   -1.140248   -3.224404   -0.374840
 N   -0.980705   -1.062163    0.323361
 C   -2.079448   -0.400520   -0.352560
 O   -2.068994    0.868900    0.239971
 C   -3.073821    1.762980   -0.211712
 C   -2.835757    3.091818    0.512951
 O   -1.604052    3.661205    0.173236
 C   -4.459884    1.187214    0.088479
 O   -5.439038    2.069412   -0.384623
 C   -4.575010   -0.177290   -0.594510
 O   -5.824882   -0.730453   -0.265686
 C   -3.435388   -1.120558   -0.178049
 O   -3.564500   -2.247134   -0.997278
 H    4.205625    2.151965    0.649213
 H    6.355431    3.139826   -0.082475
 H    8.039878    1.723982   -1.199939
 H    7.575935   -0.666232   -1.585733
 H    5.444778   -1.644200   -0.861379
 H    3.314741   -2.556421   -0.102028
 H    1.120870   -3.567669    0.683628
 H    0.434817   -2.695598    2.077873
 H   -0.383572   -0.410546    0.842182
 H   -1.872887   -0.329663   -1.439990
 H   -2.977596    1.919132   -1.296642
 H   -2.902733    2.914090    1.594929
 H   -3.610988    3.797484    0.212494
 H   -0.913831    3.016803    0.373531
 H   -4.563066    1.043400    1.176640
 H   -6.277123    1.588176   -0.379515
 H   -4.507273   -0.033864   -1.686208
 H   -5.822751   -1.641244   -0.586035
 H   -3.555434   -1.382805    0.886864
 H   -2.775294   -2.817347   -0.884745
