86 
2pyn_ligand_xtb.xyz
 C    2.696072   -3.015566   -0.485311
 C    4.121145   -2.707666   -0.007557
 C    5.147735   -3.499578   -0.823996
 C    4.966388   -3.323048   -2.329065
 C    3.545881   -3.691135   -2.743925
 C    2.532741   -2.828027   -1.996534
 N    1.985173   -0.731222    0.186045
 C    3.327079   -0.413221    0.718568
 C    4.383114   -1.201163   -0.061296
 C    1.692397   -2.178302    0.305130
 C    3.623361    1.090795    0.510096
 N    4.512880    1.590031    1.369842
 C    5.051617    2.963131    1.332089
 C    3.899881    3.955140    1.497009
 C    6.031731    3.084418    2.495108
 C    5.767153    3.184949   -0.000431
 O    3.079214    1.692096   -0.392830
 C    0.883894    0.116121    0.697969
 C    0.249684    0.833895   -0.533689
 C   -1.244961    1.159463   -0.340099
 O    0.481129    0.069013   -1.679127
 N   -2.027626    0.084042    0.243378
 C   -1.417190    2.396750    0.543419
 C   -2.058473   -1.212985   -0.111076
 O   -1.213071   -1.723620   -0.849020
 C   -3.188966   -1.994119    0.444449
 C   -3.787094   -2.890267   -0.442610
 C   -4.889463   -3.622614   -0.055215
 C   -5.391580   -3.479703    1.225548
 C   -4.782425   -2.613852    2.124954
 C   -3.664727   -1.854370    1.749409
 O   -5.236186   -2.470797    3.394731
 C   -3.033699   -0.986054    2.797443
 S   -3.177275    2.697385    0.952855
 C   -3.839515    2.873938   -0.699821
 C   -4.778476    1.959347   -1.150158
 C   -5.299021    2.094360   -2.425596
 C   -4.877973    3.130827   -3.242222
 C   -3.942889    4.043361   -2.781243
 C   -3.424947    3.923069   -1.504088
 H    2.482703   -4.065702   -0.261389
 H    4.207097   -3.023806    1.039764
 H    6.155282   -3.199622   -0.531554
 H    5.035031   -4.557712   -0.580694
 H    5.679387   -3.962786   -2.849268
 H    5.181302   -2.293818   -2.621271
 H    3.363662   -4.743736   -2.519641
 H    3.424258   -3.552589   -3.818221
 H    2.676445   -1.786502   -2.290750
 H    1.519425   -3.113072   -2.283561
 H    1.953952   -0.510494   -0.846189
 H    3.341621   -0.680217    1.781238
 H    4.385389   -0.849716   -1.093614
 H    5.367406   -0.986879    0.358310
 H    0.685604   -2.358755   -0.080154
 H    1.723615   -2.443440    1.365933
 H    4.922069    0.982321    2.062758
 H    3.374048    3.779163    2.433081
 H    3.200107    3.857800    0.672211
 H    4.287802    4.968770    1.503743
 H    6.452135    4.085071    2.518134
 H    6.851322    2.376858    2.386772
 H    5.531031    2.905852    3.444587
 H    5.068934    3.073476   -0.824941
 H    6.576370    2.468612   -0.123801
 H    6.183882    4.186642   -0.032611
 H    1.262876    0.848601    1.408884
 H    0.146537   -0.513429    1.196342
 H    0.786757    1.773119   -0.703261
 H   -1.637573    1.388862   -1.344098
 H   -0.154273   -0.697820   -1.643688
 H   -2.817762    0.441900    0.774794
 H   -1.009086    3.276925    0.051028
 H   -0.929830    2.262211    1.508191
 H   -3.379209   -2.987609   -1.436397
 H   -5.358550   -4.305495   -0.745367
 H   -6.255188   -4.050183    1.538486
 H   -6.000839   -3.040681    3.542192
 H   -1.978335   -0.812669    2.603456
 H   -3.141354   -1.470728    3.765217
 H   -3.545485   -0.025588    2.867538
 H   -5.104393    1.156945   -0.504879
 H   -6.033017    1.386977   -2.779675
 H   -5.284003    3.232416   -4.236713
 H   -3.622007    4.858071   -3.412124
 H   -2.711287    4.643446   -1.132926
