20 
2pyy_ligand_xtb.xyz
 N    0.802347    1.683489    0.412085
 C    1.139000    0.313353    0.874265
 C    1.727182   -0.497164   -0.295972
 O    2.335804    0.306652   -1.166301
 C   -0.071873   -0.370651    1.523366
 C   -1.130292   -0.946043    0.575131
 C   -1.908878    0.035556   -0.254607
 O   -3.038645   -0.449546   -0.682319
 O   -1.535154    1.169375   -0.531279
 O    1.660309   -1.682526   -0.385815
 H    0.773021    2.355454    1.181983
 H   -0.196082    1.613904   -0.042969
 H    1.483064    1.993459   -0.291387
 H    1.943155    0.373628    1.618744
 H    2.761888   -0.193446   -1.882900
 H   -0.537784    0.333612    2.215128
 H    0.303049   -1.208758    2.111482
 H   -1.850461   -1.523815    1.157014
 H   -0.664919   -1.657081   -0.114147
 H   -3.540698    0.166677   -1.244916
