47 
2pze_ligand_xtb.xyz
 P   -3.247666   -0.728258   -0.996136
 O   -4.013000   -0.242635   -2.284655
 O   -1.903401   -1.198962   -1.299834
 O   -4.290941   -1.700131   -0.338063
 P   -2.155663    1.380012    0.673598
 O   -1.760588    2.549763   -0.258830
 O   -2.472758    1.682049    2.062247
 O   -3.325976    0.603122   -0.067044
 P   -1.054722   -0.940823    1.495354
 O   -2.357254   -1.600665    1.381378
 O   -0.704901   -0.395297    2.924785
 O   -0.896322    0.376952    0.577088
 O    0.220608   -1.786168    1.158367
 C    0.145977   -2.903073    0.263729
 C    1.468509   -3.055144   -0.496274
 O    1.596683   -2.092719   -1.535482
 C    2.709198   -2.882806    0.394387
 O    3.764007   -3.661548   -0.092868
 C    3.001401   -1.380544    0.254374
 O    4.360004   -1.110402    0.408138
 C    2.475500   -1.076253   -1.173455
 N    1.825290    0.216453   -1.200890
 C    0.631728    0.559980   -1.745749
 N    0.313171    1.809245   -1.537316
 C    1.347667    2.334196   -0.798988
 C    1.585960    3.578503   -0.185377
 N    0.730169    4.612755   -0.247848
 N    2.740615    3.739302    0.469920
 C    3.591658    2.734867    0.550895
 N    3.458412    1.507826    0.074467
 C    2.311927    1.338999   -0.592764
 H   -4.937125   -0.053271   -2.121050
 H   -3.910353   -2.038257    0.483401
 H   -1.045340    2.288211   -0.950951
 H   -1.296478    0.340338    3.139291
 H   -0.661525   -2.745639   -0.453422
 H   -0.044547   -3.801348    0.855715
 H    1.480778   -4.038036   -0.978069
 H    2.487005   -3.146388    1.436352
 H    4.578744   -3.159422    0.057239
 H    2.393176   -0.830183    0.982537
 H    4.454061   -0.137563    0.386522
 H    3.320158   -1.051059   -1.884932
 H    0.014358   -0.149719   -2.259644
 H   -0.221188    4.436429   -0.524518
 H    0.931992    5.408915    0.333530
 H    4.507017    2.934744    1.090921
