32 
2q1q_ligand_xtb.xyz
 O    3.780651   -1.551629   -0.935458
 S    2.923266   -0.985450    0.060446
 O    2.173006   -1.869965    0.894355
 C    3.911220    0.133856    1.114634
 C    3.116352    1.404538    1.328266
 C    3.005035    2.191987    0.022668
 C    2.627686    1.252038   -1.138166
 N    1.879676    0.096540   -0.706639
 C    0.504937    0.098706   -0.535279
 C   -0.230199    1.285914   -0.460464
 C   -1.603927    1.244793   -0.311537
 C   -0.170113   -1.125612   -0.484991
 C   -1.540186   -1.156750   -0.320722
 C   -2.246651    0.027462   -0.231616
 S   -4.004186   -0.012938    0.017816
 O   -4.548779   -1.217119   -0.539062
 O   -4.574539    1.251864   -0.346808
 N   -4.078337   -0.130547    1.700378
 H    4.857258    0.306458    0.609653
 H    4.071809   -0.414862    2.037800
 H    3.585313    2.022975    2.096402
 H    2.119679    1.129433    1.682472
 H    3.958633    2.669872   -0.206979
 H    2.262157    2.980965    0.144568
 H    3.532766    0.843346   -1.595252
 H    2.067698    1.779459   -1.912841
 H    0.263128    2.241788   -0.523029
 H   -2.191488    2.147422   -0.260182
 H    0.395015   -2.037799   -0.568204
 H   -2.079537   -2.089411   -0.287211
 H   -4.421079   -1.030638    1.994701
 H   -4.623641    0.616426    2.098754
