68 
2q2y_ligand_xtb.xyz
 C    6.204024   -0.256954   -0.710481
 C    5.090881    0.265390   -0.099812
 C    3.827162   -0.203531   -0.498003
 C    3.707527   -1.227494   -1.470283
 C    4.867081   -1.708433   -2.085544
 C    6.102821   -1.230156   -1.715744
 N    2.681119    0.346143    0.002202
 N    2.614054    1.166014    0.947824
 C    1.281396    1.605097    1.118553
 C    0.392135    0.506604    0.450010
 C    1.393720    0.000128   -0.618584
 C    0.114130   -0.606014    1.460590
 C    1.314903    3.010536    0.401894
 C    1.697933    4.117551    1.307492
 O    1.103764    3.081778   -0.772157
 C   -0.948338   -1.489500    1.269686
 C   -1.179682   -2.524082    2.158584
 C   -0.355684   -2.708568    3.255422
 C    0.721255   -1.860616    3.438495
 C    0.956673   -0.825217    2.549461
 O    2.528623   -1.762197   -1.808500
 F    7.404713    0.177338   -0.354385
 C    1.432603   -1.482448   -0.957763
 C   -0.888475    1.054063   -0.199409
 C   -1.852250    1.664353    0.824825
 C   -3.092412    2.271276    0.167997
 N   -4.011426    1.234127   -0.358241
 C   -4.948253    0.702415    0.670649
 C   -4.796361    1.630019   -1.551211
 C   -5.978798   -0.254386    0.007705
 C   -5.274520    0.319480   -2.203736
 N   -5.392040   -0.745768   -1.218229
 C   -4.297483   -1.589483   -1.048978
 C   -4.591612   -2.920679   -0.455778
 O   -3.177065   -1.211578   -1.372432
 H    5.172833    1.031893    0.653609
 H    4.765854   -2.471036   -2.840777
 H    7.004658   -1.601441   -2.177901
 H    1.069794    1.770494    2.174955
 H    1.304232    0.584945   -1.543810
 H    0.943382    4.265101    2.078943
 H    2.630794    3.868817    1.812657
 H    1.818251    5.037794    0.740477
 H   -1.585783   -1.405993    0.404353
 H   -2.001160   -3.202163    1.985911
 H   -0.542157   -3.511658    3.949605
 H    1.387782   -2.001820    4.274103
 H    1.823027   -0.204293    2.723977
 H    1.520487   -2.086984   -0.044029
 H    0.539142   -1.791082   -1.503600
 H   -0.614355    1.817488   -0.929109
 H   -1.359691    0.240028   -0.750800
 H   -2.134448    0.917712    1.568882
 H   -1.346081    2.471896    1.355045
 H   -3.634811    2.895529    0.880642
 H   -2.776885    2.905039   -0.663769
 H   -3.416913    0.440844   -0.703143
 H   -4.366251    0.171872    1.426068
 H   -5.455753    1.542573    1.148809
 H   -5.626512    2.265447   -1.238243
 H   -4.170323    2.192006   -2.243999
 H   -6.216083   -1.076571    0.681429
 H   -6.907215    0.264524   -0.234927
 H   -4.575501   -0.008898   -2.974587
 H   -6.254052    0.456136   -2.667191
 H   -5.657685   -3.116419   -0.418008
 H   -4.105289   -3.681793   -1.065220
 H   -4.162493   -2.999764    0.542716
