17 
2q38_ligand_xtb.xyz
 C   -2.530329   -1.466182   -0.002072
 C   -1.160285   -1.705411   -0.003707
 C   -0.317533   -0.618582   -0.002057
 C    0.257822    1.733271   -0.000673
 C   -3.023490   -0.169134    0.001705
 S    1.460850   -0.580328    0.000634
 N    1.478139    1.125492    0.000323
 O    0.068190    2.923854   -0.002740
 C   -0.795175    0.681613    0.000371
 C   -2.162367    0.917957    0.002573
 O    2.021353   -1.051404    1.225701
 O    2.028066   -1.051392   -1.221353
 H   -3.215312   -2.300133   -0.003605
 H   -0.762321   -2.707370   -0.006357
 H   -4.090371   -0.005061    0.003931
 H    2.321093    1.676176   -0.001218
 H   -2.526398    1.933531    0.005139
