74 
2q6c_ligand_xtb.xyz
 N    0.934679    1.819600   -0.446604
 C    7.249464   -0.262994    1.641679
 C   -0.188120   -0.124207   -0.409542
 C    1.166191    3.255166   -0.488287
 C   -1.583925    1.987928   -0.675892
 C   -2.108368    2.408185    0.703047
 C   -4.561102    2.432228   -0.081777
 C    2.012539    3.637125   -1.700789
 C   -3.104638   -2.204531   -1.552674
 C    6.157716   -0.043995   -0.898004
 C    5.336686   -0.244988    0.200661
 C   -1.718662   -1.663331    0.793149
 C    2.060521   -4.048448   -0.024900
 C   -2.783737   -2.544095    0.821329
 C    5.878987   -0.348163    1.473207
 C    3.438391   -3.954723    0.129627
 O    3.977723    1.926556   -0.163237
 C    3.293255    0.910627   -0.148140
 C    1.860827    0.818675   -0.280492
 C    1.786496    3.747053    0.818115
 C    1.186571   -0.408910   -0.250641
 C    1.903618   -1.642589   -0.121080
 C    1.305559   -2.904580   -0.152629
 C    3.301868   -1.552384    0.025598
 C    4.055144   -2.723094    0.149317
 N    3.918304   -0.316380    0.025476
 C    8.073585   -0.066563    0.546221
 C    7.527045    0.045742   -0.720898
 C   -1.323894   -1.056832   -0.398035
 C   -3.452658   -2.807445   -0.359026
 C   -2.035368   -1.326477   -1.563794
 F   -4.491097   -3.681267   -0.347876
 C   -0.297201    1.248256   -0.540741
 C   -3.427907    3.179178    0.640604
 O   -3.159981    4.410168   -0.007551
 C   -4.810759    1.032120    0.480899
 O   -5.005254    1.133224    1.867163
 C   -6.035886    0.389435   -0.202955
 C   -6.178687   -1.045275    0.238054
 O   -5.933510   -1.442258    1.350807
 O   -6.593407   -1.840034   -0.740587
 H    7.673513   -0.344751    2.631452
 H    0.182401    3.720477   -0.591652
 H   -2.301156    1.314167   -1.145497
 H   -1.488642    2.871402   -1.307383
 H   -1.377482    3.061638    1.181638
 H   -2.241293    1.529948    1.333814
 H   -5.477819    3.017083    0.030923
 H   -4.329109    2.361754   -1.144980
 H    1.574405    3.233144   -2.611556
 H    3.022150    3.254359   -1.586827
 H    2.058273    4.719349   -1.785564
 H   -3.658425   -2.429147   -2.450853
 H    5.719370    0.047283   -1.880317
 H   -1.175802   -1.446743    1.700829
 H    1.583375   -5.016371   -0.049352
 H   -3.101023   -3.018938    1.735700
 H    5.225178   -0.495274    2.320345
 H    4.033823   -4.850043    0.227315
 H    1.205223    3.398388    1.669653
 H    1.798899    4.833497    0.826125
 H    2.806414    3.386768    0.909208
 H    0.238331   -2.974245   -0.286296
 H    5.127500   -2.660437    0.253882
 H    9.142612    0.004155    0.681348
 H    8.168020    0.205549   -1.575043
 H   -1.736369   -0.856779   -2.489158
 H   -3.751846    3.363538    1.675727
 H   -3.964593    4.938261   -0.018465
 H   -3.937811    0.390816    0.272811
 H   -5.252834    0.251151    2.187854
 H   -6.934012    0.932182    0.102062
 H   -5.951665    0.425705   -1.287950
 H   -6.616492   -2.768821   -0.451053
