49 
2q8g_ligand_dft.xyz
 F   -6.019212    2.340866   -1.596564
 C   -5.873286    2.099302   -0.299841
 F   -7.015958    2.433806    0.315339
 F   -4.909934    2.915521    0.184197
 C   -5.504872    0.638884    0.014912
 O   -5.464726    0.488981    1.419858
 C   -6.559038   -0.320486   -0.524034
 C   -4.140413    0.294914   -0.640008
 O   -3.903005    0.566704   -1.799467
 N   -3.316128   -0.379432    0.216919
 C   -2.049934   -0.907072   -0.036586
 C   -1.405787   -0.779564   -1.274732
 C   -0.143581   -1.320951   -1.465893
 C   -1.388562   -1.598482    0.994301
Cl   -2.160431   -1.791616    2.552678
 C   -0.128744   -2.141337    0.809215
 C    0.488231   -1.992472   -0.426271
 S    2.129088   -2.656373   -0.657385
 O    2.340235   -3.664844    0.375551
 O    2.286816   -2.959838   -2.075316
 C    3.186925   -1.264144   -0.282211
 C    3.523608   -1.002740    1.043204
 C    4.315499    0.099920    1.332186
 C    3.631229   -0.452107   -1.319598
 C    4.442280    0.636409   -1.020381
 C    4.792061    0.913356    0.302615
 C    5.582556    2.139765    0.679264
 O    5.185879    2.852236    1.590315
 N    6.694161    2.440148   -0.060255
 C    7.377474    3.687746    0.230448
 C    7.472712    1.473693   -0.814755
 H   -5.013998    1.256689    1.800934
 H   -6.608325   -0.253528   -1.612362
 H   -7.531983   -0.077457   -0.092033
 H   -6.293735   -1.342010   -0.239648
 H   -3.711245   -0.542959    1.136330
 H   -1.912720   -0.258697   -2.074733
 H    0.344010   -1.234112   -2.430817
 H    0.359927   -2.687601    1.608275
 H    3.176186   -1.661998    1.831717
 H    4.568949    0.342878    2.358588
 H    3.359016   -0.682461   -2.344069
 H    4.796802    1.281180   -1.819040
 H    7.824137    4.073919   -0.691269
 H    8.172156    3.543931    0.974494
 H    6.660473    4.407356    0.623063
 H    7.598003    1.800421   -1.853842
 H    8.468355    1.367706   -0.365146
 H    6.993894    0.495714   -0.809730
