8 
2q8h_ligand_xtb.xyz
 C   -0.204306    0.113870    0.567989
 C    1.231028   -0.215982    0.097240
 O    2.174136    0.174723    0.712047
Cl   -1.346047   -1.188374    0.164634
Cl   -0.668473    1.620341   -0.269983
 O    1.311020   -0.905372   -1.023284
 H   -0.232671    0.298691    1.643144
 H    0.437918   -1.184276   -1.353682
