42 
2q8i_ligand_xtb.xyz
 C    0.326424    1.760301   -0.885604
 C   -1.007483    1.369798   -0.408260
 C   -1.685127    2.306340    0.413832
 C   -2.864998    1.943729    1.055372
 C   -3.414109    0.686577    0.877708
 C   -2.774133   -0.205429    0.004227
 C   -1.600042    0.113461   -0.656022
 C   -1.070105   -0.873650   -1.650306
 C   -0.414394   -2.104335   -1.026978
 C    0.416239   -1.830998    0.148508
 C    1.216221   -2.779728    0.656898
 C    2.145390   -2.651810    1.752501
 C    2.778168   -1.557171    2.188425
 C    2.708692   -0.172120    1.663370
 C    3.650144    0.293660    0.626477
 C    3.333703    1.424167   -0.327709
 C    2.487174    1.035290   -1.547893
 C    3.008795   -0.191317   -2.281855
 O    1.139507    0.737777   -1.158781
 O    0.703232    2.921389   -0.953449
 O   -1.231933    3.540141    0.631371
 O   -4.542302    0.359826    1.517715
Cl   -3.520340   -1.770315   -0.229155
 O   -0.539032   -3.201793   -1.521806
 O    3.808822    0.641708    1.970959
 H   -3.356599    2.658365    1.693193
 H   -1.885369   -1.221474   -2.290288
 H   -0.314860   -0.416538   -2.288707
 H    0.367529   -0.840557    0.563181
 H    1.160788   -3.763880    0.203665
 H    2.387503   -3.587031    2.242124
 H    3.491933   -1.661155    2.995901
 H    1.748665    0.334269    1.735960
 H    4.376703   -0.431658    0.265033
 H    2.815521    2.212085    0.223544
 H    4.275996    1.841577   -0.688420
 H    2.456691    1.904595   -2.218946
 H    2.451660   -0.343606   -3.202718
 H    2.890369   -1.073744   -1.658696
 H    4.058237   -0.057361   -2.525780
 H   -0.428856    3.690956    0.080573
 H   -4.799854   -0.542464    1.261801
