37 
2q8m_ligand_xtb.xyz
 P   -1.151441   -2.468568   -0.363954
 O   -1.450723   -3.030053    0.954704
 O    0.362522   -2.451125   -0.806166
 O   -1.867904   -3.213607   -1.575253
 O   -1.618434   -0.949316   -0.579739
 C   -2.851484   -0.589996    0.025158
 C   -2.801027    0.855935    0.528623
 O   -1.793826    1.018809    1.520267
 C   -2.480234    1.882603   -0.569044
 O   -3.068943    3.112805   -0.262561
 C   -0.947293    1.952389   -0.509118
 O   -0.476674    3.212590   -0.871649
 C   -0.651780    1.594294    0.972786
 N    0.479643    0.695431    1.025217
 C    0.585885   -0.541763    1.579142
 N    1.715276   -1.137600    1.311122
 C    2.419482   -0.241007    0.541825
 C    3.689374   -0.247534   -0.064410
 N    4.540391   -1.279920    0.025530
 N    4.055204    0.826830   -0.770739
 C    3.223150    1.844643   -0.886299
 N    2.012258    1.977301   -0.370861
 C    1.644823    0.911074    0.348053
 H    0.934390   -2.267694   -0.044245
 H   -1.939332   -4.148491   -1.387503
 H   -3.033152   -1.256171    0.874204
 H   -3.659511   -0.699229   -0.703797
 H   -3.757092    1.097439    1.002761
 H   -2.822220    1.531722   -1.551964
 H   -2.445691    3.801670   -0.537247
 H   -0.530317    1.166171   -1.152380
 H    0.498835    3.166237   -0.843759
 H   -0.394809    2.504812    1.539498
 H   -0.195322   -0.967730    2.176143
 H    4.299850   -2.073648    0.590490
 H    5.445261   -1.202511   -0.403084
 H    3.577811    2.677009   -1.478837
