36 
2q8z_ligand_dft.xyz
 O    4.151075   -2.317204   -0.267197
 C    3.263215   -1.521946   -0.084521
 N    3.456977   -0.159785   -0.288628
 C    2.521992    0.842903   -0.140115
 O    2.755886    1.968805   -0.556626
 C    1.854799   -1.867819    0.307079
 C    1.106911   -0.766960    1.010020
 N    0.286457   -1.084524    1.933083
 N    1.347328    0.530622    0.522614
 C    0.419076    1.705168    0.644412
 O   -0.657675    1.427660    1.486151
 C   -0.164887    2.110274   -0.734817
 O    0.443227    3.235982   -1.303815
 C   -1.619719    2.468866   -0.395581
 O   -1.707621    3.812123   -0.000068
 C   -1.920148    1.597920    0.820531
 C   -2.561851    0.254919    0.530043
 O   -1.749955   -0.446289   -0.408099
 P   -1.764239   -2.054208   -0.530404
 O   -3.254941   -2.440195   -0.975584
 O   -0.702100   -2.478985   -1.460927
 O   -1.760207   -2.596155    0.956290
 H    4.336767    0.132083   -0.696027
 H    1.296571   -2.117353   -0.610807
 H    1.861561   -2.757011    0.936687
 H   -0.182932   -0.263967    2.310572
 H    1.007876    2.522874    1.068414
 H   -0.135424    1.241701   -1.403444
 H    1.403125    3.092906   -1.246360
 H   -2.294363    2.248840   -1.234135
 H   -1.012197    4.276615   -0.493278
 H   -2.568173    2.150549    1.506344
 H   -2.655173   -0.319928    1.457107
 H   -3.562222    0.403769    0.108221
 H   -3.247241   -2.793980   -1.874938
 H   -0.957761   -2.274047    1.454922
