36 
2q8z_ligand_xtb.xyz
 O    4.696735    0.380305   -0.211827
 C    3.511762    0.508099   -0.072799
 N    2.881051    1.701364   -0.374621
 C    1.560374    2.024253   -0.198194
 O    1.132412    3.088879   -0.597172
 C    2.564457   -0.554247    0.384958
 C    1.300611   -0.059076    1.014920
 N    0.811820   -0.750670    1.949915
 N    0.776845    1.124295    0.489290
 C   -0.614277    1.602725    0.687952
 O   -1.379664    0.785296    1.512117
 C   -1.349863    1.720270   -0.676365
 O   -1.510359    3.032887   -1.114931
 C   -2.740147    1.115505   -0.393271
 O   -3.680872    2.096594   -0.076951
 C   -2.493292    0.218657    0.826037
 C   -2.237430   -1.242569    0.448839
 O   -1.137328   -1.283268   -0.443256
 P   -0.218563   -2.582026   -0.552074
 O   -1.207298   -3.695531   -1.104731
 O    0.953565   -2.318131   -1.387719
 O    0.051293   -3.092455    0.923266
 H    3.448919    2.435960   -0.784364
 H    2.274859   -1.143502   -0.501862
 H    3.066714   -1.242098    1.065879
 H   -0.040639   -0.392485    2.367393
 H   -0.536942    2.598305    1.155608
 H   -0.821590    1.103431   -1.417286
 H   -0.628534    3.442585   -1.148049
 H   -3.084680    0.523998   -1.251737
 H   -3.379537    2.921157   -0.490059
 H   -3.345654    0.273111    1.510108
 H   -2.013040   -1.827589    1.344970
 H   -3.122957   -1.659665   -0.037523
 H   -0.711254   -4.366544   -1.570949
 H    0.523727   -2.419500    1.464054
