24 
2q95_ligand_xtb.xyz
 O    5.591773   -0.575507   -0.064833
 C    4.355186   -1.100640   -0.137882
 O    4.180214   -2.269349   -0.331504
 C    3.251766   -0.132908    0.041473
 O    1.994785   -0.594416   -0.061205
 C    3.227811    1.218867    0.314947
 C    1.874552    1.584967    0.371590
 C    1.148996    0.434497    0.129693
 C   -0.270358    0.135204    0.083064
 C   -0.654488   -1.211611    0.164160
 C   -1.977963   -1.588735    0.136518
 C   -2.955148   -0.606410    0.023637
 N   -4.350807   -0.979228   -0.000012
 O   -4.613717   -2.157645    0.089321
 O   -5.165892   -0.090172   -0.106475
 C   -2.611993    0.734275   -0.073503
 C   -1.278942    1.103002   -0.046500
Cl   -0.923840    2.777426   -0.215344
 H    5.594450    0.377598    0.088440
 H    4.058714    1.880517    0.463593
 H    1.496963    2.562381    0.582676
 H    0.117791   -1.959352    0.252027
 H   -2.270584   -2.625019    0.202298
 H   -3.390221    1.475892   -0.173711
