25 
2q96_ligand_dft.xyz
 O    4.607690   -0.174264   -1.208302
 C    4.171625   -0.064191   -0.094555
 O    4.990856    0.168579    0.956809
 C    2.740891   -0.187556    0.247176
 O    1.870992   -0.177417   -0.793825
 C    2.058534   -0.361490    1.417481
 C    0.682353   -0.459819    1.067789
 C    0.631257   -0.337353   -0.289286
 C   -0.488068   -0.355930   -1.280593
 C   -1.836020   -0.445833   -0.608528
 C   -2.472288   -1.682591   -0.478489
 C   -3.703084   -1.806808    0.155025
 C   -4.327022   -0.678643    0.677471
 C   -3.716677    0.565345    0.566224
 C   -2.483216    0.669726   -0.068296
Cl   -1.746032    2.254527   -0.178328
 H    4.476471    0.371963    1.748924
 H    2.473504   -0.441117    2.413641
 H   -0.159903   -0.600040    1.728877
 H   -0.355037   -1.213056   -1.951009
 H   -0.422410    0.541528   -1.905355
 H   -1.983812   -2.563445   -0.886491
 H   -4.173335   -2.781354    0.238023
 H   -5.289756   -0.761054    1.171827
 H   -4.189198    1.455294    0.967162
