49 
2q9n_ligand_dft.xyz
 C   -6.984145   -0.661324   -0.359039
 C   -5.829492    0.035620    0.358390
 C   -4.530985   -0.001893   -0.447453
 C   -3.382011    0.685735    0.268140
 O   -2.234927    0.598857   -0.551775
 C   -1.052103    1.091681    0.041330
 C   -0.853601    2.592948   -0.152362
 C    0.431464    3.068675    0.560413
 C    1.472528    1.945424    0.741076
 C    1.494471    1.003910   -0.466710
 C    0.102653    0.347853   -0.632814
 C    0.363764   -1.028633   -0.071650
 C   -0.755438   -1.948398    0.320569
 O   -0.929094   -2.948966   -0.549677
 O   -1.431749   -1.794206    1.309693
 N    1.577326   -1.359340    0.099143
 C    2.424166   -0.237932   -0.345680
 C    3.656951   -0.104971    0.550017
 C    4.396058   -1.440056    0.794680
 C    4.814928   -2.170105   -0.480882
 C    4.634893    0.904182   -0.005104
 O    4.509927    1.499344   -1.050080
 H   -6.752605   -1.716677   -0.542817
 H   -7.183268   -0.191382   -1.328873
 H   -7.905600   -0.618189    0.230548
 H   -6.101977    1.079844    0.561856
 H   -5.665928   -0.437067    1.335787
 H   -4.679566    0.476704   -1.423503
 H   -4.242241   -1.042085   -0.644312
 H   -3.635752    1.738778    0.471421
 H   -3.186006    0.193108    1.232528
 H   -1.067113    0.857636    1.116923
 H   -1.724744    3.143988    0.216500
 H   -0.792568    2.783253   -1.230794
 H    0.185001    3.479427    1.545553
 H    0.877561    3.888311   -0.012966
 H    2.458629    2.394958    0.896544
 H    1.242357    1.367923    1.646822
 H    1.770292    1.580682   -1.353219
 H   -0.167134    0.250262   -1.693507
 H   -1.674113   -3.477154   -0.217390
 H    2.779505   -0.497931   -1.351501
 H    3.359186    0.270979    1.540096
 H    5.280919   -1.233094    1.411660
 H    3.740184   -2.084325    1.385289
 H    5.403953   -1.527211   -1.145892
 H    5.425088   -3.044847   -0.235508
 H    3.939893   -2.522822   -1.034683
 H    5.536908    1.065772    0.626634
