34 
2qaf_ligand_xtb.xyz
 N    0.021881    1.326891   -0.635009
 C   -0.373329    2.247035    0.311903
 N   -1.720301    2.413608    0.429366
 C   -2.732647    1.768294   -0.291004
 C   -2.209795    0.890932   -1.313900
 C   -0.885455    0.700732   -1.434397
 O    0.423108    2.873059    0.987708
 O   -3.892641    1.988818   -0.034254
 C    1.464148    1.060670   -0.745061
 C    2.067935    0.679570    0.637153
 O    2.886322    1.673843    1.168422
 C    2.893441   -0.582087    0.324176
 C    2.202611   -1.125404   -0.935599
 O    4.227215   -0.278937    0.045507
 O    1.729474    0.021835   -1.629746
 C    1.058742   -2.094970   -0.617416
 O    0.140096   -1.428048    0.231668
 P   -1.270256   -2.096948    0.540950
 O   -1.962762   -0.886622    1.296165
 O   -1.272138   -3.368660    1.262234
 O   -1.965412   -2.164324   -0.892606
 H   -2.022083    3.068566    1.143112
 H   -2.910373    0.385751   -1.954052
 H   -0.452972    0.050486   -2.179159
 H    1.942059    1.978853   -1.121764
 H    1.253717    0.419340    1.324692
 H    2.309671    2.434267    1.357420
 H    2.834121   -1.304170    1.149708
 H    2.927807   -1.615873   -1.590386
 H    4.427316    0.558175    0.491374
 H    0.558539   -2.386761   -1.545536
 H    1.442542   -2.990759   -0.120617
 H   -2.195130   -1.156566    2.184078
 H   -2.592423   -2.886932   -0.909541
