62 
2qbp_ligand_dft.xyz
 S    5.305164   -2.455366    0.146956
 C    6.510344   -1.225560    0.060671
 C    5.937683   -0.003720   -0.166330
 C    4.522674   -0.060748   -0.288370
 C    4.021675   -1.329565   -0.145420
 C    7.938832   -1.582595    0.243975
 O    8.287559   -2.694236    0.548732
 O    8.818768   -0.588494    0.052203
 C    2.629149   -1.804552   -0.213382
 C    1.627098   -1.105947    0.456064
 C    0.292848   -1.535778    0.416357
 C   -0.008826   -2.698263   -0.310222
 C    0.997370   -3.396278   -0.966911
 C    2.316438   -2.965065   -0.930342
Br    3.534074    1.483143   -0.695022
 O    6.669284    1.147379   -0.314183
 C    6.595581    2.077467    0.781529
 C    6.558554    3.508407    0.252459
 O    6.721496    4.439439    0.992281
 O    6.312843    3.641308   -1.051451
 N   -0.661298   -0.833587    1.137262
 C   -2.084023   -0.934543    0.869880
 C   -2.858538   -0.211381    1.972820
 C   -4.363629   -0.292966    1.729569
 N   -4.669609    0.232452    0.400514
 C   -4.006661   -0.466722   -0.699321
 C   -2.494782   -0.384688   -0.504569
 S   -6.198020    0.843099    0.133851
 O   -6.186033    1.435534   -1.192836
 O   -6.552685    1.611673    1.314852
 C   -7.279200   -0.612080    0.077876
 C   -8.711623   -0.224659   -0.158504
 C   -9.552723    0.052913    0.919873
 C  -10.872380    0.432339    0.700613
 C  -11.359271    0.543534   -0.598919
 C  -10.520782    0.279901   -1.678584
 C   -9.201148   -0.099531   -1.459397
 H    8.356661    0.212406   -0.252100
 H    1.881422   -0.217489    1.026839
 H   -1.027933   -3.065015   -0.363430
 H    0.741129   -4.290906   -1.526129
 H    3.088689   -3.502957   -1.470506
 H    7.468060    1.952500    1.427577
 H    5.688142    1.905010    1.367335
 H    6.183353    2.758229   -1.436453
 H   -0.367387    0.097010    1.403225
 H   -2.359870   -1.997042    0.921779
 H   -2.566957    0.846764    1.994972
 H   -2.615602   -0.650170    2.945861
 H   -4.901686    0.303376    2.467401
 H   -4.694180   -1.342885    1.820374
 H   -4.300240    0.009127   -1.635755
 H   -4.319578   -1.525844   -0.732653
 H   -1.990494   -0.937677   -1.304074
 H   -2.182592    0.663922   -0.576701
 H   -7.146762   -1.124723    1.035516
 H   -6.889655   -1.247670   -0.723198
 H   -9.167885   -0.019142    1.933208
 H  -11.519828    0.644655    1.545819
 H  -12.389960    0.839110   -0.770174
 H  -10.893348    0.373087   -2.694059
 H   -8.541862   -0.289808   -2.301554
