47 
2qbs_ligand_xtb.xyz
 S   -1.962893    2.486932    0.269766
 C   -3.350385    1.423979    0.144050
 C   -2.935134    0.134455   -0.118391
 C   -1.519016    0.038789   -0.229853
 C   -0.837595    1.211846   -0.056585
 C   -4.701456    1.999589    0.156796
 O   -4.822679    3.212874    0.714151
 O   -5.655220    1.449087   -0.329697
 C    0.582646    1.507250   -0.108205
 C    1.523006    0.585115    0.331344
 C    2.893951    0.858057    0.264387
 C    3.295480    2.096522   -0.251596
 C    2.356587    3.019640   -0.668694
 C    1.005096    2.744134   -0.601923
Br   -0.772098   -1.636775   -0.677035
 O   -3.622405   -1.010488   -0.257343
 C   -4.892665   -1.191690    0.343689
 C   -5.205064   -2.694179    0.380779
 O   -4.321947   -3.469721   -0.234696
 O   -6.178298   -3.119894    0.927490
 N    3.767671   -0.066750    0.761044
 C    5.194432   -0.074905    0.523958
 C    5.859743   -1.031008    1.513614
 C    7.372493   -1.040530    1.312396
 C    7.720629   -1.441156   -0.118168
 C    7.054069   -0.496661   -1.113823
 C    5.542097   -0.489166   -0.912617
 H   -3.994585    3.564279    1.068039
 H    1.206910   -0.351780    0.762929
 H    4.342268    2.343111   -0.321616
 H    2.686268    3.970940   -1.058735
 H    0.277979    3.464276   -0.944938
 H   -5.680893   -0.673367   -0.215648
 H   -4.902327   -0.802905    1.368178
 H   -3.582683   -2.952046   -0.598265
 H    3.368812   -0.978493    0.931807
 H    5.574745    0.935565    0.710527
 H    5.467206   -2.039201    1.357754
 H    5.616060   -0.726969    2.533387
 H    7.831980   -1.736096    2.016877
 H    7.771404   -0.044635    1.517778
 H    7.378186   -2.461863   -0.302360
 H    8.803159   -1.421928   -0.255483
 H    7.288500   -0.804031   -2.134557
 H    7.443808    0.514097   -0.971572
 H    5.068819    0.197621   -1.617485
 H    5.141300   -1.488442   -1.100156
