47 
2qbs_ligand_dft.xyz
 S   -2.053086    2.524613    0.345242
 C   -3.434003    1.479264    0.219139
 C   -3.044474    0.217033   -0.149691
 C   -1.634252    0.110491   -0.345164
 C   -0.948855    1.275456   -0.132098
 C   -4.824438    1.917729    0.481334
 O   -5.073744    3.237323    0.352036
 O   -5.702840    1.161738    0.806459
 C    0.491576    1.570102   -0.211262
 C    1.409388    0.686692    0.351305
 C    2.788747    0.940459    0.296671
 C    3.220383    2.118973   -0.334938
 C    2.297932    3.000636   -0.883882
 C    0.934274    2.743661   -0.832468
Br   -0.884591   -1.517633   -0.894966
 O   -3.871144   -0.823700   -0.392269
 C   -4.308771   -1.572642    0.749208
 C   -4.424775   -3.045632    0.373863
 O   -3.931467   -3.383659   -0.819689
 O   -4.915414   -3.840251    1.130087
 N    3.659613    0.058873    0.908836
 C    5.083530    0.005560    0.617762
 C    5.769611   -0.907531    1.637030
 C    7.279727   -0.981547    1.393485
 C    7.598352   -1.420806   -0.038705
 C    6.907812   -0.514305   -1.061575
 C    5.397813   -0.452126   -0.815190
 H   -4.342392    3.694021   -0.086288
 H    1.054285   -0.211513    0.848074
 H    4.277635    2.350873   -0.398380
 H    2.655725    3.902603   -1.371178
 H    0.225331    3.424724   -1.292253
 H   -5.273253   -1.191890    1.087426
 H   -3.582652   -1.483728    1.564440
 H   -3.564647   -2.583818   -1.235097
 H    3.253528   -0.843153    1.118476
 H    5.489883    1.016090    0.762608
 H    5.340859   -1.918204    1.552540
 H    5.553455   -0.549376    2.649324
 H    7.738393   -1.666869    2.114645
 H    7.721446    0.008129    1.575422
 H    7.254920   -2.454664   -0.184319
 H    8.681985   -1.421977   -0.201123
 H    7.107592   -0.864793   -2.080124
 H    7.328584    0.498920   -0.989907
 H    4.913761    0.214718   -1.537466
 H    4.957728   -1.449246   -0.960679
