47 
2qbu_ligand_xtb.xyz
 N    2.885467    0.214383   -1.136286
 C    3.028651   -0.700086    0.021983
 C    2.431801   -2.082412   -0.270375
 C    0.919768   -2.155001   -0.106895
 S    0.010810   -1.077332   -1.292273
 C    4.542647   -0.831634    0.241408
 O    5.313246   -0.387770   -0.569086
 O    4.853224   -1.467848    1.342581
 C   -1.532965   -2.006834   -1.504639
 C   -2.593462   -1.687140   -0.451084
 O   -2.027293   -1.586800    0.849067
 C   -3.365443   -0.382347   -0.714761
 O   -4.562450   -0.700152   -1.363932
 C   -3.602617    0.179387    0.708801
 O   -4.792134   -0.293337    1.257472
 C   -2.400053   -0.384213    1.479986
 N   -1.249831    0.502710    1.465623
 C   -0.093023    0.211914    2.134835
 N    0.943116    0.888590    1.742366
 C    0.464015    1.709938    0.752403
 C    1.059921    2.597394   -0.140923
 N    2.452803    2.723757   -0.230287
 N    0.316089    3.222233   -1.035875
 C   -0.986658    2.976744   -1.069479
 N   -1.657973    2.112952   -0.334626
 C   -0.918417    1.479550    0.568857
 H    3.778962    0.145141   -1.661436
 H    2.769008    1.248380   -0.823233
 H    2.083172   -0.056317   -1.718527
 H    2.550449   -0.264928    0.910138
 H    2.713203   -2.390826   -1.279824
 H    2.865773   -2.795680    0.433241
 H    0.587269   -3.172733   -0.303754
 H    0.620011   -1.874012    0.900682
 H    5.814206   -1.559306    1.465724
 H   -1.266161   -3.062618   -1.480325
 H   -1.912953   -1.753939   -2.493953
 H   -3.321302   -2.512169   -0.451958
 H   -2.757236    0.323509   -1.294995
 H   -5.004055    0.108700   -1.649963
 H   -3.597156    1.275022    0.724995
 H   -5.259161   -0.811509    0.581487
 H   -2.658777   -0.605195    2.521289
 H   -0.067895   -0.525811    2.913587
 H    2.903486    2.765153    0.677800
 H    2.712526    3.509316   -0.819205
 H   -1.555770    3.530453   -1.801298
