34 
2qcd_ligand_xtb.xyz
 N    0.016415    1.328555   -0.633019
 C   -0.383023    2.244127    0.316608
 N   -1.730692    2.407022    0.431595
 C   -2.739949    1.761729   -0.293148
 C   -2.212909    0.887373   -1.316395
 C   -0.887907    0.701611   -1.435289
 O    0.410348    2.869477    0.996458
 O   -3.901011    1.980181   -0.039408
 C    1.459805    1.068150   -0.743049
 C    2.063922    0.683536    0.637898
 O    2.878174    1.678482    1.174088
 C    2.894154   -0.573915    0.320141
 C    2.205791   -1.114498   -0.942157
 O    4.226853   -0.264830    0.043165
 O    1.729647    0.034094   -1.631926
 C    1.064455   -2.088373   -0.628005
 O    0.145376   -1.427132    0.224885
 P   -1.259537   -2.103647    0.541849
 O   -1.952867   -0.898928    1.305275
 O   -1.249769   -3.377518    1.259189
 O   -1.964657   -2.168675   -0.886679
 H   -2.035725    3.059001    1.146601
 H   -2.911075    0.381273   -1.958556
 H   -0.452168    0.054880   -2.181262
 H    1.934067    1.989723   -1.116013
 H    1.250095    0.417803    1.323716
 H    2.298447    2.435910    1.365572
 H    2.837124   -1.299475    1.142764
 H    2.932692   -1.600023   -1.598578
 H    4.424750    0.570009    0.494283
 H    0.563872   -2.377004   -1.556869
 H    1.450534   -2.985551   -0.135530
 H   -2.170118   -1.169664    2.196667
 H   -2.592280   -2.890857   -0.900561
