34 
2qcf_ligand_dft.xyz
 F   -3.197972   -0.010435   -1.635894
 C   -2.319502    0.735970   -0.967198
 C   -2.855951    1.664436    0.018706
 O   -4.020796    1.825069    0.309588
 N   -1.834527    2.407301    0.628401
 C   -0.474747    2.310044    0.440846
 O    0.316949    3.017089    1.057633
 C   -1.001850    0.617563   -1.181925
 N   -0.082984    1.370417   -0.480990
 C    1.378147    1.222900   -0.700480
 O    1.605144    0.198224   -1.618885
 C    2.133092    0.869173    0.607340
 O    2.845475    1.943104    1.150083
 C    3.129506   -0.196271    0.131938
 O    4.292118    0.412608   -0.364869
 C    2.395614   -0.846980   -1.039306
 C    1.522409   -2.035286   -0.679586
 O    0.608766   -1.616142    0.339565
 P   -0.722824   -2.420849    0.679599
 O   -0.630010   -3.726271    1.351706
 O   -1.424741   -2.448500   -0.765474
 O   -1.487109   -1.286394    1.516702
 H   -2.128747    3.085290    1.320376
 H   -0.594501   -0.079433   -1.898975
 H    1.748374    2.169503   -1.107563
 H    1.428508    0.437723    1.325973
 H    2.180430    2.633018    1.320609
 H    3.361270   -0.920194    0.925462
 H    4.401252    1.230394    0.146169
 H    3.118554   -1.164333   -1.795907
 H    2.134482   -2.861635   -0.303579
 H    0.966381   -2.365043   -1.562226
 H   -2.077033   -3.158878   -0.830134
 H   -1.778930   -1.643383    2.366578
