34 
2qcf_ligand_xtb.xyz
 F   -3.062215    0.165852   -1.819714
 C   -2.165683    0.810988   -1.055314
 C   -2.666068    1.658421    0.016383
 O   -3.808180    1.833012    0.356757
 N   -1.613339    2.316904    0.656610
 C   -0.267872    2.192699    0.445057
 O    0.548340    2.836047    1.075330
 C   -0.849423    0.653316   -1.285315
 N    0.088213    1.298687   -0.539004
 C    1.527835    1.072046   -0.764260
 O    1.742977    0.034443   -1.659890
 C    2.254458    0.719085    0.565604
 O    3.079053    1.742174    1.026422
 C    3.094388   -0.514780    0.184711
 O    4.383153   -0.165648   -0.221192
 C    2.310782   -1.093179   -1.002680
 C    1.230656   -2.093966   -0.576609
 O    0.375587   -1.451383    0.354315
 P   -1.037317   -2.094145    0.712373
 O   -1.046942   -3.352903    1.454002
 O   -1.761119   -2.150672   -0.702153
 O   -1.677557   -0.859046    1.482992
 H   -1.878530    2.951882    1.403013
 H   -0.473369    0.015853   -2.070720
 H    1.943813    2.001046   -1.184604
 H    1.509185    0.432330    1.317143
 H    2.497288    2.477717    1.281739
 H    3.138461   -1.230068    1.016855
 H    4.605860    0.668495    0.219236
 H    2.989502   -1.567063   -1.716651
 H    1.687780   -2.974459   -0.115755
 H    0.655757   -2.405913   -1.452996
 H   -2.476109   -2.786171   -0.700060
 H   -1.901013   -1.129234    2.373291
