34 
2qcg_ligand_xtb.xyz
 P    0.407270    2.061616    1.113113
 O    0.893038    0.806030    1.960535
 O    1.396941    2.155823   -0.128087
 O    0.260963    3.299767    1.872738
 O   -0.901503    1.425139    0.464861
 C   -1.557322    2.106145   -0.592720
 C   -2.551912    1.136839   -1.240597
 O   -1.887416    0.002843   -1.787344
 C   -3.568881    0.564186   -0.243037
 O   -4.755919    0.247326   -0.904237
 C   -2.847027   -0.691427    0.281219
 O   -3.767917   -1.699863    0.551673
 C   -1.874547   -1.046425   -0.880126
 N   -0.513453   -1.301291   -0.372924
 C   -0.381656   -2.205829    0.658349
 O   -1.319516   -2.838385    1.100939
 N    0.888360   -2.351378    1.143522
 C    2.053939   -1.707153    0.726690
 O    3.103688   -1.886060    1.288345
 C    1.808096   -0.861753   -0.427035
 C    0.567614   -0.678119   -0.915184
Br    3.296604   -0.025942   -1.195202
 H    0.962114    1.059674    2.880545
 H    2.061500    2.832710    0.000180
 H   -0.822564    2.426755   -1.336806
 H   -2.078720    2.984767   -0.202591
 H   -3.062951    1.633846   -2.069119
 H   -3.765326    1.271790    0.573743
 H   -5.079847   -0.585399   -0.528989
 H   -2.263445   -0.427963    1.171694
 H   -3.267403   -2.450361    0.912970
 H   -2.211882   -1.963932   -1.387145
 H    0.986390   -2.989071    1.927138
 H    0.358912   -0.040127   -1.761176
