22 
2qdt_ligand_xtb.xyz
 S    4.358460   -0.352061    0.381266
 C    2.841211    0.159879   -0.513175
 C    1.643689    0.020740    0.410186
 C    0.362700    0.408823   -0.312695
 O    0.320875    0.745007   -1.475425
 N   -0.734705    0.366655    0.480850
 C   -2.061634    0.597460   -0.034673
 C   -2.817756    1.647216    0.779782
 C   -2.878488   -0.687486   -0.107835
 O   -4.036734   -0.738806   -0.414987
 O   -2.162968   -1.769667    0.216783
 H    5.190911   -0.148550   -0.635476
 H    2.724150   -0.478197   -1.388119
 H    2.961309    1.194452   -0.832325
 H    1.556526   -1.013650    0.752732
 H    1.771789    0.657986    1.288635
 H   -0.658739    0.001488    1.416895
 H   -1.928661    0.951736   -1.066080
 H   -2.886228    1.341303    1.821899
 H   -3.822121    1.755421    0.381289
 H   -2.304181    2.602535    0.724851
 H   -2.704901   -2.570204    0.128989
