39 
2qe2_ligand_dft.xyz
 C    2.632625    3.507670   -0.258983
 C    2.151119    2.445951    0.706255
 O    1.659834    2.792297    1.775283
 C    2.263743    1.018984    0.317268
 C    2.967005    0.666736   -0.841228
 C    3.040460   -0.637997   -1.272960
 C    2.386807   -1.639555   -0.558446
 C    1.678998   -1.329598    0.588836
 C    1.614427   -0.005496    1.061216
 N    0.901673    0.295833    2.191440
 C    0.053080   -0.629157    2.883710
 C   -1.231088   -1.045915    2.144025
 O   -1.862687   -2.017625    2.517401
 N   -1.560039   -0.215270    1.107856
 C   -2.612660   -0.327688    0.201870
 C   -3.530431   -1.386327    0.258027
 C   -4.541079   -1.488219   -0.685442
 C   -4.668935   -0.551200   -1.707824
 C   -3.782834    0.511440   -1.753789
 C   -2.763213    0.659048   -0.803753
 C   -1.838400    1.827819   -0.886069
 O   -2.294804    2.923345   -1.519279
 O   -0.716090    1.851501   -0.425739
Cl    2.460561   -3.279401   -1.119203
 F    3.725883   -0.937979   -2.382952
 H    2.094563    3.426061   -1.208824
 H    2.437111    4.483869    0.185433
 H    3.704816    3.414707   -0.461661
 H    3.469150    1.419079   -1.437686
 H    1.172596   -2.131130    1.112876
 H    0.945642    1.269190    2.473497
 H   -0.259126   -0.165009    3.823816
 H    0.571321   -1.555635    3.156551
 H   -0.894094    0.524976    0.897691
 H   -3.424920   -2.121743    1.043054
 H   -5.231492   -2.324079   -0.626143
 H   -5.442759   -0.651688   -2.461079
 H   -3.859598    1.214959   -2.579381
 H   -3.244907    2.849012   -1.677788
