39 
2qe2_ligand_xtb.xyz
 C    2.871491    3.321240   -0.183780
 C    2.285352    2.314431    0.770327
 O    1.803017    2.693275    1.829890
 C    2.295824    0.905101    0.361514
 C    2.976284    0.498793   -0.788255
 C    2.924787   -0.802440   -1.224863
 C    2.168251   -1.754429   -0.541126
 C    1.484910   -1.383130    0.594315
 C    1.547452   -0.067042    1.083907
 N    0.896728    0.287524    2.215493
 C   -0.024601   -0.536603    2.937440
 C   -1.347217   -0.860342    2.220482
 O   -2.093422   -1.706990    2.656281
 N   -1.556898   -0.099313    1.113745
 C   -2.598718   -0.145295    0.205040
 C   -3.671115   -1.025508    0.365735
 C   -4.691317   -1.073445   -0.560042
 C   -4.667261   -0.247346   -1.674677
 C   -3.626755    0.642119   -1.837894
 C   -2.585630    0.728277   -0.907728
 C   -1.486926    1.703577   -1.099310
 O   -1.709055    2.730429   -1.927939
 O   -0.411771    1.629072   -0.542687
Cl    2.082893   -3.375154   -1.117070
 F    3.604907   -1.152080   -2.337263
 H    2.729793    4.316506    0.230031
 H    3.934783    3.144876   -0.327760
 H    2.364502    3.253899   -1.142911
 H    3.562106    1.195472   -1.363579
 H    0.893870   -2.123999    1.106283
 H    0.981979    1.277742    2.447899
 H   -0.287669   -0.024658    3.866821
 H    0.428385   -1.494081    3.220012
 H   -0.815607    0.554658    0.852587
 H   -3.680187   -1.677343    1.223146
 H   -5.506029   -1.766971   -0.419568
 H   -5.453328   -0.299115   -2.411694
 H   -3.613394    1.249725   -2.733968
 H   -2.610367    2.748120   -2.277273
