46 
2qe4_ligand_dft.xyz
 C   -4.017007   -0.493474   -0.381245
 C   -3.572828    0.808359   -0.146717
 C   -2.213870    1.073668   -0.067208
 C   -1.300464    0.024769   -0.208661
 O    0.023395    0.371673   -0.118656
 C    0.928974   -0.527748   -0.740925
 C    0.701593   -1.948665   -0.219589
 C    0.889070   -2.097572    1.313522
 C   -0.351050   -2.864316    1.822765
 C   -0.958943   -3.497785    0.566581
 C   -0.734548   -2.429185   -0.518167
 C   -1.728368   -1.286700   -0.417059
 C   -3.100147   -1.527353   -0.513626
 C    2.333847   -0.028036   -0.500716
 C    2.629866    0.891318    0.501122
 C    3.940943    1.300526    0.729113
 C    4.977253    0.787407   -0.047666
 O    6.278668    1.145794    0.126205
 C    4.693966   -0.132516   -1.058284
 C    3.383153   -0.528169   -1.276140
 C   -1.685560    2.464169    0.167487
 O   -2.746290    3.383642    0.198934
 C   -2.305884    4.694473    0.427323
 O   -5.342038   -0.803723   -0.486224
 H   -4.273649    1.631190   -0.038581
 H    0.724240   -0.522695   -1.823828
 H    1.403992   -2.607450   -0.742431
 H    1.814780   -2.638533    1.529216
 H    0.974974   -1.119582    1.795366
 H   -0.106127   -3.603605    2.590701
 H   -1.072279   -2.164775    2.259264
 H   -2.009736   -3.775276    0.690146
 H   -0.404597   -4.404230    0.291407
 H   -0.803328   -2.867229   -1.521364
 H   -3.470755   -2.532814   -0.690290
 H    1.825455    1.298079    1.103874
 H    4.153790    2.023111    1.514479
 H    6.336550    1.783777    0.847235
 H    5.508203   -0.518895   -1.662129
 H    3.171721   -1.241647   -2.069787
 H   -0.965208    2.725237   -0.625127
 H   -1.122981    2.493177    1.116878
 H   -3.187534    5.339203    0.422364
 H   -1.610682    5.031407   -0.357459
 H   -1.798918    4.788774    1.400684
 H   -5.857767    0.004669   -0.384158
