46 
2qe4_ligand_xtb.xyz
 C   -3.991136   -0.575932   -0.376366
 C   -3.582588    0.727034   -0.120911
 C   -2.237368    1.033642   -0.053296
 C   -1.283940    0.023535   -0.218866
 O    0.028876    0.409992   -0.165031
 C    0.940154   -0.494203   -0.759920
 C    0.739563   -1.914411   -0.212953
 C    0.896866   -1.995613    1.317683
 C   -0.337437   -2.748061    1.835493
 C   -0.909373   -3.444429    0.603756
 C   -0.681276   -2.416042   -0.511055
 C   -1.686052   -1.293329   -0.427505
 C   -3.042263   -1.574738   -0.525021
 C    2.347593   -0.013393   -0.514375
 C    2.636891    0.890355    0.496082
 C    3.939325    1.291016    0.732810
 C    4.976678    0.787523   -0.040514
 O    6.273416    1.149048    0.159070
 C    4.692403   -0.115277   -1.061173
 C    3.389991   -0.505739   -1.291976
 C   -1.761032    2.437139    0.194851
 O   -2.835259    3.346838    0.175287
 C   -2.424263    4.671020    0.378492
 O   -5.310359   -0.910146   -0.479704
 H   -4.302813    1.520608    0.008419
 H    0.750954   -0.520858   -1.847892
 H    1.467458   -2.568840   -0.699215
 H    1.817121   -2.520192    1.573749
 H    0.953975   -0.997537    1.749483
 H   -0.087783   -3.450590    2.629391
 H   -1.073532   -2.042303    2.222752
 H   -1.956938   -3.710008    0.725962
 H   -0.341015   -4.349519    0.382193
 H   -0.745050   -2.882531   -1.499485
 H   -3.377497   -2.581226   -0.719133
 H    1.833591    1.292580    1.092402
 H    4.152416    1.998538    1.523920
 H    6.328077    1.777227    0.889301
 H    5.505077   -0.493610   -1.660229
 H    3.178190   -1.201519   -2.090983
 H   -1.015166    2.703689   -0.572433
 H   -1.245175    2.479708    1.169791
 H   -3.321086    5.286658    0.341458
 H   -1.725180    4.997346   -0.402389
 H   -1.937945    4.793798    1.355230
 H   -5.847481   -0.117851   -0.360683
