39 
2qg2_ligand_xtb.xyz
 C   -2.804746   -3.820861    0.063123
 C   -2.020550   -2.503140    0.020223
 N   -3.099673   -1.528343    0.055821
 C   -4.344357   -2.127443    0.131971
 O   -4.176232   -3.467256    0.141919
 O   -5.401743   -1.581368    0.182759
 N   -2.990677   -0.203634    0.035049
 C   -1.862644    0.384552   -0.019829
 C   -1.798616    1.830658   -0.042052
 C   -0.548153    2.476722   -0.068635
 C   -0.489556    3.870108   -0.090279
 C   -1.651757    4.615954   -0.087425
 C   -2.887638    3.982117   -0.059687
 C   -2.959774    2.604245   -0.036486
 C    0.651524    1.731714   -0.072292
 C    1.684688    1.105074   -0.073726
 C    2.883429    0.350006   -0.052786
 C    3.595291    0.186475    1.136147
 C    4.757529   -0.577354    1.070178
 N    5.166987   -1.113834   -0.069431
 C    4.415360   -0.900717   -1.153630
 N    3.288456   -0.194559   -1.198971
 C    5.597406   -0.827281    2.281309
 N    4.817922   -1.489983   -2.301329
 H   -2.557481   -4.427051    0.939238
 H   -2.658291   -4.423313   -0.838137
 H   -1.431382   -2.394230   -0.895920
 H   -1.361091   -2.379572    0.885693
 H   -0.905364   -0.141823   -0.052520
 H    0.475713    4.354645   -0.111980
 H   -1.596270    5.694340   -0.106324
 H   -3.793469    4.569532   -0.056751
 H   -3.908471    2.091995   -0.014261
 H    3.257781    0.632790    2.057174
 H    5.939310    0.116557    2.702425
 H    5.012624   -1.343499    3.040994
 H    6.455290   -1.435639    2.011201
 H    5.740594   -1.884664   -2.327451
 H    4.368579   -1.213592   -3.155518
