67 
2qhy_ligand_xtb.xyz
 O    1.937151    1.960754   -0.248290
 C    1.632386    2.824427   -1.054405
 C    2.406704    3.070301   -2.327974
 N    0.595279    3.666923   -0.853416
 C   -0.341301    3.418389    0.222662
 C   -1.326051    4.573335    0.348734
 C   -1.095787    2.105319   -0.076965
 O   -1.213459    1.711593   -1.219907
 N   -1.618656    1.534113    1.021025
 C   -2.196689    0.201715    1.124190
 C   -3.174579   -0.117854   -0.011035
 C   -4.358934    0.806428    0.064324
 C   -5.368252    0.576216    0.991188
 C   -6.440367    1.443790    1.096688
 C   -6.514585    2.557467    0.277074
 C   -5.515275    2.792829   -0.651267
 C   -4.445108    1.921524   -0.757597
 C   -1.065555   -0.834602    1.311541
 O   -0.520209   -0.558361    2.577568
 C   -0.001771   -0.761894    0.198508
 N    0.741766   -1.996391    0.079688
 S    2.113142   -2.153036    0.955536
 O    1.809975   -1.913205    2.340999
 O    2.734814   -3.394363    0.619474
 C    3.201583   -0.803818    0.452094
 C    3.670786    0.087842    1.395723
 C    4.526821    1.103154    1.009540
 F    4.981890    1.974500    1.915823
 C    3.590473   -0.676129   -0.867028
 F    3.114442   -1.530422   -1.783342
 C    4.457165    0.322846   -1.272322
 C    4.919254    1.214447   -0.320998
 F    5.746633    2.196521   -0.700744
 C    0.487789   -2.866263   -1.050887
 C   -0.842034   -3.527090   -0.905761
 C   -1.206477   -4.478933   -0.003102
 C   -2.570430   -4.834704   -0.096123
 C   -3.223682   -4.144706   -1.065133
 S   -2.187103   -3.043230   -1.882136
 H    3.472184    3.015314   -2.123021
 H    2.170435    4.036508   -2.763309
 H    2.155411    2.285581   -3.039300
 H    0.245883    4.200097   -1.634415
 H    0.244140    3.296936    1.140783
 H   -1.910069    4.665817   -0.564788
 H   -0.794802    5.505652    0.526516
 H   -2.010431    4.394216    1.173342
 H   -1.295078    1.882765    1.910621
 H   -2.756757    0.197892    2.067349
 H   -3.501179   -1.152155    0.110267
 H   -2.682013   -0.011841   -0.974777
 H   -5.315086   -0.293579    1.630973
 H   -7.220346    1.251186    1.818895
 H   -7.350429    3.236538    0.359859
 H   -5.571953    3.657643   -1.296685
 H   -3.667377    2.101752   -1.484142
 H   -1.507174   -1.844867    1.299376
 H    0.297756   -1.080012    2.685825
 H    0.695277    0.054405    0.417568
 H   -0.478049   -0.551690   -0.760505
 H    3.353143   -0.009725    2.421341
 H    4.755920    0.415734   -2.304093
 H    0.534451   -2.300502   -1.988510
 H    1.287652   -3.609408   -1.038818
 H   -0.515229   -4.907277    0.700234
 H   -3.039058   -5.573869    0.528434
 H   -4.251910   -4.216319   -1.358910
