72 
2qi4_ligand_dft.xyz
 O    0.029649    1.527599    1.232330
 C    0.100191    2.022480    0.109966
 C   -0.967263    2.939721   -0.414564
 C   -2.276916    2.681861   -0.013110
 C   -3.333112    3.425798   -0.540218
 O   -4.628188    3.161993   -0.260030
 C   -3.055730    4.491724   -1.403901
 C   -1.743411    4.779190   -1.753138
 C   -0.690768    3.996923   -1.281391
 N    1.110509    1.779438   -0.766582
 C    2.250414    0.892051   -0.564477
 C    2.965574    1.114599    0.778023
 C    3.541659    2.506719    0.880481
 C    2.832145    3.530640    1.511137
 C    3.348661    4.822392    1.562358
 C    4.582035    5.107811    0.983131
 C    5.297220    4.093401    0.352091
 C    4.777583    2.803864    0.302275
 C    1.901095   -0.578113   -0.860911
 O    1.377556   -0.573193   -2.169533
 C    0.933874   -1.186024    0.162296
 N    0.736902   -2.635446    0.050217
 C    1.405258   -3.504229    1.019324
 C    2.925900   -3.573899    0.822358
 C    3.284729   -4.088392   -0.576446
 C    4.766751   -3.954818   -0.922452
 C    3.528080   -4.430802    1.938601
 S   -0.404337   -3.249537   -0.976310
 O   -0.019543   -2.973501   -2.360975
 O   -0.673155   -4.620259   -0.574090
 C   -1.838176   -2.243309   -0.637950
 C   -2.092962   -1.122294   -1.442216
 C   -3.099015   -0.241699   -1.094506
 C   -3.831154   -0.484821    0.071839
 C   -3.586629   -1.639384    0.838814
 C   -2.580401   -2.537815    0.494580
 N   -4.799040    0.364670    0.590201
 C   -5.291588   -0.124877    1.679349
 S   -4.656859   -1.654260    2.214965
 H   -2.456987    1.885180    0.700924
 H   -4.716853    2.265810    0.122000
 H   -3.884259    5.074209   -1.793309
 H   -1.537784    5.616781   -2.413103
 H    0.333997    4.232062   -1.552921
 H    0.938473    2.037367   -1.725869
 H    2.957568    1.170935   -1.353943
 H    2.275700    0.935090    1.603768
 H    3.771787    0.372677    0.842875
 H    1.868597    3.309160    1.962408
 H    2.785292    5.607929    2.057787
 H    4.987029    6.114613    1.026868
 H    6.262353    4.304963   -0.099195
 H    5.341007    2.013399   -0.190029
 H    2.845828   -1.145388   -0.825985
 H    1.114745   -1.476524   -2.414420
 H   -0.025024   -0.667683    0.103538
 H    1.305179   -1.009751    1.175097
 H    1.178471   -3.133758    2.029022
 H    0.975672   -4.504413    0.930300
 H    3.329295   -2.554842    0.928346
 H    2.695578   -3.537707   -1.319339
 H    2.972751   -5.138553   -0.660944
 H    4.953527   -4.260288   -1.956471
 H    5.099930   -2.914913   -0.816933
 H    5.397884   -4.573891   -0.276396
 H    4.620310   -4.446472    1.885412
 H    3.172856   -5.466115    1.866246
 H    3.252098   -4.047143    2.927311
 H   -1.467758   -0.938047   -2.308137
 H   -3.301579    0.645078   -1.683787
 H   -2.361556   -3.420476    1.086021
 H   -6.058421    0.377517    2.257842
