77 
2qi7_ligand_dft.xyz
 O    1.064312   -2.675102    1.990482
 C    1.190535   -2.466246    0.778239
 C    0.768143   -3.504470   -0.250956
 C   -0.148577   -4.543018    0.380709
 C   -1.434273   -3.911573    0.891113
 O   -1.972106   -3.009943    0.276500
 C   -2.000308   -4.451599    2.182462
 C   -3.348366   -3.852403    2.557090
 N    1.711550   -1.338159    0.272652
 C    2.269602   -0.259305    1.077096
 C    3.171717    0.619323    0.192428
 C    4.185739   -0.180624   -0.588754
 C    5.301094   -0.734956    0.043468
 C    6.211890   -1.507248   -0.669475
 C    6.018190   -1.737215   -2.029851
 C    4.911090   -1.188252   -2.669393
 C    4.001454   -0.414962   -1.952768
 C    1.194162    0.555663    1.833455
 O    0.805815   -0.091723    3.022697
 C   -0.078698    0.854005    1.020319
 N    0.067503    1.868097   -0.041086
 C   -0.487485    3.188759    0.300918
 C    0.299050    3.910036    1.400426
 C    1.729506    4.203089    0.947341
 C   -0.464650    5.184864    1.789818
 C    0.165504    5.955629    2.948903
 S   -0.284216    1.359809   -1.601836
 O   -0.087098    2.504193   -2.474634
 O    0.477221    0.132650   -1.824515
 C   -2.003043    0.933208   -1.597757
 C   -2.392494   -0.350436   -1.234891
 C   -3.740961   -0.656327   -1.096330
 C   -2.958620    1.924368   -1.842483
 C   -4.301061    1.620619   -1.716508
 C   -4.699683    0.331600   -1.331875
 O   -6.031910    0.143802   -1.216474
 C   -6.491861   -1.131421   -0.816877
 H    1.670085   -3.980212   -0.652141
 H    0.266540   -3.007725   -1.087914
 H   -0.428894   -5.297083   -0.366254
 H    0.362279   -5.060073    1.196972
 H   -1.241438   -4.240122    2.948370
 H   -2.047103   -5.547001    2.107780
 H   -4.098602   -4.063342    1.788862
 H   -3.271418   -2.766456    2.656367
 H   -3.702950   -4.263687    3.506546
 H    1.585676   -1.148215   -0.714011
 H    2.889599   -0.726728    1.851500
 H    3.678108    1.334506    0.850621
 H    2.549117    1.200632   -0.492525
 H    5.457591   -0.558157    1.105507
 H    7.076082   -1.928834   -0.164150
 H    6.729075   -2.339002   -2.588463
 H    4.753787   -1.359060   -3.730462
 H    3.134773    0.010784   -2.453142
 H    1.655888    1.504579    2.130347
 H    0.828535   -1.053757    2.855256
 H   -0.835308    1.199505    1.732934
 H   -0.452757   -0.086547    0.607404
 H   -1.539096    3.074983    0.611164
 H   -0.463941    3.802314   -0.602876
 H    0.329682    3.266102    2.290599
 H    1.732240    4.960879    0.154212
 H    2.204017    3.304345    0.545213
 H    2.345543    4.572375    1.772695
 H   -1.493856    4.913154    2.059359
 H   -0.537584    5.840197    0.910202
 H    1.145320    6.362901    2.680576
 H    0.298570    5.308359    3.823505
 H   -0.469758    6.795504    3.247822
 H   -1.661353   -1.130096   -1.055816
 H   -4.007428   -1.660097   -0.789673
 H   -2.644387    2.917778   -2.145136
 H   -5.066010    2.365339   -1.907365
 H   -6.103280   -1.404478    0.171808
 H   -7.578400   -1.054918   -0.771152
 H   -6.210309   -1.902816   -1.543785
