65 
2ql7_ligand_dft.xyz
 N    1.448474    1.430965   -1.651361
 C    2.474539    0.325690   -1.767913
 C    1.680167   -0.990976   -1.743982
 O    1.640667   -1.729650   -2.702700
 C    3.553125    0.455125   -0.681939
 C    4.277719    1.808094   -0.791907
 C    4.508728   -0.737314   -0.786692
 C    5.326386    2.036636    0.296178
 N    1.010189   -1.206772   -0.569324
 C   -0.250789   -1.921494   -0.573810
 C   -1.330155   -0.900108   -1.037867
 O   -0.963646    0.106306   -1.665367
 C   -0.481073   -2.537051    0.817294
 C    0.744042   -3.301804    1.320746
 C    1.873357   -2.434484    1.813224
 O    3.058033   -3.012459    1.660330
 O    1.764081   -1.343730    2.352376
 N   -2.618541   -1.056698   -0.697780
 C   -3.580669    0.049195   -0.930780
 C   -3.345355    1.133894    0.146625
 O   -3.998497    1.194755    1.174537
 C   -4.955821   -0.611633   -0.803888
 C   -4.685860   -2.097680   -1.049087
 C   -3.325644   -2.310496   -0.387147
 N   -2.317746    1.975084   -0.132964
 C   -1.819727    2.949268    0.799842
 C   -0.710845    3.741907    0.140114
 O   -0.280114    3.513143   -0.967721
 C   -1.328287    2.336469    2.127740
 C   -0.253238    1.294948    1.940110
 O   -0.247619    0.382114    2.880520
 O    0.549156    1.296450    1.009187
 H    1.707146    2.281413   -2.152676
 H    1.263727    1.688276   -0.668188
 H    0.521865    1.097504   -1.981703
 H    2.914848    0.401748   -2.764309
 H    3.056525    0.414449    0.299010
 H    4.748851    1.883642   -1.781431
 H    3.545203    2.625054   -0.728874
 H    3.978805   -1.690092   -0.690773
 H    5.035418   -0.738421   -1.747293
 H    5.260217   -0.696023    0.005232
 H    5.726311    3.052103    0.233042
 H    6.169679    1.347605    0.199342
 H    4.891791    1.907668    1.293851
 H    1.035025   -0.450243    0.110852
 H   -0.170692   -2.711409   -1.329041
 H   -1.311063   -3.241666    0.779824
 H   -0.767246   -1.761140    1.535280
 H    0.454309   -3.926833    2.175273
 H    1.133585   -3.980177    0.556780
 H    3.728909   -2.436754    2.064829
 H   -3.403602    0.461703   -1.928394
 H   -5.333666   -0.444058    0.208446
 H   -5.671100   -0.186224   -1.510048
 H   -4.612284   -2.310677   -2.120491
 H   -5.453568   -2.746259   -0.622335
 H   -3.432233   -2.430592    0.696273
 H   -2.788700   -3.167364   -0.798679
 H   -1.762106    1.799811   -0.961556
 H   -2.613012    3.662990    1.065013
 H   -0.298858    4.565139    0.753212
 H   -2.179740    1.885215    2.640614
 H   -0.930700    3.117147    2.789308
 H    0.499639   -0.256132    2.729133
