63 
2ql9_ligand_xtb.xyz
 N    1.664727   -0.651596   -1.881928
 C    1.736825   -2.083929   -1.498382
 C    0.640445   -2.355100   -0.446532
 O   -0.358420   -2.985542   -0.742277
 C    3.158415   -2.418198   -1.048646
 C    4.159843   -2.107703   -2.140617
 O    3.996372   -1.244335   -2.975589
 O    5.232609   -2.863224   -2.075227
 N    0.854398   -1.765843    0.726122
 C   -0.130671   -1.767972    1.795779
 C   -1.132739   -0.669525    1.389987
 O   -1.097133    0.473632    1.814349
 C    0.548237   -1.575522    3.153207
 C    1.343540   -0.271744    3.338681
 C    2.766749   -0.295788    2.826920
 O    3.110534   -0.845552    1.785489
 N    3.658061    0.353586    3.583067
 N   -1.986388   -1.086899    0.435137
 C   -2.702807   -0.150757   -0.432477
 C   -1.585781    0.677444   -1.065873
 O   -0.891218    0.209237   -1.957681
 C   -3.789074    0.622641    0.315823
 C   -4.986335   -0.272892    0.602451
 S   -5.802379   -0.771903   -0.963066
 C   -7.153422   -1.751186   -0.262246
 N   -1.345767    1.884811   -0.525215
 C   -0.107515    2.583049   -0.795716
 C    0.893855    2.133053    0.275732
 O    1.622193    1.175911    0.141663
 C   -0.250990    4.102331   -0.760745
 C    1.150669    4.636260   -0.598086
 O    2.039283    3.923433   -0.180457
 O    1.304834    5.893175   -0.930749
 H    1.823410   -0.007124   -1.064490
 H    2.419395   -0.505017   -2.586703
 H    0.715873   -0.407322   -2.237388
 H    1.474677   -2.682184   -2.378629
 H    3.444077   -1.828822   -0.171684
 H    3.243465   -3.470436   -0.779702
 H    5.884278   -2.644093   -2.762803
 H    1.761140   -1.340002    0.979715
 H   -0.654460   -2.732204    1.794202
 H    1.205095   -2.431005    3.324635
 H   -0.236516   -1.599593    3.910336
 H    1.356575   -0.023611    4.399933
 H    0.817286    0.530520    2.817804
 H    4.616665    0.401722    3.274513
 H    3.410616    0.815090    4.440436
 H   -1.834243   -2.016600    0.050777
 H   -3.169620   -0.740032   -1.227073
 H   -3.400794    0.992356    1.266705
 H   -4.115559    1.463442   -0.298968
 H   -4.678837   -1.178680    1.126823
 H   -5.724469    0.261288    1.200993
 H   -6.743911   -2.577703    0.311687
 H   -7.730293   -2.129751   -1.099260
 H   -7.776616   -1.117552    0.362649
 H   -1.825332    2.121773    0.332083
 H    0.240459    2.251038   -1.780876
 H    0.715681    2.572228    1.267023
 H   -0.720906    4.507720   -1.655280
 H   -0.839296    4.418591    0.104728
 H    2.217103    6.207357   -0.805153
