63 
2ql9_ligand_dft.xyz
 N    1.409526   -0.616641   -2.573013
 C    1.751052   -1.907019   -1.887465
 C    0.537842   -2.229986   -1.004603
 O   -0.499325   -2.550028   -1.584650
 C    3.121796   -1.808735   -1.226788
 C    4.198491   -1.525401   -2.248667
 O    3.987216   -1.046211   -3.347039
 O    5.409974   -1.835831   -1.809137
 N    0.665287   -2.060134    0.314722
 C   -0.466481   -2.199730    1.227365
 C   -1.307614   -0.910451    1.097168
 O   -1.187397    0.048545    1.857172
 C   -0.014293   -2.531063    2.654610
 C    0.831411   -1.506745    3.437716
 C    2.313372   -1.480715    3.112883
 O    2.758594   -1.576034    1.965499
 N    3.143470   -1.298160    4.157467
 N   -2.117962   -0.913774    0.010373
 C   -2.648097    0.310380   -0.594182
 C   -1.434304    1.157007   -1.005104
 O   -0.828287    0.920428   -2.045637
 C   -3.720371    0.996983    0.258398
 C   -4.939958    0.107572    0.502093
 S   -5.791191   -0.293414   -1.058987
 C   -7.042130   -1.437753   -0.419418
 N   -1.040735    2.122381   -0.131863
 C    0.256741    2.762734   -0.273812
 C    1.296938    1.824343    0.335322
 O    1.795093    0.902536   -0.277718
 C    0.255265    4.135781    0.388338
 C    1.646171    4.719249    0.340394
 O    2.637047    4.050724    0.136088
 O    1.666438    6.029950    0.564478
 H    1.436307    0.168208   -1.890233
 H    2.114119   -0.455417   -3.307505
 H    0.453936   -0.633392   -2.948373
 H    1.761426   -2.668049   -2.670823
 H    3.153222   -1.014208   -0.471718
 H    3.349469   -2.740829   -0.703011
 H    6.052002   -1.598301   -2.500112
 H    1.553443   -1.782539    0.757479
 H   -1.071777   -3.041475    0.873645
 H    0.505337   -3.494704    2.618984
 H   -0.930384   -2.695492    3.230494
 H    0.698714   -1.709725    4.505087
 H    0.432453   -0.503666    3.259140
 H    4.136482   -1.242729    3.982697
 H    2.820366   -1.253097    5.110280
 H   -1.982826   -1.689861   -0.633025
 H   -3.100072   -0.003639   -1.537340
 H   -3.315052    1.268775    1.237336
 H   -4.024618    1.921086   -0.246215
 H   -4.630332   -0.821369    0.993178
 H   -5.634248    0.628202    1.168566
 H   -6.577054   -2.312609    0.043123
 H   -7.643404   -1.766804   -1.269477
 H   -7.696534   -0.940749    0.301555
 H   -1.412589    2.039821    0.807110
 H    0.465883    2.847163   -1.342193
 H    1.509723    1.946741    1.410959
 H   -0.459063    4.803441   -0.099353
 H   -0.045330    4.068407    1.443080
 H    2.592558    6.324377    0.538719
