44 
2qlm_ligand_xtb.xyz
 C   -4.406219    1.356445    0.069512
 C   -5.783916    1.407781    0.026552
 C   -6.531093    0.259330   -0.215277
 C   -8.023812    0.319238   -0.282471
 C   -5.857354   -0.939946   -0.423312
 C   -4.478718   -1.003826   -0.368399
 C   -3.736029    0.146677   -0.109304
 C   -2.257402    0.166780   -0.034894
 O   -1.603591    1.162248   -0.285270
 N   -1.682389   -1.016969    0.363514
 C   -0.329292   -1.309324    0.579051
 O   -0.034583   -2.416195    0.995888
 N    0.523672   -0.325149    0.279246
 C    1.943854   -0.298370    0.555961
 O    2.313862    0.987570    0.141173
 C    3.694503    1.292809    0.259094
 C    3.860895    2.749729   -0.183645
 O    3.161069    3.630977    0.648553
 C    4.520858    0.335933   -0.603516
 O    5.880586    0.642303   -0.463169
 C    4.229151   -1.094270   -0.146876
 O    4.945458   -1.979273   -0.972268
 C    2.724847   -1.403634   -0.189384
 O    2.583159   -2.667400    0.397568
 H   -3.823653    2.246609    0.251693
 H   -6.289828    2.349502    0.180286
 H   -8.336782    0.581141   -1.293687
 H   -8.464793   -0.642466   -0.032170
 H   -8.412378    1.076674    0.394024
 H   -6.422914   -1.836578   -0.631616
 H   -3.990373   -1.947876   -0.564065
 H   -2.290267   -1.788757    0.605261
 H    0.125629    0.559983   -0.040675
 H    2.125245   -0.430770    1.642238
 H    4.012178    1.194237    1.308156
 H    3.519932    2.838283   -1.224141
 H    4.916303    3.017029   -0.123621
 H    2.240645    3.341591    0.669152
 H    4.209139    0.438589   -1.655905
 H    6.374370   -0.103887   -0.828363
 H    4.565103   -1.207991    0.897850
 H    4.626306   -2.868078   -0.771334
 H    2.388958   -1.414737   -1.240728
 H    1.648880   -2.801606    0.659967
