51 
2qln_ligand_xtb.xyz
 C    7.258125   -0.896811   -0.470546
 C    8.640126   -0.877189   -0.451716
 C    9.313351    0.168437    0.157833
 C    8.596427    1.197701    0.745088
 C    7.214343    1.185146    0.720395
 C    6.527261    0.135691    0.113831
 C    5.058576    0.116519    0.089019
 C    4.331398    1.281645   -0.153375
 C    2.953247    1.256173   -0.180831
 C    4.360793   -1.070091    0.315105
 C    2.981762   -1.101997    0.279897
 C    2.260309    0.062307    0.018785
 C    0.781129    0.110646   -0.030270
 O    0.150366    1.121150    0.217470
 N    0.177676   -1.068729   -0.398941
 C   -1.184629   -1.343895   -0.568348
 O   -1.510113   -2.450972   -0.960492
 N   -2.017734   -0.347294   -0.252281
 C   -3.441817   -0.321117   -0.508257
 O   -3.795497    0.994156   -0.183418
 C   -5.174253    1.302133   -0.318349
 C   -5.325076    2.788480    0.019940
 O   -4.604921    3.599341   -0.864773
 C   -6.007234    0.416861    0.611928
 O   -7.364839    0.719201    0.444137
 C   -5.723770   -1.046193    0.266946
 O   -6.442678   -1.860353    1.160073
 C   -4.220578   -1.358604    0.329196
 O   -4.083621   -2.668994   -0.148364
 H    6.738513   -1.705721   -0.963203
 H    9.194391   -1.680156   -0.914941
 H   10.392829    0.181058    0.175000
 H    9.116881    2.013335    1.225036
 H    6.660265    1.981198    1.195787
 H    4.854330    2.207893   -0.337868
 H    2.386587    2.155860   -0.367148
 H    4.908591   -1.972539    0.542240
 H    2.474960   -2.031733    0.496314
 H    0.766318   -1.853538   -0.646321
 H   -1.605636    0.540952    0.037725
 H   -3.640248   -0.532393   -1.578855
 H   -5.495944    1.131663   -1.356913
 H   -4.992214    2.945310    1.055043
 H   -6.375948    3.065328   -0.068965
 H   -3.689605    3.293353   -0.858389
 H   -5.698105    0.597162    1.654556
 H   -7.864000    0.005183    0.862496
 H   -6.063313   -1.238746   -0.765129
 H   -6.125483   -2.763182    1.031643
 H   -3.879587   -1.283595    1.376322
 H   -3.169694   -2.807830   -0.470574
