39 
2qo1_ligand_dft.xyz
 O    0.736511   -2.745419   -0.002252
 C   -0.454934   -3.275427   -0.336391
 O   -0.523025   -4.427478   -0.679812
 C   -1.665543   -2.351124   -0.334610
 C   -1.736853   -1.294466    0.768645
 C   -2.998871   -0.432671    0.650169
 C   -3.011800    0.784873    1.584992
 C   -1.876604    1.807008    1.406452
 C   -2.034320    2.853907    0.291507
 C   -2.123848    2.377833   -1.167337
 C   -1.042264    1.395080   -1.629452
 C    0.394287    1.801501   -1.302253
 C    1.368304    0.694195   -1.691925
 O    2.611820    0.799998   -0.960951
 C    2.580292    0.338992    0.285126
 O    1.629095   -0.176745    0.828449
 S    4.118296    0.559551    1.140932
 H    0.681276   -1.833716    0.330060
 H   -2.544696   -3.000227   -0.312805
 H   -1.675466   -1.851661   -1.315001
 H   -0.853919   -0.647368    0.719118
 H   -1.708674   -1.774616    1.754899
 H   -3.873712   -1.056479    0.873791
 H   -3.124317   -0.111517   -0.390750
 H   -2.973500    0.413139    2.617439
 H   -3.976853    1.299524    1.484603
 H   -0.918146    1.284895    1.300316
 H   -1.788586    2.369370    2.344184
 H   -1.191078    3.552118    0.378910
 H   -2.932027    3.450928    0.500168
 H   -2.096897    3.268803   -1.808360
 H   -3.101501    1.913160   -1.345538
 H   -1.147071    1.236714   -2.710999
 H   -1.221576    0.420916   -1.164265
 H    0.484351    1.973907   -0.225950
 H    0.666355    2.739313   -1.800141
 H    1.667829    0.751423   -2.739046
 H    0.943845   -0.295613   -1.501712
 H    4.769325    1.143101    0.123168
