47 
2qoe_ligand_xtb.xyz
 F   -8.270895    1.151899    0.003271
 C   -6.985349    0.828133   -0.054011
 C   -6.613302   -0.504843   -0.016650
 C   -5.269708   -0.812074   -0.076790
 F   -4.900778   -2.119614   -0.009923
 C   -6.007111    1.817579   -0.145476
 F   -6.349741    3.103004   -0.172985
 C   -4.667535    1.475597   -0.210216
 C   -4.267699    0.145479   -0.179650
 C   -2.808100   -0.224844   -0.277185
 C   -2.181358   -0.582356    1.082730
 N   -2.405485   -2.029015    1.355009
 C   -0.664997   -0.321835    1.095618
 C    0.075734   -1.243848    0.132866
 O   -0.392326   -2.367286   -0.113656
 N    1.220822   -0.842871   -0.409675
 C    1.902156   -1.712773   -1.363068
 C    3.251021   -2.158894   -0.803636
 C    1.891356    0.424496   -0.130479
 C    1.541806    1.500429   -1.164549
 C    3.366242    0.202958   -0.107229
 N    3.950449   -0.969479   -0.411529
 N    5.267496   -0.851531   -0.298163
 N    4.285742    1.088917    0.205221
 C    5.436842    0.398906    0.072714
 C    6.771724    1.012780    0.345569
 F    7.773418    0.217781   -0.025905
 F    6.928888    1.268504    1.652109
 F    6.918437    2.173884   -0.300385
 H   -7.358549   -1.280526    0.052500
 H   -3.942250    2.269334   -0.294553
 H   -2.278356    0.628061   -0.699309
 H   -2.683330   -1.064499   -0.964440
 H   -2.653772    0.021812    1.864822
 H   -1.637538   -2.488878    0.709580
 H   -2.246332   -2.281590    2.331744
 H   -3.339550   -2.340688    1.068801
 H   -0.496845    0.725383    0.857542
 H   -0.269185   -0.502668    2.099755
 H    1.265426   -2.575844   -1.558528
 H    2.052294   -1.156188   -2.291949
 H    3.122471   -2.816305    0.063292
 H    3.838268   -2.689237   -1.555623
 H    1.612574    0.778787    0.866368
 H    0.476715    1.717414   -1.158813
 H    1.828004    1.187960   -2.164982
 H    2.091119    2.405366   -0.921984
