21 
2qpq_ligand_xtb.xyz
 C    2.326670    0.173829    0.056438
 O    2.015165    1.332004    0.012315
 O    3.607498   -0.191573   -0.027577
 C    1.344238   -0.976178    0.233929
 C   -0.102132   -0.521983   -0.009418
 O   -0.222641    0.071509   -1.295338
 C   -0.552577    0.531098    1.028857
 C   -1.362590    1.564163    0.247625
 O   -2.531884    1.375980    0.015167
 O   -0.700955    2.617971   -0.172217
 C   -1.083380   -1.727341    0.031606
 O   -2.356089   -1.410231   -0.070690
 O   -0.685677   -2.858417    0.106282
 H    3.743052   -1.147131    0.031139
 H    1.435240   -1.371328    1.249104
 H    1.586639   -1.787532   -0.458826
 H   -0.023471   -0.576786   -1.980927
 H    0.302363    0.998440    1.512501
 H   -1.184093    0.068860    1.789606
 H    0.265580    2.495907   -0.101247
 H   -2.550017   -0.439890   -0.119099
