38 
2qrh_ligand_dft.xyz
 C   -3.739904   -0.272643   -1.157411
 C   -5.114281   -0.099446   -1.288605
 C   -5.881239    0.242474   -0.180123
 C   -5.269748    0.409521    1.062089
 C   -3.900023    0.236712    1.197172
 C   -3.121292   -0.107734    0.084589
 C   -1.670045   -0.297046    0.215351
 C   -0.726403   -0.594293   -0.917239
 N   -1.087469   -0.244437    1.355368
 O    0.281906   -0.471007    1.179159
 C    0.612050   -0.413010   -0.218071
 O    1.116280    0.842153   -0.564622
 C    2.326781    1.236689    0.099411
 C    2.615805    2.643070   -0.394964
 O    1.570336    3.525618   -0.067858
 C    3.429520    0.234392   -0.224351
 O    4.599570    0.624019    0.453347
 C    2.976090   -1.151267    0.206975
 O    3.991182   -2.066064   -0.147013
 C    1.651548   -1.514053   -0.458384
 O    1.185626   -2.769503   -0.014488
 H   -3.149911   -0.540051   -2.029507
 H   -5.583821   -0.230935   -2.258516
 H   -6.953092    0.381735   -0.282638
 H   -5.864979    0.678847    1.929299
 H   -3.418183    0.369052    2.160117
 H   -0.818947    0.097117   -1.757336
 H   -0.859896   -1.621354   -1.274229
 H    2.152588    1.262852    1.181521
 H    2.792913    2.606330   -1.482429
 H    3.523095    3.012833    0.086709
 H    0.755933    3.102211   -0.369797
 H    3.590643    0.221956   -1.315780
 H    5.217959   -0.115192    0.376166
 H    2.833876   -1.136814    1.300075
 H    3.647183   -2.950098    0.039710
 H    1.815893   -1.607801   -1.536827
 H    0.838683   -2.621547    0.879061
