15 
2qrl_ligand_dft.xyz
 C    2.243417    0.071240   -0.228337
 C    0.814337    0.196610    0.334471
 C   -1.357443   -0.915847    0.609397
 C   -2.341268   -0.028754   -0.172663
 O    2.809732   -1.143748   -0.088150
 O    2.793654    0.981573   -0.768977
 O    0.461951    1.185222    0.956282
 O   -3.293475   -0.490081   -0.743091
 N    0.012299   -0.877038    0.107733
 O   -2.077085    1.278528   -0.161356
 H   -1.718540   -1.941718    0.550914
 H   -1.338925   -0.604132    1.658742
 H    2.278002   -1.701581    0.498057
 H    0.253549   -1.513544   -0.640670
 H   -1.272657    1.468802    0.363946
