41 
2qrq_ligand_dft.xyz
 C   -3.376973   -0.345759   -1.105000
 C   -4.755535   -0.197064   -1.218678
 C   -5.536117    0.127210   -0.110211
 C   -7.026163    0.318099   -0.229843
 C   -4.894491    0.293558    1.123261
 C   -3.523154    0.146208    1.246621
 C   -2.744244   -0.177407    0.127507
 C   -1.290453   -0.343376    0.244224
 C   -0.353595   -0.620209   -0.899380
 N   -0.696920   -0.285832    1.378649
 O    0.675229   -0.490120    1.186235
 C    0.988837   -0.419855   -0.213338
 O    1.468476    0.845419   -0.559894
 C    2.677993    1.257617    0.094640
 C    2.937725    2.671169   -0.395544
 O    1.879020    3.532998   -0.055721
 C    3.794437    0.276185   -0.245270
 O    4.964727    0.682317    0.422506
 C    3.369316   -1.119176    0.183405
 O    4.396625   -2.014507   -0.185300
 C    2.044221   -1.502139   -0.469545
 O    1.604545   -2.766815   -0.025117
 H   -2.796823   -0.600357   -1.987621
 H   -5.229371   -0.335624   -2.186892
 H   -7.411723   -0.103702   -1.162435
 H   -7.284090    1.383650   -0.213792
 H   -7.554183   -0.157800    0.602870
 H   -5.484284    0.544583    2.001489
 H   -3.039445    0.280172    2.208521
 H   -0.474155   -1.647765   -1.259522
 H   -0.466546    0.073014   -1.735439
 H    2.513812    1.275177    1.178488
 H    3.842234    3.055224    0.080198
 H    3.106293    2.642614   -1.484632
 H    1.069823    3.093852   -0.349182
 H    3.944694    0.272185   -1.338316
 H    5.594226   -0.046380    0.335746
 H    3.238017   -1.112520    1.277936
 H    4.070430   -2.905052    0.002387
 H    2.198847   -1.589155   -1.550006
 H    1.260881   -2.625989    0.870907
