63 
2qt9_ligand_dft.xyz
 C    6.518746   -0.615575   -0.063689
 C    5.052525    1.307049    0.086524
 C    3.925773    0.535148    0.007865
 C    5.364235   -1.424049   -0.144913
 C    6.351940    0.736168    0.050688
 N    4.120907   -0.820971   -0.107516
 N    3.155542   -1.771842   -0.200477
 C    3.878601   -2.884338   -0.287064
 N    5.212496   -2.743170   -0.259844
 C   -1.933227    1.237367   -0.003097
 C   -2.865469    0.482407    0.990036
 C   -2.501667   -1.014672    1.106965
 N   -2.862622   -1.839552    0.121433
 C   -2.093206    2.752794    0.163288
 N   -2.748018    1.001878    2.386905
 O   -1.863646   -1.366118    2.098660
 O   -2.073545    3.222554    1.318656
 N   -2.206208    3.559688   -0.904007
 C   -2.277657    3.168584   -2.305141
 C   -2.231696    5.007155   -0.695191
 C   -2.546455   -3.274238    0.220812
 C   -3.530629   -3.911958   -0.747347
 C   -3.735627   -2.844464   -1.813173
 C   -3.778401   -1.551153   -0.994403
 F   -4.735412   -4.101080   -0.087168
 C    2.524566    1.086552    0.048265
 C    1.742662    0.797835   -1.245735
 C    0.324202    1.364765   -1.173696
 C   -0.435307    0.815486    0.043431
 C    0.327590    1.174221    1.326116
 C    1.747941    0.603988    1.286076
 H    7.490904   -1.091281   -0.094477
 H    4.937380    2.380960    0.181299
 H    7.216261    1.388401    0.115444
 H    3.393966   -3.847422   -0.375141
 H   -2.296361    0.927416   -0.983194
 H   -3.902709    0.619716    0.673715
 H   -2.121139    0.337042    2.877867
 H   -2.368146    1.990357    2.308775
 H   -3.646293    1.012111    2.871514
 H   -2.473697    2.106165   -2.430462
 H   -1.341429    3.412585   -2.817400
 H   -3.092119    3.721720   -2.781568
 H   -1.478420    5.473977   -1.336479
 H   -2.017337    5.228308    0.347254
 H   -3.217055    5.404210   -0.958554
 H   -2.687262   -3.628473    1.243102
 H   -1.507134   -3.451354   -0.073602
 H   -3.192504   -4.875289   -1.134307
 H   -2.883159   -2.837577   -2.499589
 H   -4.648748   -3.011122   -2.386147
 H   -3.448798   -0.687932   -1.577397
 H   -4.789471   -1.363899   -0.616251
 H    2.636783    2.176267    0.132235
 H    2.271338    1.232881   -2.100374
 H    1.698557   -0.284088   -1.403999
 H    0.368319    2.461874   -1.113382
 H   -0.208698    1.114842   -2.099672
 H   -0.429823   -0.279414   -0.048684
 H   -0.166346    0.757353    2.208764
 H    0.354168    2.263911    1.451450
 H    1.697843   -0.489234    1.277112
 H    2.286043    0.898572    2.192974
