62 
2qtb_ligand_dft.xyz
 C   39.573486   51.662202   36.071571
 C   38.512251   51.366859   34.968648
 C   37.148289   51.341475   35.663047
 N   36.520321   50.160176   35.854974
 C   39.540232   50.501433   37.062999
 N   38.407827   52.356980   33.911481
 O   36.661084   52.393936   36.072371
 O   39.896339   49.379124   36.694503
 N   39.059132   50.725461   38.314097
 C   38.636389   52.031269   38.809659
 C   38.926886   49.600017   39.225170
 C   36.989476   48.823068   35.500439
 C   36.102291   47.936773   36.366911
 C   34.793496   48.692856   36.504491
 C   35.261063   50.144340   36.610066
 F   36.671644   47.789493   37.603551
 C   43.921434   51.438866   35.216156
 C   43.377818   52.518330   36.166720
 C   41.981725   52.155519   36.675072
 C   40.994683   51.914267   35.523466
 C   41.540604   50.836394   34.576224
 C   42.934280   51.204066   34.061049
 C   47.887404   52.376455   33.802824
 C   46.817482   53.243664   33.484159
 C   45.565392   52.935126   33.938147
 C   45.312053   51.766584   34.720932
 C   46.360642   50.943799   35.015649
 N   47.606375   51.259973   34.558512
 N   48.734060   50.545796   34.769714
 C   49.634858   51.280249   34.123494
 N   49.189942   52.398095   33.518187
 F   35.960367   46.694182   35.846692
 H   38.078316   53.231774   34.311569
 H   39.309584   52.521193   33.476577
 H   38.741872   50.399985   34.515052
 H   35.451614   50.436767   37.648773
 H   34.555989   50.861457   36.185751
 H   34.204298   48.532637   35.597033
 H   34.219779   48.352363   37.367914
 H   36.808813   48.596187   34.443577
 H   38.042473   48.669618   35.744435
 H   39.254013   52.592077   36.549576
 H   38.280331   51.902155   39.833506
 H   39.469494   52.742037   38.834506
 H   37.820349   52.447257   38.211709
 H   39.248474   48.698456   38.708202
 H   39.545916   49.754343   40.116259
 H   37.882076   49.483327   39.531569
 H   40.933837   52.855266   34.953766
 H   42.048209   51.245123   37.286655
 H   41.606031   52.952900   37.329313
 H   44.067043   52.652377   37.008139
 H   43.333776   53.481374   35.638605
 H   43.983394   50.501491   35.787354
 H   46.293492   50.032859   35.597443
 H   50.672297   50.975262   34.097810
 H   47.021028   54.126253   32.890025
 H   44.736711   53.594713   33.698335
 H   42.871176   52.114973   33.447847
 H   43.315641   50.412229   33.406652
 H   41.570140   49.878441   35.104495
 H   40.868511   50.697280   33.720576
