38 
2qtn_ligand_dft.xyz
 P   -0.276207    2.624556    0.537524
 O    0.347933    2.393869    1.848934
 O   -1.166415    3.951070    0.340994
 O    0.695181    2.699896   -0.716907
 O   -1.371932    1.501418    0.214555
 C   -2.012897    1.375868   -1.054831
 C   -2.412237   -0.077093   -1.236834
 O   -1.247316   -0.870959   -1.484890
 C   -3.099317   -0.691512   -0.013490
 O   -3.996285   -1.686249   -0.446127
 C   -1.920437   -1.348704    0.717107
 O   -2.304180   -2.488084    1.464036
 C   -1.042538   -1.805860   -0.457952
 N    0.369206   -1.900305   -0.161928
 C    0.917553   -3.093475    0.156119
 C    2.243603   -3.250798    0.437030
 C    3.099539   -2.128385    0.231485
 C    2.585632   -0.895119   -0.017434
 C    1.099754   -0.656009    0.096534
 C    3.417169    0.248208   -0.327009
 O    4.739536    0.004241   -0.347238
 O    3.010314    1.384984   -0.562572
 H   -0.623363    4.749751    0.370353
 H    1.538779    2.186996   -0.597394
 H   -1.330120    1.672291   -1.856565
 H   -2.897565    2.021567   -1.072050
 H   -3.073575   -0.156645   -2.105998
 H   -3.606127    0.068849    0.596310
 H   -3.967250   -2.378644    0.232647
 H   -1.392685   -0.615196    1.331522
 H   -2.443997   -2.220797    2.379312
 H   -1.378839   -2.803340   -0.769800
 H    0.237234   -3.939539    0.129078
 H    2.640964   -4.232778    0.654474
 H    4.175181   -2.273568    0.212230
 H    0.766889    0.071724   -0.643652
 H    0.841687   -0.253871    1.090738
 H    5.161817    0.852791   -0.551205
