72 
2qtr_ligand_dft.xyz
 O    1.025291    3.265643    0.549269
 C    1.699901    2.399216   -0.198177
 O    1.165452    1.420624   -0.733725
 C    3.122101    2.656255   -0.337867
 C    3.780037    3.662495    0.301686
 C    5.208565    3.634027    0.390818
 C    5.812990    2.415027    0.236577
 C    3.984259    1.710699   -1.126378
 N    5.168084    1.363704   -0.335784
 C    5.270088    0.071701    0.327312
 C    4.290284   -0.106257    1.503873
 O    4.947296   -0.807367    2.529583
 C    3.190177   -0.994346    0.907108
 O    2.577553   -1.751499    1.911533
 O    4.991777   -0.953695   -0.602221
 C    4.009951   -1.839026   -0.077097
 C    3.227150   -2.393598   -1.251797
 O    2.319248   -3.370268   -0.715516
 P    0.837828   -3.560784   -1.209743
 O    1.033788   -3.950115   -2.750212
 O   -0.001173   -4.441418   -0.389593
 O    0.250162   -2.045916   -1.352988
 P   -0.666059   -1.296530   -0.235554
 O   -0.006857   -1.209939    1.088173
 O   -1.031482    0.040401   -0.966720
 O   -2.042593   -2.081939   -0.267103
 C   -2.490342   -2.842379    0.869464
 C   -3.769496   -2.235789    1.411205
 C   -4.894702   -2.051621    0.391070
 O   -6.124814   -2.195196    1.057991
 C   -4.718090   -0.600517   -0.059310
 O   -5.943189   -0.096851   -0.502700
 C   -4.204905    0.048518    1.243773
 O   -3.490090   -0.927629    1.939660
 N   -3.301157    1.168669    0.976208
 C   -2.056831    1.379139    1.494189
 N   -1.469001    2.440241    0.994031
 C   -2.375916    2.954922    0.089623
 C   -3.522335    2.175788    0.068933
 C   -2.339292    4.044280   -0.804166
 N   -1.283552    4.872756   -0.910969
 N   -3.413501    4.269535   -1.577950
 C   -4.457774    3.444572   -1.483905
 N   -4.602681    2.375595   -0.701425
 H    0.117908    2.883264    0.789004
 H    3.230903    4.420867    0.851835
 H    5.759525    4.462410    0.817319
 H    6.798885    2.204498    0.645138
 H    3.461847    0.798240   -1.406117
 H    4.344459    2.189152   -2.047686
 H    6.297261   -0.016671    0.702267
 H    3.916283    0.863907    1.858129
 H    4.252142   -1.325967    2.967857
 H    2.458624   -0.384822    0.362771
 H    1.613787   -1.683092    1.784333
 H    4.481954   -2.663100    0.472902
 H    2.680180   -1.592046   -1.758950
 H    3.882626   -2.893019   -1.968958
 H    0.211682   -4.268918   -3.147089
 H   -0.288417    0.707441   -0.875950
 H   -1.718136   -2.846405    1.640662
 H   -2.652162   -3.865297    0.523805
 H   -4.128957   -2.865076    2.231825
 H   -4.807172   -2.754607   -0.448283
 H   -6.745779   -1.613962    0.591336
 H   -3.933835   -0.532115   -0.822649
 H   -5.787304    0.843902   -0.727535
 H   -5.048900    0.417978    1.838620
 H   -1.616717    0.693244    2.202325
 H   -1.305691    5.564696   -1.643709
 H   -0.400931    4.651306   -0.470825
 H   -5.295836    3.673084   -2.136765
