42 
2qv7_ligand_dft.xyz
 P   -2.940740    0.220849   -0.682078
 O   -4.415239   -0.024181   -0.144410
 O   -2.422008   -0.716328   -1.697818
 O   -2.941819    1.759894   -0.988748
 P   -1.716851   -1.294783    1.346110
 O   -2.890639   -2.185377    1.247684
 O   -1.185796   -0.895344    2.794906
 O   -2.009652    0.151645    0.687393
 O   -0.348463   -1.789571    0.726476
 C   -0.273118   -2.817878   -0.281512
 C    1.133693   -2.819769   -0.853986
 O    1.331564   -1.694495   -1.720381
 C    2.269246   -2.745168    0.170624
 O    3.407414   -3.349082   -0.391067
 C    2.489139   -1.236160    0.311147
 O    3.809707   -0.966877    0.684336
 C    2.140760   -0.738086   -1.111142
 N    1.404669    0.527699   -1.058587
 C    0.221056    0.816159   -1.665879
 N   -0.252849    1.999367   -1.339051
 C    0.684037    2.515945   -0.463659
 C    0.770102    3.712310    0.272964
 N   -0.161481    4.683192    0.199335
 N    1.829993    3.899458    1.074489
 C    2.757314    2.941292    1.148589
 N    2.791009    1.768846    0.515980
 C    1.722216    1.612156   -0.280554
 H   -4.474631   -0.937002    0.193317
 H   -2.012418    2.032531   -1.255094
 H   -1.891975   -0.536433    3.349503
 H   -0.494640   -3.781383    0.186321
 H   -0.998054   -2.608815   -1.071980
 H    1.246730   -3.719473   -1.465710
 H    1.994747   -3.208554    1.127733
 H    4.170685   -2.874917   -0.027371
 H    1.772498   -0.824498    1.027893
 H    3.858789    0.002142    0.792758
 H    3.054436   -0.585669   -1.695185
 H   -0.280649    0.099075   -2.298401
 H   -1.029119    4.525399   -0.286364
 H   -0.088216    5.463044    0.833266
 H    3.589074    3.146558    1.817167
