40 
2qwb_ligand_xtb.xyz
 C   -2.957331   -0.155077    0.892964
 C   -2.474611    0.358474   -0.480327
 C   -1.963024    1.799315   -0.411308
 C   -0.614315    1.899050    0.310697
 C    0.369609    0.915273   -0.354743
 C   -0.204036   -0.500769   -0.254465
 C    0.631715   -1.578754   -0.972301
 C    1.956455   -1.973117   -0.291168
 C    1.756514   -2.415102    1.169265
 C    2.587053    1.904122   -0.222686
 C    3.872014    1.930248    0.568638
 N    1.674017    1.022767    0.246766
 O   -4.135868   -0.770793    0.810496
 O   -2.325099   -0.088232    1.912906
 O   -3.480359    0.322073   -1.425043
 O   -0.122881    3.210302    0.312103
 O   -1.470116   -0.560460   -0.907888
 O   -0.116445   -2.775181   -1.067972
 O    2.547736   -3.006612   -1.031317
 O    1.707855   -1.279190    2.011448
 O    2.376931    2.599017   -1.198248
 H   -1.858003    2.148009   -1.440856
 H   -2.706846    2.420777    0.086593
 H   -0.742289    1.628244    1.365535
 H    0.478441    1.192203   -1.412850
 H   -0.324986   -0.765861    0.803643
 H    0.864723   -1.213720   -1.985034
 H    2.658816   -1.137082   -0.315746
 H    2.608587   -3.052561    1.438791
 H    0.834348   -3.004369    1.246315
 H    3.699282    2.457657    1.504577
 H    4.208455    0.921518    0.792175
 H    4.633152    2.459250    0.002972
 H    1.827999    0.515656    1.106386
 H   -4.408866   -1.108319    1.679894
 H   -3.878723   -0.557264   -1.451535
 H    0.371355    3.369096   -0.505254
 H   -0.993424   -2.527660   -1.384719
 H    1.849840   -3.645287   -1.233078
 H    1.545727   -1.569023    2.915550
