43 
2qwe_ligand_dft.xyz
 C   -1.575750   -1.390053    2.518904
 C   -0.553519   -0.897622    1.551238
 C    0.603062   -0.395484    1.996943
 C    1.647292    0.135098    1.057379
 C    1.347135   -0.366126   -0.370582
 C   -0.152963   -0.296925   -0.704043
 C   -0.731366    1.106092   -0.916645
 C   -2.041817    1.096160   -1.714634
 C   -3.139357    0.216858   -1.118735
 C    1.965884   -2.326469   -1.714496
 C    2.350558   -3.792060   -1.692972
 N    1.822904   -1.733567   -0.492509
 N    1.733092    1.575133    1.175565
 C    2.799531    2.259466    0.601723
 N    2.589249    3.636767    0.614481
 N    3.877396    1.791187    0.091767
 O   -1.391642   -1.491167    3.709037
 O   -2.743533   -1.702335    1.931621
 O   -0.920974   -1.026008    0.254505
 O   -0.964394    1.758610    0.316816
 O   -2.479666    2.444483   -1.709226
 O   -4.329467    0.598958   -1.800941
 O    1.785390   -1.711408   -2.753967
 H    0.764869   -0.336505    3.066034
 H    2.621949   -0.274474    1.354236
 H    1.888987    0.239456   -1.102022
 H   -0.284550   -0.836005   -1.646478
 H   -0.000456    1.674544   -1.512622
 H   -1.834441    0.768264   -2.743879
 H   -2.916492   -0.844995   -1.268307
 H   -3.218719    0.402761   -0.041198
 H    2.741517   -4.124999   -0.727372
 H    1.470477   -4.392710   -1.943914
 H    3.101774   -3.965040   -2.466058
 H    1.810627   -2.311827    0.335300
 H    0.827534    2.026986    1.066768
 H    3.428243    4.128515    0.335294
 H    2.208697    3.990623    1.482906
 H    3.866077    0.776176    0.027763
 H   -3.322110   -2.002722    2.650891
 H   -1.554787    2.495377    0.083027
 H   -3.431175    2.403254   -1.894804
 H   -5.084345    0.233993   -1.327941
