47 
2qwf_ligand_xtb.xyz
 C    3.705202    0.324716   -1.196957
 O    4.762635   -0.079338   -0.782709
 O    3.569296    0.942135   -2.367851
 C    2.420904    0.194718   -0.456145
 C    2.388397   -0.468290    0.707004
 C    1.117435   -0.649322    1.474734
 C    0.081206    0.390421    0.996175
 N    0.356059    1.681885    1.589217
 C   -0.585642    2.658943    1.583537
 O   -1.711061    2.461869    1.173794
 C   -0.106368    3.977607    2.140611
 C    0.092051    0.503555   -0.544587
 O    1.377714    0.828806   -1.035646
 C   -0.395116   -0.814926   -1.169886
 O    0.417136   -1.649161   -1.541886
 N   -1.720542   -1.007408   -1.230421
 C   -2.207514   -2.264843   -1.760831
 C   -2.744352   -0.038142   -0.888803
 C   -3.136763    0.843028   -2.080751
 C   -4.079214    1.950654   -1.628808
 N    0.671802   -2.017405    1.308123
 C   -0.462999   -2.503208    1.936916
 N   -1.035308   -2.055369    2.976231
 N   -1.007339   -3.605778    1.311222
 H    4.423886    0.982163   -2.825983
 H    3.285833   -0.941492    1.065851
 H    1.299033   -0.483108    2.547270
 H   -0.919250    0.086071    1.322936
 H    1.318774    1.912587    1.779279
 H    0.615783    4.420662    1.457347
 H   -0.951635    4.650794    2.247478
 H    0.369466    3.832267    3.107145
 H   -0.539098    1.339420   -0.855143
 H   -2.930681   -2.083002   -2.555236
 H   -2.675981   -2.845409   -0.963699
 H   -1.362635   -2.820587   -2.161555
 H   -2.425302    0.606921   -0.070711
 H   -3.616767   -0.597532   -0.541984
 H   -3.614733    0.238056   -2.853958
 H   -2.235790    1.281437   -2.515056
 H   -4.999479    1.529039   -1.231604
 H   -4.329706    2.603203   -2.461184
 H   -3.609759    2.542757   -0.847062
 H    0.839085   -2.379443    0.377257
 H   -0.632419   -1.212321    3.365675
 H   -1.644247   -4.115154    1.903800
 H   -0.366195   -4.182752    0.789641
