43 
2qwg_ligand_xtb.xyz
 C    1.519104    2.621504   -0.677762
 O    1.634324    3.647134   -0.066092
 O    2.340900    2.208684   -1.631955
 C    0.416010    1.642289   -0.412722
 C   -0.415231    1.818534    0.618805
 C   -1.606700    0.944387    0.820271
 C   -1.573111   -0.359452   -0.025673
 N   -2.702720   -0.406854   -0.921336
 C   -3.921215   -0.520407   -0.324689
 O   -3.992485   -0.498916    0.895841
 C   -5.089039   -0.670502   -1.244467
 C   -0.192423   -0.578468   -0.643553
 O    0.347424    0.580983   -1.253838
 C    0.755739   -1.015434    0.512008
 O    0.355439   -0.956532    1.681229
 N    1.981767   -1.389455    0.191377
 C    2.912417   -1.709003    1.269080
 C    3.738856   -0.488793    1.657839
 C    2.490773   -1.533888   -1.163036
 C    2.278657   -2.950092   -1.692714
 N   -1.779555    0.506551    2.232807
 H    3.031126    2.870585   -1.805543
 H   -0.285005    2.679827    1.252373
 H   -2.496757    1.520097    0.537243
 H   -1.718082   -1.202953    0.666449
 H   -2.589485   -0.353314   -1.919570
 H   -6.011048   -0.533767   -0.686980
 H   -5.086347   -1.673083   -1.669109
 H   -5.040247    0.047594   -2.058912
 H   -0.240181   -1.339497   -1.426189
 H    3.559847   -2.518313    0.930712
 H    2.330965   -2.052529    2.126410
 H    3.091855    0.309179    2.014353
 H    4.313915   -0.119787    0.811914
 H    4.428824   -0.755421    2.452488
 H    2.025564   -0.800628   -1.821050
 H    3.559531   -1.315604   -1.130536
 H    2.690740   -3.026797   -2.694400
 H    1.222224   -3.204763   -1.732849
 H    2.778887   -3.679232   -1.060737
 H   -1.780399    1.275760    2.906018
 H   -0.960625   -0.148182    2.388403
 H   -2.689566   -0.005728    2.237769
