41 
2qyl_ligand_xtb.xyz
 C   -4.634629   -0.238509    0.085214
 C   -4.411539    1.050180   -0.395769
 C   -3.138904    1.581374   -0.418718
 C   -2.057591    0.841186    0.058967
 C   -3.556980   -0.980694    0.565648
 C   -0.684683    1.362865    0.045111
 C    3.628054    3.668178   -0.198026
 C   -0.381770    2.707843   -0.003053
 C    0.967067    3.097649   -0.051850
 C    1.377331    4.447785   -0.135514
 C   -6.036496   -0.748587    0.078333
 O   -6.188263   -2.084656    0.050680
 O   -6.992710   -0.022811    0.086209
 C   -2.286464   -0.443136    0.554170
 N    0.278804    0.428057    0.100168
 C    2.710828    4.735894   -0.205970
 N    3.285694    2.414189   -0.112553
 C    1.980993    2.098483   -0.027481
 C    1.551408    0.738891    0.076708
 C    2.468245   -0.408253    0.155611
 C    1.961068   -1.667907   -0.158739
 C    3.799971   -0.302803    0.558308
 C    4.608436   -1.426371    0.631582
 C    4.109517   -2.675696    0.315770
 C    2.778597   -2.782004   -0.074539
 N    2.234797   -4.079032   -0.394250
 O    2.990123   -5.027467   -0.372281
 O    1.053662   -4.145594   -0.661689
 H   -5.256657    1.615821   -0.757729
 H   -2.986242    2.568460   -0.827122
 H   -3.699692   -1.968606    0.984032
 H    4.691328    3.860219   -0.265941
 H   -1.149789    3.465590    0.008374
 H    0.627285    5.226157   -0.150168
 H   -5.344802   -2.553277   -0.008199
 H   -1.448522   -1.008757    0.929567
 H    3.066741    5.752042   -0.273701
 H    0.932941   -1.772559   -0.468628
 H    4.198388    0.666839    0.806817
 H    5.636678   -1.324492    0.942932
 H    4.720032   -3.563930    0.368269
