111 
2qzx_ligand_xtb.xyz
 C    1.197280   -2.555145   -1.497099
 O    0.162914   -2.173472   -2.210193
 O    1.115058   -3.200146   -0.474476
 C    2.499998   -2.129974   -2.145857
 C    3.766412   -2.391476   -1.311223
 O    3.786200   -3.678602   -0.753445
 C    3.996196   -1.305390   -0.227148
 N    3.032357   -1.424132    0.846020
 C    2.039872   -0.553366    1.046872
 O    1.844419    0.397324    0.297619
 C    1.189865   -0.781909    2.298784
 N   -0.068761   -0.090858    2.154842
 C   -0.388504    0.982786    2.907047
 O    0.341741    1.413022    3.781628
 C   -1.727517    1.600560    2.559061
 C   -1.596502    3.107584    2.244157
 O   -2.792143    3.621133    1.730409
 C   -0.375456    3.381068    1.327681
 C   -0.439753    4.791697    0.730279
 N   -0.218545    2.384728    0.271294
 C   -1.124585    2.076764   -0.652292
 O   -2.245592    2.567444   -0.746667
 C   -0.671279    0.982082   -1.633965
 N   -1.831720    0.184350   -1.974670
 C   -2.488302   -0.487495   -1.026377
 O   -2.064705   -0.622377    0.111568
 C   -3.811696   -1.120604   -1.465568
 N   -4.017284   -2.332905   -0.697346
 C   -3.091771   -3.308976   -0.711281
 O   -2.144559   -3.283568   -1.486617
 C   -3.311018   -4.441090    0.260284
 C   -2.412186   -4.259450    1.498007
 C   -2.829560   -3.029168    2.299516
 C    5.412964   -1.424770    0.350266
 C    6.482239   -0.715766   -0.489520
 C    7.868610   -1.223588   -0.098176
 C    6.411127    0.798622   -0.306404
 C    0.966421   -2.257413    2.633159
 C    0.926618    5.299225    0.255342
 C    0.745669    6.418613   -0.768204
 C    1.765051    5.794693    1.431013
 C    0.000244    1.537219   -2.899555
 C    1.321483    2.211960   -2.536933
 C   -0.898896    2.513877   -3.656375
 C   -4.995083   -0.151931   -1.279721
 C   -4.956043    0.966810   -2.318820
 C   -5.018015    0.456720    0.121339
 C   -2.471032   -5.512623    2.367268
 H   -0.693994   -2.554290   -1.878033
 H    2.426622   -1.074861   -2.410440
 H    2.560932   -2.699495   -3.077419
 H    4.629556   -2.349576   -1.987284
 H    2.906706   -3.833937   -0.368078
 H    3.841832   -0.318620   -0.672045
 H    3.120767   -2.234529    1.436860
 H    1.702896   -0.276988    3.132017
 H   -0.691434   -0.394141    1.415672
 H   -2.398282    1.493665    3.413161
 H   -2.171329    1.085443    1.707881
 H   -1.418476    3.646652    3.181695
 H   -2.854271    3.326999    0.800412
 H    0.514178    3.287543    1.954261
 H   -1.138959    4.775743   -0.106908
 H   -0.844791    5.472930    1.479341
 H    0.617902    1.807930    0.310849
 H    0.040349    0.331526   -1.115357
 H   -2.259244    0.333102   -2.873384
 H   -3.728998   -1.408257   -2.521826
 H   -4.696260   -2.304543    0.046329
 H   -3.033905   -5.369437   -0.241728
 H   -4.357835   -4.497993    0.563230
 H   -1.384893   -4.122253    1.146436
 H   -3.875830   -3.101635    2.594921
 H   -2.682242   -2.121063    1.721172
 H   -2.232383   -2.951420    3.204458
 H    5.651334   -2.487823    0.428293
 H    5.422740   -0.999199    1.356145
 H    6.316230   -0.949364   -1.546617
 H    8.636679   -0.723808   -0.683510
 H    7.948558   -2.294288   -0.270001
 H    8.059559   -1.028374    0.954771
 H    5.427372    1.183906   -0.561452
 H    6.622688    1.062656    0.727448
 H    7.143340    1.291658   -0.941414
 H    0.179442   -2.330170    3.379143
 H    0.660813   -2.806326    1.746041
 H    1.860998   -2.713404    3.050635
 H    1.459949    4.471064   -0.225231
 H    0.199805    6.061773   -1.639258
 H    1.711128    6.794592   -1.099953
 H    0.188088    7.243240   -0.329724
 H    1.283057    6.647858    1.903613
 H    2.751945    6.102615    1.092204
 H    1.890131    5.015456    2.178398
 H    0.210181    0.673741   -3.542595
 H    1.902266    2.408418   -3.435203
 H    1.135885    3.159470   -2.038007
 H    1.906465    1.583214   -1.871043
 H   -0.352771    2.943248   -4.493126
 H   -1.219515    3.321849   -3.003717
 H   -1.787385    2.027579   -4.053852
 H   -5.906224   -0.744284   -1.433791
 H   -4.118576    1.633218   -2.125087
 H   -4.881392    0.567062   -3.328880
 H   -5.867913    1.555124   -2.254786
 H   -5.959659    0.973880    0.286871
 H   -4.900176   -0.296526    0.897168
 H   -4.214626    1.181257    0.225761
 H   -1.818074   -5.402672    3.229631
 H   -3.485054   -5.681926    2.724639
 H   -2.152009   -6.388449    1.807370
