53 
2r0u_ligand_dft.xyz
 C   -3.852025    0.438412   -0.103657
 C   -3.451284    1.757037   -0.497488
 C   -2.167451    2.045636   -0.840699
 C   -2.850606   -0.552065   -0.111378
 C   -1.521060   -0.289998   -0.447692
 C   -1.141471    1.055765   -0.831388
 C    0.191202    1.332309   -1.202870
 C    1.143922    0.336682   -1.135094
 C   -0.478206   -1.298999   -0.373021
 C    0.854713   -0.940639   -0.625671
 C    1.956118   -1.865307   -0.339206
 C    1.642423   -3.174153   -0.107058
 N    0.354726   -3.561810   -0.065238
 C   -0.777310   -2.701793   -0.078506
 O   -1.854253   -3.234608    0.121775
 C   -5.187144    0.173644    0.285023
 C   -6.295072    1.064844    0.381512
 N   -7.378294    0.443719    0.802700
 N   -7.054965   -0.887569    1.007472
 C   -5.781413   -1.049373    0.708276
 C    0.684117    2.714202   -1.601915
 C    1.915120    3.159991   -0.785553
 C    1.644087    3.122077    0.712316
 N    2.916856    3.315511    1.488281
 C    3.299916   -1.395252   -0.034978
 C    4.469084   -2.229840   -0.311114
 C    5.984599   -0.434706    0.513204
 C    4.763681    0.409578    0.782407
 C    5.708787   -1.787066   -0.061547
 C    3.488109   -0.160351    0.544294
 O    4.910205    1.582161    1.202257
 H   -4.198743    2.543478   -0.523461
 H   -1.936948    3.061269   -1.146513
 H   -3.122238   -1.555906    0.176084
 H    2.157666    0.545568   -1.454317
 H    2.380197   -3.934704    0.126835
 H    0.110376   -4.523443    0.132160
 H   -6.329502    2.127800    0.159928
 H   -5.314978   -2.025644    0.796560
 H   -0.096947    3.468369   -1.493378
 H    0.966589    2.717515   -2.660922
 H    2.202813    4.175418   -1.086507
 H    2.769304    2.508847   -1.003775
 H    1.233430    2.155035    1.009947
 H    0.942079    3.900936    1.020542
 H    2.734004    3.348705    2.493300
 H    3.657039    2.532083    1.327857
 H    3.367761    4.197089    1.233889
 H    4.317777   -3.199731   -0.773774
 H    6.537107   -0.534224    1.458746
 H    6.660124    0.128862   -0.144289
 H    6.568023   -2.409956   -0.293650
 H    2.622174    0.439445    0.790799
