53 
2r0u_ligand_xtb.xyz
 C   -3.852810    0.502165   -0.097710
 C   -3.447058    1.817799   -0.411845
 C   -2.141549    2.102804   -0.677054
 C   -2.877807   -0.483681   -0.053910
 C   -1.526604   -0.222775   -0.305988
 C   -1.135608    1.112048   -0.648422
 C    0.213221    1.377987   -0.995720
 C    1.124033    0.356273   -0.940608
 C   -0.527318   -1.251426   -0.202914
 C    0.812178   -0.919171   -0.438896
 C    1.881695   -1.869286   -0.198777
 C    1.521079   -3.170294    0.023247
 N    0.222421   -3.512880    0.102973
 C   -0.865138   -2.632146    0.105147
 O   -1.955268   -3.125874    0.333854
 C   -5.229720    0.206064    0.176973
 C   -6.352991    1.062614    0.098405
 N   -7.431308    0.376912    0.430906
 N   -7.104465   -0.840114    0.744209
 C   -5.804696   -1.016462    0.598219
 C    0.717140    2.738169   -1.413487
 C    1.993771    3.152365   -0.667996
 C    1.802805    3.138660    0.847797
 N    3.102554    3.211694    1.524257
 C    3.257173   -1.448664   -0.083943
 C    4.334551   -2.281458   -0.500300
 C    6.009276   -0.534716    0.090586
 C    4.848095    0.276707    0.562834
 C    5.615754   -1.871758   -0.426664
 C    3.571650   -0.195898    0.483817
 O    5.155187    1.476461    1.049759
 H   -4.184518    2.605084   -0.445835
 H   -1.882189    3.120720   -0.925390
 H   -3.172150   -1.488082    0.191042
 H    2.129504    0.525458   -1.290155
 H    2.243444   -3.951040    0.209925
 H   -0.037037   -4.473375    0.295058
 H   -6.421711    2.092587   -0.192811
 H   -5.341240   -1.960035    0.806033
 H   -0.038833    3.501429   -1.242447
 H    0.930685    2.721869   -2.485917
 H    2.279942    4.156801   -0.988989
 H    2.817776    2.484324   -0.920749
 H    1.325428    2.202624    1.150625
 H    1.133483    3.958999    1.141707
 H    2.965432    3.224143    2.530632
 H    4.340131    2.031637    1.246369
 H    3.565896    4.081013    1.273381
 H    4.104083   -3.247711   -0.922929
 H    6.728209   -0.641007    0.913994
 H    6.551575    0.024943   -0.684029
 H    6.418556   -2.508091   -0.767224
 H    2.773050    0.408221    0.885658
