65 
2r23_ligand_xtb.xyz
 O    2.057262   -2.634856   -1.936036
 C    1.475440   -2.642008   -0.755532
 O    0.784667   -3.538038   -0.343291
 C    1.818900   -1.415312    0.103837
 O    2.052540   -0.321966   -0.730313
 C    2.533521    0.831714   -0.045351
 C    2.552191    1.967537   -1.085788
 C    1.495605    3.027062   -0.755137
 O    1.525568    3.992935   -1.785401
 O    3.830184    2.561272   -1.150980
 C    3.895220    0.531629    0.598126
 O    4.848536    0.127110   -0.356302
 C    3.686191   -0.607269    1.620058
 O    4.868652   -0.941691    2.277999
 C    3.095134   -1.835713    0.899718
 O    4.039616   -2.430291    0.063104
 O    0.805778   -1.170808    1.047491
 C   -2.933671    1.680589    2.351766
 O   -2.968949    2.862409    2.553005
 O   -3.500002    0.779372    3.136426
 C   -2.190985    1.011974    1.177584
 C   -1.016853    0.196121    1.736539
 C   -0.353320   -0.501092    0.556661
 C   -1.374770   -1.452893   -0.097130
 O   -1.681439   -2.529905    0.745783
 C   -2.634284   -0.647326   -0.479644
 O   -3.132260    0.181817    0.556708
 C   -3.820975   -1.538963   -0.893769
 O   -4.351353   -2.268621    0.176552
 C   -3.463090   -2.500975   -2.042583
 O   -4.616082   -3.166764   -2.481003
 O   -1.634624    1.953553    0.299523
 C   -2.542796    2.849799   -0.352364
 C   -1.954871    3.215449   -1.679332
 C   -1.723555    4.454793   -2.073591
 H    1.902175   -3.472452   -2.406433
 H    1.842236    1.093146    0.767913
 H    2.306739    1.520727   -2.061495
 H    0.508924    2.560634   -0.674657
 H    1.746780    3.493725    0.208909
 H    0.704363    4.497405   -1.759359
 H    3.715823    3.395682   -1.624875
 H    4.246326    1.427344    1.128402
 H    4.948584    0.863932   -0.975406
 H    2.984581   -0.269334    2.388223
 H    5.450681   -1.369149    1.633071
 H    2.795402   -2.590072    1.633808
 H    4.407786   -1.729259   -0.506504
 H   -3.988832    1.206033    3.860873
 H   -0.311264    0.853913    2.241163
 H   -1.397895   -0.551177    2.432094
 H   -0.061554    0.243213   -0.192654
 H   -0.950744   -1.823897   -1.044019
 H   -0.868139   -3.049392    0.854811
 H   -2.348009   -0.019429   -1.338997
 H   -4.631772   -0.880940   -1.231494
 H   -3.605489   -2.614713    0.690539
 H   -3.060448   -1.958585   -2.900773
 H   -2.719786   -3.229746   -1.688016
 H   -5.105788   -3.423991   -1.686680
 H   -2.692290    3.736436    0.271677
 H   -3.506345    2.344297   -0.495790
 H   -1.708353    2.377144   -2.317573
 H   -1.322870    4.674406   -3.049116
 H   -1.963800    5.299186   -1.448159
