51 
2r2m_ligand_xtb.xyz
 C   -4.771689   -2.344008   -0.274591
 O   -4.369998   -0.653276    1.378338
 C   -4.921630    1.403863    0.172027
 C   -2.498732    1.480802   -0.103799
 C   -1.211493    1.857659    0.642267
 C   -0.013577    1.443289   -0.152126
 C    0.298055    0.100335   -0.267884
 C    1.378045   -0.397200   -1.003105
 C    2.146043    0.540652   -1.692927
 C    1.861639    1.888251   -1.608603
 C    2.891686   -2.336685   -1.220256
 C    3.746869   -2.281991    0.072663
 C    4.738362    1.313061    0.641614
 C    2.895365   -0.507260    1.627953
 N   -5.974439   -2.474034    0.105061
 N   -4.096041   -3.141292   -1.189268
 N   -4.002624   -1.300372    0.185277
 C   -5.376798    0.317704    1.159720
 N   -3.614986    1.906778    0.530745
 O   -2.508884    0.882656   -1.155618
 C    0.798486    2.336973   -0.844892
Cl    0.500147    4.036101   -0.751207
 F   -0.462805   -0.799716    0.412839
 N    1.586966   -1.762034   -1.061436
 C    3.812767   -0.897522    0.662080
 C    4.742440    0.011572    0.175197
 C    3.807260    1.710786    1.586238
 C    2.894354    0.798293    2.084977
 F    3.233031   -3.176863    0.969143
 F    4.992501   -2.758740   -0.223442
 H   -5.649226    2.218461    0.155826
 H   -4.824934    0.975805   -0.827597
 H   -1.223560    1.330913    1.599989
 H   -1.197958    2.932081    0.824331
 H    2.976489    0.221494   -2.299682
 H    2.471179    2.599320   -2.142920
 H    2.782452   -3.388724   -1.498700
 H    3.444436   -1.823158   -2.007618
 H    5.461284    2.019130    0.262628
 H    2.189043   -1.223031    2.020912
 H   -6.468077   -3.239513   -0.340291
 H   -4.683358   -3.659650   -1.824482
 H   -3.287990   -2.729545   -1.630090
 H   -2.998097   -1.403527    0.144302
 H   -5.548241    0.735888    2.154272
 H   -6.288155   -0.168754    0.797677
 H   -3.524789    2.293753    1.457845
 H    0.995152   -2.283327   -0.426958
 H    5.466687   -0.305539   -0.560097
 H    3.798171    2.730811    1.938886
 H    2.176648    1.101476    2.831720
