38 
2r3g_ligand_xtb.xyz
 C    1.663287    3.767881   -0.858861
 N    1.016846    2.659674   -0.416749
 C    1.981716    1.841286    0.132079
 N    3.184965    2.385674    0.046992
 C    2.992252    3.572155   -0.560493
 C   -0.292814    2.278814   -0.448821
 C   -0.620979    1.058833    0.078131
 N    0.300662    0.222355    0.621635
 C    1.558456    0.591657    0.663883
 N    2.477012   -0.217750    1.232251
 C    2.122368   -1.541923    1.679021
 C    1.600635   -2.405940    0.558096
 C    2.169350   -2.373170   -0.709608
 C    1.643271   -3.176374   -1.707318
 C    0.563091   -3.988503   -1.397688
 N    0.014339   -4.030855   -0.195991
 C    0.518405   -3.259163    0.749336
 C   -1.991590    0.528066    0.064366
 C   -3.136585    1.321050    0.073742
 C   -4.408758    0.781664    0.060569
 C   -4.563222   -0.593052    0.037336
 C   -3.443879   -1.409635    0.038505
 C   -2.179864   -0.854392    0.055715
 F   -3.035546    2.671657    0.119242
 H    1.154773    4.582036   -1.331976
 H    3.817811    4.227640   -0.755749
 H   -0.990845    2.956268   -0.908582
 H    3.439069    0.064474    1.147649
 H    1.343903   -1.456875    2.444734
 H    3.007664   -2.001546    2.126044
 H    3.007323   -1.721509   -0.914994
 H    2.060876   -3.170035   -2.702298
 H    0.112047   -4.632296   -2.141119
 H    0.029616   -3.322061    1.713531
 H   -5.259382    1.445210    0.073140
 H   -5.554093   -1.020612    0.023471
 H   -3.553260   -2.483057    0.025672
 H   -1.303181   -1.481771    0.062386
