31 
2r3h_ligand_dft.xyz
 C    3.736638   -0.551974   -0.604572
 N    2.757253    0.270105   -0.102954
 C    1.703550   -0.538666    0.251852
 N    1.945896   -1.815302    0.008932
 C    3.199985   -1.821768   -0.519557
 C    2.687816    1.643425    0.073206
 C    1.539675    2.139750    0.595842
 N    0.452633    1.390684    0.957205
 C    0.534275    0.087083    0.802346
 N   -0.476461   -0.737365    1.169042
 C   -1.762817   -0.264190    1.638132
 C   -2.783412   -0.109235    0.528863
 C   -2.638986    0.880508   -0.444915
 C   -3.588874    0.970414   -1.454596
 N   -4.649769    0.163121   -1.558639
 C   -4.780895   -0.777006   -0.622972
 C   -3.885313   -0.953374    0.429289
 C    5.045197   -0.041344   -1.098102
 H    3.678718   -2.743444   -0.823671
 H    3.545313    2.233826   -0.217897
 H    1.442854    3.209976    0.746371
 H   -0.375202   -1.703252    0.890195
 H   -1.591447    0.697992    2.127128
 H   -2.132689   -0.966546    2.392062
 H   -1.799000    1.567243   -0.405512
 H   -3.497646    1.735235   -2.223095
 H   -5.648290   -1.427463   -0.717111
 H   -4.052030   -1.741188    1.159278
 H    4.920636    0.656630   -1.934943
 H    5.603931    0.476867   -0.309244
 H    5.656950   -0.876317   -1.447554
