38 
2r3j_ligand_dft.xyz
 C    3.041428   -1.166317   -0.074430
 C    1.824206   -0.516188    0.120528
 N    0.946348   -1.539815    0.432116
 N    1.512391   -2.767081    0.449029
 C    2.787403   -2.523594    0.139091
 N    1.440652    0.767204    0.048279
 C    0.169150    1.021275    0.312637
 C   -0.768642    0.020344    0.676758
 C   -0.366877   -1.297703    0.724200
 N   -1.110814   -2.385310    1.018642
 C   -0.260338    2.441499    0.224138
 C   -2.494719   -2.303110    1.430581
 C   -3.415551   -1.780304    0.345423
 C   -4.465009   -0.919700    0.662376
 N   -5.321148   -0.417359   -0.228834
 C   -5.147369   -0.768678   -1.503566
 C   -4.129132   -1.615756   -1.935019
 C   -3.247826   -2.127849   -0.993161
 C    0.696160    3.454078    0.351167
 C    0.320923    4.789290    0.278858
 C   -1.013014    5.132403    0.069408
 C   -1.968937    4.131154   -0.073152
 C   -1.595976    2.793534    0.004135
Br    4.657241   -0.360713   -0.527128
 H    3.490322   -3.342878    0.078055
 H   -1.788131    0.276610    0.923594
 H   -0.597735   -3.253294    1.090364
 H   -2.591337   -1.673704    2.326486
 H   -2.796663   -3.313829    1.721125
 H   -4.619684   -0.609073    1.695965
 H   -5.852133   -0.346174   -2.216082
 H   -4.028107   -1.859462   -2.987322
 H   -2.426618   -2.774953   -1.289049
 H    1.732613    3.173457    0.504515
 H    1.072365    5.565796    0.386270
 H   -1.305369    6.176725    0.011708
 H   -3.008322    4.389382   -0.252067
 H   -2.351920    2.026599   -0.138527
