38 
2r3k_ligand_xtb.xyz
 C    3.035574   -0.877560   -0.033111
 C    1.794060   -0.285847    0.229707
 N    1.023591   -1.317933    0.712185
 N    1.683343   -2.479834    0.758537
 C    2.904002   -2.217635    0.309686
 C    1.233788    0.988017    0.090987
 C   -0.082744    1.174415    0.446448
 C   -0.830813    0.090344    0.959504
 C   -0.274579   -1.157753    1.093143
 N   -0.873310   -2.272717    1.604787
 C   -0.733855    2.481088    0.283667
 C   -2.310429   -2.392151    1.676435
 C   -2.981497   -2.121267    0.353822
 C   -2.541059   -2.703828   -0.832677
 N   -3.096341   -2.437852   -2.001394
 C   -4.097903   -1.577325   -2.004959
 N   -4.602303   -0.965038   -0.949525
 C   -4.048079   -1.237475    0.218999
 C   -0.058481    3.656738    0.602578
 C   -0.673040    4.884596    0.442853
 C   -1.967539    4.957442   -0.044029
 C   -2.645958    3.794486   -0.368588
 C   -2.036867    2.564697   -0.203011
Br    4.556514    0.000361   -0.710065
 H    3.638937   -2.994807    0.247130
 H    1.832662    1.783375   -0.320871
 H   -1.847726    0.258095    1.268449
 H   -0.323788   -3.109753    1.462583
 H   -2.692261   -1.690600    2.427249
 H   -2.545703   -3.405084    2.012616
 H   -1.714628   -3.404122   -0.849648
 H   -4.546122   -1.351259   -2.963182
 H   -4.472254   -0.727777    1.076511
 H    0.945934    3.603363    0.996062
 H   -0.140305    5.788395    0.699786
 H   -2.445532    5.917309   -0.171785
 H   -3.653333    3.844536   -0.754930
 H   -2.566212    1.663412   -0.478557
