38 
2r3l_ligand_dft.xyz
 C    3.130879   -1.236810   -0.092589
 N    1.907011   -0.634273    0.090658
 C    1.033436   -1.663966    0.365879
 N    1.629505   -2.848460    0.371413
 C    2.932107   -2.584342    0.086252
 C    1.517602    0.687240    0.030838
 C    0.213003    0.992681    0.282404
 C   -0.724489   -0.042405    0.589315
 C   -0.338537   -1.360981    0.618352
 N   -1.155342   -2.436626    0.859462
 C   -0.244657    2.402738    0.216373
 C   -2.487003   -2.282451    1.388662
 C   -3.474691   -1.735725    0.377423
 C   -4.612952   -1.039174    0.771247
 N   -5.508157   -0.559370   -0.092818
 C   -5.243740   -0.779932   -1.380094
 N   -4.185882   -1.414305   -1.884811
 C   -3.309385   -1.886543   -0.997289
 C    0.534773    3.437336    0.743598
 C    0.105489    4.757940    0.667038
 C   -1.113900    5.063738    0.069413
 C   -1.900412    4.040495   -0.452962
 C   -1.469497    2.720600   -0.380932
Br    4.659086   -0.261868   -0.496201
 H    3.678145   -3.363613    0.019554
 H    2.279155    1.403721   -0.246020
 H   -1.749343    0.236554    0.802850
 H   -0.666082   -3.303827    1.028347
 H   -2.489256   -1.630827    2.277469
 H   -2.821780   -3.270372    1.721004
 H   -4.813089   -0.852409    1.826631
 H   -5.965863   -0.395021   -2.096061
 H   -2.431814   -2.394150   -1.391685
 H    1.473112    3.200812    1.237681
 H    0.720851    5.548626    1.085880
 H   -1.451146    6.094306    0.013345
 H   -2.850811    4.270174   -0.925307
 H   -2.078180    1.930005   -0.811547
