79 
2r3t_ligand_dft.xyz
 C    5.525365    0.663897   -1.265270
 O   -4.394298    4.358483   -0.385549
 N    8.168584    1.889258   -1.126854
 C   -5.452355    0.980477    0.194101
 O    7.733834    2.300214    1.065443
 N   -6.526029    3.712051    0.046122
 C    5.765751    0.286134    1.112524
 C    6.222195    0.866656   -0.070208
 C   -3.797532    1.774643   -1.378650
 C   -4.847683    2.032473   -0.495550
 C    1.091249    0.453404    0.638982
 C   -5.229954    3.474953   -0.286510
 S    2.495360   -1.708883   -0.101384
 C    7.447748    1.743994    0.022852
 S   -3.226172   -2.183887   -0.918264
 O    2.337002   -2.331097    1.207856
 O   -2.545134   -2.327051   -2.207745
 C    0.645835    1.744819   -0.002653
 C    1.523512    2.445303   -0.835435
 C   -0.633619    2.251606    0.217441
 C    4.381924   -0.123147   -1.282199
 C   -4.995041   -0.323438    0.025997
 C    4.630999   -0.514984    1.109011
 C   -3.333705    0.481265   -1.554598
 C    0.162896   -1.577208   -2.404373
 N    0.034474   -3.085262   -2.376723
 C    0.026488   -1.107837   -0.953035
 C   -0.607571   -2.297534   -0.157933
 C   -0.261858   -3.555417   -0.970670
 C    3.951827   -0.702550   -0.091010
 C   -3.926153   -0.553034   -0.834528
 N    1.283599   -0.588292   -0.402058
 C    1.126133    3.635579   -1.429850
 C   -1.035113    3.450553   -0.372194
 C   -0.154097    4.140224   -1.197630
 N   -2.007708   -2.149840    0.211245
 C   -2.357709   -2.398564    1.626713
 C   -1.715425   -1.388498    2.546105
 C   -0.579215   -1.719834    3.284466
 C    0.036516   -0.770894    4.099060
 C   -0.487971    0.513995    4.188453
 C   -2.237663   -0.095802    2.643538
 C   -1.630679    0.849363    3.462270
 O   -4.239644   -3.134222   -0.507759
 O    2.509380   -2.578715   -1.283480
 H    5.854826    1.144557   -2.181043
 H    9.036221    2.400247   -1.040252
 H    8.126014    1.195929   -1.857674
 H   -6.259759    1.173656    0.893862
 H   -6.806194    4.679801    0.122376
 H   -7.250109    3.035732   -0.139721
 H    6.309027    0.478240    2.031233
 H   -3.339313    2.601830   -1.908350
 H    0.375885    0.111241    1.394747
 H    2.048586    0.599729    1.145264
 H    2.524408    2.056176   -1.006863
 H   -1.317120    1.709583    0.864745
 H    3.831455   -0.280213   -2.203545
 H   -5.461449   -1.149058    0.552995
 H    4.270920   -0.986746    2.016863
 H   -2.526718    0.279319   -2.250308
 H   -0.650090   -1.201855   -3.019773
 H    1.124609   -1.314511   -2.835768
 H   -0.737977   -3.361938   -2.986068
 H    0.909594   -3.505923   -2.694331
 H   -0.654177   -0.255376   -0.912534
 H   -0.087246   -2.356568    0.799180
 H    0.646278   -4.022657   -0.594614
 H   -1.071022   -4.283292   -1.003644
 H    1.816436    4.179909   -2.067038
 H   -2.033399    3.841023   -0.191529
 H   -0.461050    5.075300   -1.655652
 H   -2.061146   -3.419030    1.898255
 H   -3.445291   -2.359513    1.711319
 H   -0.164297   -2.723202    3.223526
 H    0.922715   -1.041079    4.664238
 H   -0.014528    1.253054    4.826844
 H   -3.125287    0.171210    2.074252
 H   -2.047947    1.848882    3.535831
