32 
2r58_ligand_dft.xyz
 N    3.632478    1.533730    0.128167
 C    2.566478    0.492764    0.411669
 C    1.214389    0.918523   -0.172269
 C    0.043886    0.144897    0.456511
 C   -1.291701    0.471395   -0.228856
 C   -2.427912   -0.281179    0.461876
 N   -3.737716   -0.234379   -0.287267
 C   -4.761892   -1.113834    0.370654
 C   -4.266318    1.155649   -0.470537
 C    3.060420   -0.864511   -0.114090
 O    2.323519   -1.743748   -0.453859
 O    4.395977   -0.909130   -0.103580
 H    3.697285    1.747441   -0.874120
 H    4.556883    1.186758    0.417905
 H    3.445862    2.413718    0.621220
 H    2.516669    0.424620    1.504555
 H    1.070868    1.992253    0.005186
 H    1.227418    0.762159   -1.257435
 H    0.239825   -0.927589    0.375140
 H   -0.019457    0.390259    1.524293
 H   -1.470968    1.551614   -0.195309
 H   -1.234497    0.177961   -1.285540
 H   -2.631749    0.121021    1.458400
 H   -2.179940   -1.341097    0.565894
 H   -3.567621   -0.620220   -1.221211
 H   -4.977248   -0.710008    1.360880
 H   -4.363816   -2.125490    0.453605
 H   -5.667721   -1.116832   -0.236252
 H   -5.227898    1.099537   -0.981334
 H   -4.394580    1.608531    0.513914
 H   -3.567706    1.737462   -1.070326
 H    4.704994   -1.786746   -0.395998
