86 
2r5q_ligand_xtb.xyz
 C    2.698105   -3.015430   -0.485858
 C    4.123988   -2.707026   -0.010557
 C    5.149279   -3.498038   -0.829634
 C    4.964699   -3.321201   -2.334282
 C    3.543477   -3.689496   -2.746535
 C    2.532174   -2.826557   -1.996606
 N    1.987121   -0.732090    0.186385
 C    3.329468   -0.413414    0.717475
 C    4.385101   -1.200320   -0.063932
 C    1.695143   -2.179159    0.306533
 C    3.623338    1.090881    0.508704
 N    4.505370    1.594281    1.373652
 C    5.038714    2.969556    1.338315
 C    3.880612    3.956858    1.485961
 C    6.003412    3.098659    2.513353
 C    5.769921    3.190080    0.014089
 O    3.082933    1.689193   -0.398538
 C    0.886110    0.115981    0.697771
 C    0.252042    0.832832   -0.534607
 C   -1.242869    1.158094   -0.342299
 O    0.483880    0.067216   -1.679450
 N   -2.024668    0.083705    0.243939
 C   -1.416439    2.397668    0.537764
 C   -2.054749   -1.213888   -0.108483
 O   -1.209554   -1.724808   -0.846398
 C   -3.183713   -1.995423    0.449516
 C   -3.778607   -2.897105   -0.434109
 C   -4.879131   -3.631024   -0.044455
 C   -5.383263   -3.483417    1.235034
 C   -4.777340   -2.611890    2.131099
 C   -3.660841   -1.851602    1.753565
 O   -5.232799   -2.464123    3.399662
 C   -3.032073   -0.978986    2.799377
 S   -3.176896    2.697587    0.946063
 C   -3.839588    2.870175   -0.706798
 C   -4.782649    1.957760   -1.152904
 C   -5.304253    2.090346   -2.428089
 C   -4.880347    3.122223   -3.248987
 C   -3.940989    4.032605   -2.792358
 C   -3.421951    3.914780   -1.515330
 H    2.485771   -4.065911   -0.262473
 H    4.212185   -3.023707    1.036474
 H    6.157190   -3.197475   -0.539242
 H    5.037671   -4.556283   -0.586462
 H    5.676916   -3.960451   -2.856090
 H    5.178320   -2.291739   -2.626570
 H    3.361634   -4.742252   -2.522460
 H    3.419678   -3.550322   -3.820528
 H    2.676406   -1.784946   -2.290205
 H    1.518060   -3.110331   -2.282089
 H    1.955222   -0.512211   -0.846123
 H    3.345633   -0.680860    1.779981
 H    4.385996   -0.848550   -1.096110
 H    5.369720   -0.985444    0.354613
 H    0.687882   -2.360239   -0.077192
 H    1.728162   -2.444127    1.367267
 H    4.914204    0.988168    2.068202
 H    3.342744    3.779372    2.414862
 H    3.192712    3.855493    0.651755
 H    4.263881    4.972224    1.496971
 H    6.421296    4.100348    2.537016
 H    6.825923    2.392457    2.419205
 H    5.490666    2.923448    3.457000
 H    5.082683    3.072134   -0.818757
 H    6.584220    2.477420   -0.096481
 H    6.182035    4.193753   -0.016593
 H    1.265582    0.849144    1.407823
 H    0.148809   -0.512833    1.197160
 H    0.789024    1.772022   -0.704717
 H   -1.635430    1.384268   -1.347041
 H   -0.151349   -0.699736   -1.643521
 H   -2.814986    0.442173    0.774689
 H   -1.009069    3.276909    0.043025
 H   -0.929045    2.266274    1.502980
 H   -3.369367   -2.997711   -1.427051
 H   -5.345100   -4.318890   -0.731717
 H   -6.245572   -4.054847    1.549672
 H   -5.996405   -3.034951    3.548957
 H   -1.977356   -0.802904    2.604646
 H   -3.137675   -1.461967    3.768258
 H   -3.546768   -0.019955    2.867810
 H   -5.111086    1.159048   -0.504262
 H   -6.041630    1.384715   -2.778842
 H   -5.287419    3.222083   -4.243217
 H   -3.617574    4.843772   -3.426379
 H   -2.705190    4.633804   -1.147676
