42 
2r6f_ligand_xtb.xyz
 P    2.469224   -1.455030    0.323738
 O    2.876081   -2.815522   -0.025203
 O    2.816056   -0.332681   -0.734644
 O    2.944084   -0.901898    1.686253
 P    0.170737   -1.998240   -0.957082
 O    0.396798   -3.547629   -0.814079
 O    0.722979   -1.327137   -2.131701
 O    0.820350   -1.387519    0.403757
 O   -1.374235   -1.779333   -0.808275
 C   -2.165208   -2.279997    0.266470
 C   -3.087634   -1.171518    0.796026
 O   -2.386753   -0.289408    1.666447
 C   -3.673874   -0.294020   -0.319800
 O   -4.930911    0.185268    0.061582
 C   -2.639259    0.838866   -0.414359
 O   -3.205263    2.016577   -0.895388
 C   -2.154634    0.946520    1.052245
 N   -0.748764    1.267372    1.112800
 C    0.158739    0.800269    2.007664
 N    1.379284    1.187990    1.766129
 C    1.292929    1.963933    0.634704
 C    2.232165    2.631169   -0.174891
 N    3.550411    2.650006    0.080827
 N    1.774250    3.314268   -1.228113
 C    0.481289    3.329880   -1.486474
 N   -0.492332    2.718612   -0.831968
 C   -0.045442    2.027051    0.220184
 H    2.327791   -0.510436   -1.556133
 H    2.493182   -0.033766    1.903717
 H    1.341060   -3.709052   -0.631267
 H   -2.764599   -3.108074   -0.119463
 H   -1.526234   -2.632377    1.077852
 H   -3.891266   -1.626929    1.383951
 H   -3.739614   -0.847463   -1.265280
 H   -5.038858    1.055045   -0.350214
 H   -1.805274    0.506419   -1.043135
 H   -2.461111    2.615931   -1.095449
 H   -2.724788    1.732576    1.578292
 H   -0.130085    0.166554    2.821634
 H    3.924661    1.972648    0.722609
 H    4.148968    3.023023   -0.636841
 H    0.178897    3.908549   -2.348453
