43 
2r7b_ligand_xtb.xyz
 C    6.048865    0.456807   -0.361217
 O    5.077926   -0.525037   -0.095435
 C    3.776194   -0.141983   -0.065741
 C    2.844798   -1.178304    0.245633
 O    3.405880   -2.384525    0.532850
 C    2.557345   -3.449427    0.879505
 C    1.499175   -0.911133    0.251427
 C    1.001708    0.374639   -0.037363
 C   -0.388207    0.710102   -0.089791
 C   -1.464508   -0.224060   -0.225788
 C   -2.776874    0.237066    0.073306
 N   -3.036706    1.542369    0.347219
 C   -3.865230   -0.653724    0.071771
 C   -5.230849   -0.163067    0.454833
 C   -3.667566   -1.973309   -0.319034
 N   -4.694422   -2.893806   -0.268822
 C   -2.396816   -2.383476   -0.757249
 C   -1.325257   -1.534004   -0.709403
 C   -0.711964    2.078193    0.006726
 C   -2.089389    2.428779    0.235268
 N   -2.467290    3.737273    0.339168
 C    0.326740    3.027343   -0.116976
 N    1.577434    2.726466   -0.291097
 C    1.937938    1.423880   -0.207669
 C    3.314486    1.133325   -0.260311
 H    5.891432    0.922037   -1.339635
 H    6.055929    1.233273    0.410537
 H    7.004216   -0.065502   -0.357420
 H    1.983612   -3.230837    1.786430
 H    1.866402   -3.696841    0.066490
 H    3.213162   -4.298560    1.064927
 H    0.801725   -1.675451    0.548574
 H   -5.165033    0.890038    0.707243
 H   -5.936681   -0.281411   -0.369321
 H   -5.608256   -0.714625    1.315706
 H   -5.629487   -2.521586   -0.279393
 H   -4.568230   -3.725315   -0.823138
 H   -2.279037   -3.385241   -1.147011
 H   -0.380089   -1.855746   -1.117605
 H   -3.411158    3.876481    0.661045
 H   -1.789123    4.420478    0.626673
 H    0.105495    4.087947   -0.119778
 H    3.978019    1.965367   -0.426477
