67 
2r9m_ligand_dft.xyz
 C    1.056729    1.311526   -0.392522
 C    2.291349    3.237589    0.363304
 C    3.328791    2.725296    1.375638
 C    4.503351    2.179939   -0.580024
 C    3.250236    1.883365   -1.427376
 O    0.344659    1.393206    0.619813
 O    4.250641    1.837150    0.759153
 N    2.057604    2.207706   -0.640442
 N    0.838599    0.344895   -1.344279
 C    0.383572   -1.007259   -1.016406
 C    1.054393   -1.613676    0.234227
 C    2.578618   -1.471869    0.282312
 C    3.301045   -2.091889   -0.917997
 C    4.801519   -1.728739   -0.910836
 C    5.343656   -1.517259    0.515960
 C    4.621100   -2.436376    1.501937
 C    3.123667   -2.079312    1.593878
 C   -1.136710   -1.134483   -0.892926
 O   -1.751316   -2.074489   -1.384812
 N   -1.754385   -0.185415   -0.145810
 C   -3.557516    0.870238    1.054111
 C   -5.061763    0.940696    1.351133
 C   -5.278935    0.743028   -1.094897
 C   -3.947630    0.006117   -1.281970
 N   -5.881164    0.381047    0.224239
 C   -7.312817    0.743622    0.339605
 C   -3.537889   -1.615933    0.636647
 N   -4.746050   -2.009771    0.689991
 C   -3.183204   -0.245326    0.053758
 H    2.641978    4.137879   -0.151340
 H    1.351780    3.472340    0.860727
 H    2.837342    2.147128    2.161152
 H    3.861692    3.570751    1.833557
 H    4.807487    3.232896   -0.670582
 H    5.337107    1.561126   -0.918686
 H    3.270914    2.448570   -2.367846
 H    3.245232    0.816201   -1.661623
 H    1.358215    0.420369   -2.203876
 H    0.634853   -1.623420   -1.881553
 H    0.778972   -2.676087    0.256082
 H    0.631051   -1.151909    1.133157
 H    2.824479   -0.401712    0.305072
 H    3.172218   -3.181931   -0.878398
 H    2.853269   -1.771358   -1.867578
 H    4.968114   -0.819009   -1.502191
 H    5.363916   -2.523542   -1.413103
 H    6.422649   -1.701061    0.536979
 H    5.193751   -0.475671    0.825250
 H    5.081015   -2.377328    2.493306
 H    4.737405   -3.476020    1.169629
 H    2.956668   -1.360338    2.404898
 H    2.549730   -2.979578    1.850287
 H   -1.170445    0.548214    0.275896
 H   -3.213282    1.816996    0.624611
 H   -3.016905    0.736242    1.995505
 H   -5.327650    0.358172    2.235647
 H   -5.378867    1.974707    1.508796
 H   -5.161590    1.831141   -1.101880
 H   -5.995339    0.472731   -1.872860
 H   -3.305318    0.618563   -1.918899
 H   -4.099717   -0.945546   -1.792526
 H   -5.763241   -0.671542    0.321008
 H   -7.429520    1.816580    0.173617
 H   -7.880640    0.187852   -0.407594
 H   -7.666398    0.482330    1.338248
 H   -2.701817   -2.196863    1.030088
 H   -4.852573   -2.929823    1.112561
