75 
2rcu_ligand_xtb.xyz
 O    5.214797    4.158790   -1.879042
 C    5.602371    3.183483   -1.082302
 O    6.638382    3.182398   -0.464248
 C    4.586614    2.057569   -1.035266
 C    4.856166    1.098208    0.141651
 C    6.134635    0.305792   -0.170231
 N    6.881757   -0.244988    0.993884
 C    8.063011   -0.947838    0.456292
 C    6.057842   -1.207418    1.743834
 C    7.340106    0.836056    1.888235
 N    3.695989    0.256699    0.399588
 C    3.370341   -0.922071   -0.220078
 O    4.173970   -1.571188   -0.856670
 C    1.955826   -1.368323    0.063160
 C    1.569013   -2.595207   -0.762866
 C    0.283139   -3.256606   -0.271794
 C   -0.949974   -2.362683   -0.389781
 C   -2.225934   -3.116728   -0.021051
 C   -3.462889   -2.223607   -0.082369
 C   -4.732177   -2.994136    0.274904
 C   -5.975133   -2.107665    0.356186
 C   -6.389331   -1.526261   -0.994775
 C   -7.765458   -0.860363   -0.963020
 C   -7.813732    0.391782   -0.089380
 C   -9.164845    1.096530   -0.196619
 C   -9.311480    2.283482    0.755949
 C   -8.388243    3.453081    0.420772
 C   -8.653949    4.653056    1.322026
 H    5.864389    4.880409   -1.924966
 H    4.617915    1.519254   -1.985186
 H    3.594617    2.503277   -0.949509
 H    5.003741    1.719913    1.032372
 H    6.816644    0.975267   -0.693950
 H    5.853970   -0.525634   -0.823336
 H    7.751813   -1.725734   -0.238802
 H    8.626629   -1.408851    1.265521
 H    8.711106   -0.246264   -0.065700
 H    5.193245   -0.708660    2.175370
 H    6.642948   -1.656580    2.544178
 H    5.704733   -1.990294    1.073985
 H    8.105296    0.460123    2.564387
 H    7.748765    1.658501    1.302276
 H    6.516510    1.216138    2.487449
 H    2.924068    0.751222    0.822439
 H    1.888132   -1.609231    1.128599
 H    1.270984   -0.542481   -0.136021
 H    1.456178   -2.301430   -1.807632
 H    2.386228   -3.317025   -0.713434
 H    0.117464   -4.159333   -0.862226
 H    0.407170   -3.565134    0.769164
 H   -1.033301   -1.993118   -1.414368
 H   -0.851387   -1.498373    0.271160
 H   -2.124374   -3.522990    0.988304
 H   -2.356610   -3.959502   -0.702915
 H   -3.554198   -1.809379   -1.087685
 H   -3.342145   -1.388927    0.613141
 H   -4.896377   -3.780663   -0.465063
 H   -4.585289   -3.479546    1.243211
 H   -5.787956   -1.299031    1.065016
 H   -6.801766   -2.706284    0.745756
 H   -5.649876   -0.794402   -1.325962
 H   -6.411178   -2.334065   -1.730602
 H   -8.506038   -1.579548   -0.605668
 H   -8.042210   -0.584521   -1.983701
 H   -7.638285    0.120978    0.953302
 H   -7.017495    1.070810   -0.400452
 H   -9.952770    0.372712    0.025972
 H   -9.314049    1.438485   -1.223623
 H   -9.117235    1.952082    1.778959
 H  -10.345262    2.635143    0.715605
 H   -7.346843    3.146225    0.533969
 H   -8.539795    3.742751   -0.621637
 H   -7.986395    5.475486    1.074312
 H   -8.499499    4.387797    2.365917
 H   -9.679140    4.997672    1.206581
