40 
2rcx_ligand_dft.xyz
 O   -4.856857   -1.991262   -0.047855
 C   -4.150000   -0.928153   -0.479751
 O   -4.692501    0.084587   -0.873244
 C   -2.690735   -1.107424   -0.416343
 C   -2.093990   -2.143701    0.187027
 C   -0.645798   -2.327734    0.347937
 C    0.265674   -1.286898    0.128919
 C   -0.161843   -3.577473    0.749047
 C    1.202663   -3.780424    0.914795
 C    2.094407   -2.736775    0.691514
 C    1.633222   -1.474516    0.296309
 C    2.641486   -0.377318    0.005128
 B    3.388740   -0.568587   -1.412603
 O    3.489286   -1.767490   -2.040078
 O    3.963246    0.510556   -2.008645
 N    2.101987    0.971461    0.092196
 C    2.008590    1.623669    1.295608
 O    2.568980    1.239209    2.303287
 C    1.209472    2.934747    1.260736
 C   -0.011569    2.892190    0.391144
 C   -0.124161    3.258750   -0.922299
 C   -1.407006    2.971632   -1.480580
 C   -2.253863    2.398199   -0.580222
 S   -1.496902    2.197565    0.958124
 H   -5.790415   -1.737734   -0.117809
 H   -2.132144   -0.296554   -0.870688
 H   -2.722147   -2.928690    0.603302
 H   -0.107351   -0.303939   -0.141775
 H   -0.860064   -4.389446    0.933078
 H    1.573422   -4.749049    1.235651
 H    3.158753   -2.891173    0.857577
 H    3.418814   -0.428462    0.779085
 H    2.987135   -2.455834   -1.587428
 H    3.837985    1.292293   -1.456361
 H    1.465507    1.276794   -0.632918
 H    0.970306    3.172900    2.299553
 H    1.881269    3.721862    0.897403
 H    0.686518    3.725605   -1.473192
 H   -1.683067    3.185931   -2.506100
 H   -3.268210    2.049734   -0.733249
