45 
2rfy_ligand_dft.xyz
 C    1.017623   -0.133353    0.035956
 C    1.557350    1.293130   -0.139879
 C    2.907913    1.227495   -0.837938
 C    3.862961    0.314335   -0.088593
 C    3.201180   -1.051497    0.077840
 C    4.003649   -2.021739    0.927679
 O    0.734599    2.107696   -0.948783
 O    3.501893    2.503449   -0.936785
 O    5.071113    0.147098   -0.793418
 O    1.953022   -0.898403    0.747406
 O    3.327209   -3.247859    1.066432
 C   -4.215914   -0.287747    0.198900
 C   -3.380803   -1.084086   -0.795329
 C   -1.977219   -1.326788   -0.252109
 C   -1.360442    0.003386    0.163914
 C   -2.303735    0.719497    1.140051
 C   -1.792811    2.082290    1.571503
 O   -5.428443   -0.005529   -0.408936
 O   -3.947494   -2.348580   -1.057259
 O   -1.166218   -1.928638   -1.232232
 O   -0.133312   -0.158301    0.840159
 O   -3.566936    0.927569    0.523095
 O   -1.555674    2.939848    0.466502
 H    0.807690   -0.586730   -0.943970
 H    1.689682    1.725153    0.863219
 H    2.751428    0.803026   -1.844488
 H    4.044538    0.744405    0.910338
 H    3.036371   -1.498039   -0.915272
 H    4.199471   -1.553400    1.906101
 H    4.962376   -2.220203    0.444325
 H    0.004274    2.474772   -0.415943
 H    2.820383    3.079583   -1.310962
 H    5.356588    1.033741   -1.052691
 H    2.424605   -3.018461    1.327626
 H   -4.352690   -0.874456    1.125383
 H   -3.302446   -0.482880   -1.713876
 H   -2.049157   -1.970658    0.640077
 H   -1.234816    0.625938   -0.728827
 H   -2.417766    0.095556    2.042360
 H   -0.839866    1.964105    2.088571
 H   -2.518745    2.534966    2.258737
 H   -6.015489    0.393711    0.244923
 H   -4.812287   -2.198262   -1.459953
 H   -1.634900   -2.720153   -1.529880
 H   -2.355829    2.931950   -0.077225
