64 
2rgu_ligand_xtb.xyz
 C   -0.803877   -0.991931    1.028537
 N   -1.676217   -0.001791    1.441747
 C   -1.443708   -1.720093    0.052753
 C    0.536186   -1.313811    1.464120
 C   -2.797508   -0.124078    0.725443
 C   -1.350919    1.005450    2.436467
 N   -2.686907   -1.181900   -0.119464
 N   -0.884130   -2.771317   -0.575575
 N    1.065091   -2.361782    0.706309
 O    1.131788   -0.804154    2.382392
 N   -3.928609    0.611474    0.868208
 C   -0.785955    2.189108    1.808935
 C    0.458834   -3.084164   -0.299580
 C   -1.595871   -3.523050   -1.586979
 C    2.505027   -2.517686    0.843893
 C   -5.187527   -0.013662    0.486052
 C   -3.876157    2.024058    0.498766
 C   -0.288181    3.138541    1.270698
 O    1.012234   -3.960765   -0.909457
 C    3.184313   -1.294766    0.280652
 C   -5.525405    0.091636   -1.013477
 C   -4.014385    2.145678   -1.019134
 C    0.302277    4.302713    0.659448
 N    2.428117   -0.365319   -0.235862
 N    4.519555   -1.277645    0.374008
 C   -5.339747    1.540372   -1.479755
 N   -4.696343   -0.862760   -1.779588
 C    3.047498    0.746859   -0.692881
 C    5.163698   -0.226135   -0.069536
 C    4.459230    0.880509   -0.626534
 C    2.274783    1.789499   -1.237406
 C    6.648515   -0.247489    0.038207
 C    5.057805    2.060655   -1.105630
 C    2.888579    2.922217   -1.697944
 C    4.283353    3.059321   -1.631299
 H   -0.601513    0.571370    3.105744
 H   -2.259352    1.254748    2.993538
 H   -1.846205   -2.885528   -2.435745
 H   -2.503239   -3.954752   -1.164695
 H   -0.934458   -4.320846   -1.921743
 H    2.823671   -3.412132    0.307253
 H    2.766904   -2.613941    1.899951
 H   -5.171942   -1.058639    0.800011
 H   -5.968085    0.500174    1.052392
 H   -2.934049    2.458331    0.834458
 H   -4.701313    2.531508    1.002097
 H   -6.585568   -0.166328   -1.128699
 H   -3.174816    1.634599   -1.496837
 H   -3.976412    3.195860   -1.305854
 H    1.367585    4.135308    0.507902
 H   -0.168860    4.505894   -0.301565
 H    0.166485    5.165781    1.309363
 H   -6.157781    2.133217   -1.067216
 H   -5.418462    1.591162   -2.567447
 H   -5.214148   -1.719141   -1.947589
 H   -4.451765   -0.474135   -2.685075
 H   -3.431026   -1.283427   -0.881627
 H    1.202984    1.665900   -1.271507
 H    6.960052   -1.189653    0.478722
 H    6.994158    0.574083    0.663355
 H    7.101515   -0.140981   -0.945982
 H    6.129647    2.171538   -1.055541
 H    2.302042    3.724576   -2.121882
 H    4.742753    3.963586   -2.000649
