64 
2rgu_ligand_dft.xyz
 C   -0.951615   -0.949089    1.106498
 N   -1.846284    0.015196    1.529708
 C   -1.548818   -1.588327    0.060245
 C    0.373439   -1.271438    1.565718
 C   -2.915195   -0.066788    0.720332
 C   -1.585324    1.031614    2.555589
 N   -2.776405   -1.047090   -0.187648
 N   -0.938777   -2.596229   -0.628825
 N    0.957005   -2.281945    0.781052
 O    0.946513   -0.757818    2.506397
 N   -4.003672    0.790040    0.821129
 C   -0.775410    2.123356    2.018108
 C    0.397237   -2.908594   -0.338478
 C   -1.585269   -3.218594   -1.770013
 C    2.393796   -2.444700    0.960137
 C   -5.317974    0.213809    0.563851
 C   -3.817141    2.111067    0.191052
 C   -0.064233    2.982839    1.560019
 O    1.013928   -3.703287   -1.014124
 C    3.151555   -1.294566    0.327944
 C   -5.722944    0.159483   -0.922567
 C   -4.035719    2.035146   -1.320703
 C    0.830510    4.010037    1.034637
 N    2.479733   -0.388899   -0.329687
 N    4.492214   -1.335633    0.540337
 C   -5.434114    1.487886   -1.627034
 N   -4.997964   -0.976482   -1.610230
 C    3.203770    0.651300   -0.834176
 C    5.215089   -0.351419    0.055428
 C    4.604816    0.727392   -0.661473
 C    2.532150    1.679619   -1.536589
 C    6.697306   -0.401136    0.285729
 C    5.312075    1.833867   -1.190157
 C    3.240440    2.743554   -2.038867
 C    4.641191    2.824169   -1.864068
 H   -1.058267    0.535136    3.373315
 H   -2.558857    1.378651    2.913415
 H   -1.755096   -2.484029   -2.564867
 H   -2.536372   -3.663931   -1.462875
 H   -0.920771   -3.997064   -2.140323
 H    2.697773   -3.389319    0.510563
 H    2.614900   -2.472650    2.027904
 H   -5.373825   -0.775166    1.028401
 H   -6.058882    0.845463    1.067151
 H   -2.815269    2.475683    0.431495
 H   -4.536798    2.799293    0.649944
 H   -6.789111   -0.071654   -0.994935
 H   -3.258314    1.401332   -1.767502
 H   -3.926368    3.028077   -1.766323
 H    1.571215    3.564129    0.362491
 H    0.278337    4.778194    0.484290
 H    1.367176    4.498174    1.853943
 H   -6.185112    2.201914   -1.268856
 H   -5.601415    1.391034   -2.706687
 H   -5.478162   -1.864295   -1.449544
 H   -4.947740   -0.835009   -2.621186
 H   -3.986210   -1.089636   -1.183403
 H    1.457100    1.592916   -1.658384
 H    6.947447   -1.310962    0.832101
 H    7.031938    0.466235    0.865418
 H    7.241357   -0.392868   -0.664932
 H    6.387352    1.898886   -1.058353
 H    2.725766    3.532634   -2.579504
 H    5.184025    3.672033   -2.268797
