67 
2rjp_ligand_xtb.xyz
 C   -5.011943    2.118768    1.931657
 C   -6.295612    2.469122    1.183594
 C   -7.480911    2.532130    2.142864
 C   -6.522954    1.433077    0.062166
 C   -7.651401    1.853200   -0.867862
 O   -7.228953    2.618739   -1.869789
 O   -8.803064    1.556133   -0.697588
 N   -6.802517    0.115451    0.591037
 S   -6.518001   -1.063716   -0.578672
 O   -7.153705   -2.266143   -0.137204
 O   -6.820445   -0.550331   -1.886981
 C   -4.748244   -1.198113   -0.394992
 C   -3.902752   -0.733813   -1.382887
 C   -2.534481   -0.791228   -1.186073
 C   -2.011534   -1.306797   -0.000397
 C   -2.887128   -1.772663    0.981968
 C   -4.253857   -1.718838    0.785208
 C   -0.557419   -1.360686    0.212288
 C   -0.007267   -1.032458    1.448795
 C    1.359751   -1.080242    1.647309
 C    2.207656   -1.471051    0.620815
 C    1.663212   -1.799317   -0.614848
 C    0.299153   -1.740804   -0.819175
 C    3.698668   -1.518878    0.815734
 O    4.266151   -0.480075    0.033860
 C    5.612435   -0.341651    0.006665
 C    6.099070    0.703657   -0.785012
 C    7.449995    0.944220   -0.883005
 C    8.366279    0.140960   -0.200121
 C    7.871809   -0.908463    0.572952
 C    6.518158   -1.149715    0.689742
 C    9.838029    0.318788   -0.246448
 O   10.584291   -0.584117    0.064816
 C   10.361933    1.693235   -0.639571
 C    9.991730    2.685594    0.467977
 C   11.872162    1.650974   -0.848134
 H   -4.152781    2.158479    1.265951
 H   -5.087120    1.113052    2.336783
 H   -4.850972    2.817746    2.748535
 H   -6.174584    3.443276    0.697319
 H   -7.356400    3.364644    2.831409
 H   -7.545418    1.614471    2.721514
 H   -8.413536    2.668785    1.601591
 H   -5.609347    1.356578   -0.534287
 H   -7.963736    2.828521   -2.469604
 H   -7.759197    0.048281    0.918359
 H   -4.330601   -0.338766   -2.291300
 H   -1.865240   -0.415076   -1.945078
 H   -2.489145   -2.194396    1.892548
 H   -4.951004   -2.080106    1.523729
 H   -0.653655   -0.712531    2.252469
 H    1.770450   -0.811929    2.609829
 H    2.317666   -2.098986   -1.419638
 H   -0.111603   -2.017030   -1.778699
 H    4.088150   -2.492248    0.483841
 H    3.952424   -1.376461    1.874581
 H    5.384557    1.313112   -1.315893
 H    7.786420    1.751872   -1.514175
 H    8.580426   -1.534884    1.094126
 H    6.180649   -1.965595    1.309431
 H    9.881618    2.001462   -1.573108
 H    8.915056    2.726627    0.615767
 H   10.457262    2.385774    1.404558
 H   10.347577    3.680835    0.210779
 H   12.124233    0.956507   -1.645820
 H   12.247135    2.638029   -1.108310
 H   12.364930    1.313524    0.060126
