28 
2rjs_ligand_dft.xyz
 C    5.104407    0.581857   -0.298171
 O    4.145508    0.187993    0.673893
 C    2.885482   -0.032643    0.290132
 C    2.415485    0.088458   -1.023309
 C    1.080425   -0.174435   -1.299654
 C    1.996386   -0.409587    1.312005
 C    0.670466   -0.659833    1.027481
 C    0.193670   -0.552959   -0.291012
 C   -1.228801   -0.845904   -0.654018
 N   -1.544309   -2.324375   -0.431055
 C   -2.316667   -0.086039    0.110899
 C   -2.208328    1.427060   -0.143544
 O   -1.920470    1.834099   -1.236999
 O   -2.488740    2.133200    0.935233
 F   -3.523650   -0.518660   -0.362898
 F   -2.279407   -0.409790    1.423043
 H    5.222169   -0.188805   -1.068027
 H    4.826842    1.535399   -0.760397
 H    6.041347    0.699957    0.243578
 H    3.074122    0.388877   -1.828874
 H    0.725535   -0.061773   -2.320877
 H    2.378025   -0.487146    2.323926
 H    0.005193   -0.919859    1.845388
 H   -1.403114   -0.658309   -1.714976
 H   -2.508212   -2.548159   -0.705312
 H   -0.894331   -2.905794   -0.968491
 H   -1.432324   -2.564602    0.560115
 H   -2.443107    3.078694    0.708152
