16 
2rkd_ligand_xtb.xyz
 C   -0.069479   -0.690875   -0.206653
 C   -1.101027    0.408585   -0.013204
 P    1.577540    0.120476   -0.088647
 C   -2.517957   -0.137211   -0.001906
 O   -3.480532    0.798198    0.016820
 O   -2.785422   -1.302895    0.007172
 O    1.814453    0.364562    1.486038
 O    2.665557   -0.985294   -0.509359
 O    1.724834    1.354949   -0.834612
 H   -0.173306   -1.134427   -1.196117
 H   -0.206807   -1.476422    0.536950
 H   -0.983999    1.149411   -0.808205
 H   -0.916636    0.921247    0.937110
 H   -3.130625    1.699006   -0.002916
 H    1.832997   -0.409317    2.048714
 H    2.534942   -1.875780   -0.183731
