94 
2rkg_ligand_dft.xyz
 C    0.623429   -3.271147    2.073771
 C    1.083014   -1.038084    3.039411
 N    2.073622   -0.799751    1.986511
 C    2.107048   -1.628597    0.888968
 N    1.531704   -2.858280    1.020021
 C   -4.578465    2.587025    0.680587
 C   -4.028237    3.464853    1.617795
 C   -4.384568    4.810465    1.628227
 C   -5.298103    5.298431    0.697716
 C   -5.850308    4.433100   -0.243510
 C   -5.491645    3.088746   -0.250402
 O    2.662916   -1.319084   -0.176333
 C    2.609967    0.566153    1.922208
 C    1.635931    1.496154    1.188856
 N    1.476064    1.249940   -0.118439
 C    0.646719    2.052234   -0.999461
 C    4.068841    0.699332    1.442164
 C    4.497036    2.165483    1.552448
 C    4.982848   -0.213180    2.259112
 O    1.020060    2.377685    1.799187
 C    4.344309    4.540794   -1.662219
 C    5.416804    3.653684   -1.703715
 C    5.184671    2.306685   -1.965155
 C    3.887897    1.852037   -2.186382
 C    2.804998    2.732786   -2.151235
 C    3.049620    4.081355   -1.884312
 C    1.393757    2.230415   -2.335782
 C   -0.735899    1.423329   -1.230564
 C   -1.752667    1.596119   -0.094641
 C   -3.064842    0.872744   -0.414294
 N   -2.783980   -0.548360   -0.509211
 C   -3.544514   -1.394777   -1.228870
 C   -3.089206   -2.850431   -1.209238
 O   -1.928247   -3.011032   -0.405397
 C   -1.052493   -4.000850   -0.801086
 O   -1.312145    1.074845    1.146406
 C   -4.163804    1.138442    0.633388
 O   -4.524925   -1.072524   -1.885198
 C   -1.148340   -5.252233   -0.183381
 C   -0.203667   -6.222187   -0.516803
 C    0.795564   -5.952492   -1.446568
 C    0.863669   -4.702260   -2.051566
 C   -0.056646   -3.698384   -1.736234
 C    0.080964   -2.316362   -2.320818
 C   -2.232715   -5.514640    0.827796
 C    0.979618   -2.523767    3.346962
 H   -0.416659   -3.058323    1.788941
 H    0.715904   -4.353026    2.207391
 H    0.105235   -0.634068    2.738393
 H    1.404727   -0.491574    3.929758
 H    1.521167   -3.379715    0.154393
 H   -3.306729    3.085223    2.337541
 H   -3.948727    5.478860    2.365375
 H   -5.578326    6.347763    0.706366
 H   -6.565435    4.804847   -0.971877
 H   -5.925158    2.412725   -0.984336
 H    2.589468    0.928388    2.954696
 H    1.968646    0.439821   -0.493552
 H    0.538575    3.029180   -0.515409
 H    4.130749    0.402878    0.393575
 H    4.415569    2.528183    2.584834
 H    5.537789    2.277752    1.233405
 H    3.890340    2.815012    0.912695
 H    4.914882    0.018406    3.330026
 H    4.725092   -1.266922    2.120959
 H    6.025577   -0.077010    1.953674
 H    4.515828    5.593705   -1.458760
 H    6.427541    4.011280   -1.531130
 H    6.012727    1.604414   -1.993797
 H    3.713966    0.795560   -2.378404
 H    2.216690    4.780108   -1.850370
 H    1.405796    1.265814   -2.860857
 H    0.817669    2.921608   -2.961232
 H   -0.595137    0.357860   -1.443622
 H   -1.177147    1.870597   -2.131307
 H   -1.976521    2.667431    0.009548
 H   -3.430909    1.200437   -1.393516
 H   -2.042016   -0.928401    0.063062
 H   -3.912016   -3.466908   -0.828242
 H   -2.892302   -3.150196   -2.244586
 H   -0.624509    1.670143    1.501154
 H   -3.792177    0.810395    1.608456
 H   -5.021063    0.511902    0.366371
 H   -0.255371   -7.198134   -0.041546
 H    1.524134   -6.716645   -1.698829
 H    1.648718   -4.488253   -2.771869
 H   -0.879302   -1.804922   -2.416789
 H    0.727113   -1.703845   -1.679152
 H    0.548795   -2.360869   -3.308393
 H   -2.075062   -6.473798    1.328449
 H   -3.220531   -5.545684    0.354350
 H   -2.265765   -4.726583    1.586435
 H    1.937857   -2.882942    3.737629
 H    0.213647   -2.692273    4.109573
