75 
2rkn_ligand_xtb.xyz
 O   -3.321126    2.572073   -0.161997
 C   -3.047213    1.847663    0.758128
 O   -3.924030    0.997369    1.317011
 C   -5.224936    0.961182    0.752683
 C   -5.254478    0.207930   -0.582600
 O   -4.885985   -1.128684   -0.325224
 C   -6.656145    0.274424   -1.202050
 O   -7.610250   -0.326299   -0.357919
 P   -7.603012   -1.952719   -0.298284
 O   -6.953318   -2.303851    1.118026
 O   -9.123415   -2.296596   -0.070053
 O   -7.017994   -2.583303   -1.478235
 C   -9.820916   -1.761929    1.047454
 C   -1.709257    1.762948    1.448128
 C   -0.720341    2.787369    0.900157
 C    0.634997    2.684729    1.593455
 C    1.625698    3.756072    1.136013
 C    1.974999    3.718431   -0.354079
 C    2.517500    2.381835   -0.863446
 C    3.820425    1.960849   -0.187265
 C    4.372334    0.633105   -0.710905
 C    4.931406    0.727179   -2.128791
 C    5.436734   -0.612170   -2.669245
 C    6.589132   -1.236313   -1.879859
 C    7.833478   -0.351748   -1.834074
 C    9.055913   -1.063907   -1.254363
 C    8.911794   -1.399043    0.228772
 C   10.197708   -1.984861    0.806709
 C   10.057669   -2.334102    2.286443
 C   11.348668   -2.905933    2.859065
 H   -5.581903    1.983377    0.591187
 H   -5.849620    0.446083    1.483027
 H   -4.541165    0.678382   -1.274657
 H   -5.003984   -1.652286   -1.131051
 H   -6.645550   -0.248908   -2.164648
 H   -6.966604    1.310853   -1.347517
 H   -5.998552   -2.192332    1.059814
 H   -9.358732   -2.091865    1.977653
 H   -9.823766   -0.672516    1.008815
 H  -10.839017   -2.142886    0.979227
 H   -1.330521    0.747268    1.310652
 H   -1.870077    1.903856    2.518987
 H   -0.610163    2.624994   -0.171918
 H   -1.130293    3.789373    1.038772
 H    0.489513    2.792953    2.671644
 H    1.057813    1.693626    1.421689
 H    2.540806    3.655890    1.722839
 H    1.205353    4.739903    1.359068
 H    1.087415    3.976583   -0.934771
 H    2.721777    4.493696   -0.544115
 H    1.769416    1.599860   -0.722510
 H    2.684749    2.480314   -1.937738
 H    3.647354    1.857560    0.885642
 H    4.569924    2.743487   -0.328039
 H    5.166464    0.306009   -0.037270
 H    3.582335   -0.121679   -0.683634
 H    4.149283    1.082994   -2.802294
 H    5.738624    1.461242   -2.150544
 H    5.760303   -0.465544   -3.703157
 H    4.603840   -1.320151   -2.683725
 H    6.850825   -2.185442   -2.355137
 H    6.255806   -1.460562   -0.866517
 H    8.067980   -0.025489   -2.850689
 H    7.631443    0.539089   -1.236848
 H    9.241327   -1.982584   -1.816184
 H    9.928840   -0.418493   -1.383110
 H    8.101623   -2.116955    0.367839
 H    8.650988   -0.491509    0.779152
 H   10.466858   -2.884805    0.248382
 H   11.010761   -1.265196    0.682813
 H    9.252063   -3.061674    2.410518
 H    9.780134   -1.436210    2.843746
 H   11.227482   -3.149299    3.912152
 H   12.159132   -2.186370    2.764078
 H   11.632841   -3.811768    2.327767
