78 
2rku_ligand_dft.xyz
 N   -1.427199   -1.614221   -0.240568
 N   -5.084208    0.261301   -0.188854
 C   -2.559738   -2.324676   -0.417499
 C   -6.203691   -0.563407    0.270994
 C   -6.223200   -1.912262   -0.437454
 C    0.844742    0.245267    0.129999
 C   -5.134642    1.719388   -0.006654
 C   -7.473183   -1.403674    2.338093
 C   -6.294654    3.796970   -0.122179
 C   -4.486628    2.499420   -1.173796
 C    3.068157    1.208912    0.373604
 C    1.424625   -1.015789   -0.036971
 C    5.107631   -0.167068    0.281938
 C    7.047196   -1.761613    0.669501
 C    8.050131   -0.678903   -1.445410
 C    8.940627   -0.020886    0.773955
 O    5.822878    0.837438    0.088941
 N    5.637756   -1.385411    0.565399
 C    7.895727   -0.813684    1.564842
 N    8.330265    0.455297   -0.501540
 C    9.078307    1.555208   -1.150712
 C    7.734568   -1.974072   -0.690702
 C    3.639065   -0.068463    0.228844
 C    1.699664    1.365668    0.333402
 O    1.046169    2.546506    0.474831
 C    1.808320    3.718869    0.676870
 C    2.803864   -1.164805    0.014508
 N   -0.500978    0.516757    0.104999
 C   -1.597367   -0.315533   -0.067945
 N   -2.759352    0.351589   -0.026868
 C   -3.870427   -0.354407   -0.198286
 C   -5.243215    3.849994   -1.247890
 C   -6.551198    2.301048    0.065985
 C   -6.200164   -0.753020    1.802407
 O   -7.270520   -2.473657   -0.697908
 N   -4.991376   -2.470408   -0.688752
 C   -4.920394   -3.805969   -1.255463
 C   -3.813303   -1.761389   -0.417338
 H   -2.424775   -3.389511   -0.581774
 H   -7.133456   -0.082591   -0.029498
 H   -4.607737    1.971884    0.924790
 H   -8.352946   -0.798175    2.094790
 H   -7.630220   -2.396166    1.907534
 H   -7.421350   -1.504034    3.426080
 H   -5.886983    4.219851    0.803874
 H   -7.206018    4.351520   -0.360272
 H   -4.617060    1.923636   -2.096067
 H   -3.414554    2.619709   -1.016846
 H    3.726562    2.055776    0.521974
 H    0.775381   -1.861535   -0.214196
 H    7.021074   -2.739212    1.154457
 H    7.209973   -0.352693   -2.062732
 H    8.924858   -0.807503   -2.088055
 H    9.824162   -0.614982    0.520906
 H    9.270652    0.856321    1.334091
 H    4.977417   -2.099371    0.831429
 H    7.236053   -0.125545    2.096971
 H    8.425132   -1.398195    2.321483
 H    7.357942    0.788995   -0.230612
 H    8.571579    1.825339   -2.078410
 H   10.097456    1.225926   -1.365049
 H    9.097136    2.415850   -0.480833
 H    8.665222   -2.520975   -0.504589
 H    7.116658   -2.610973   -1.328340
 H    1.088798    4.533434    0.754636
 H    2.480848    3.904329   -0.169166
 H    2.390726    3.655856    1.603946
 H    3.208119   -2.157032   -0.167988
 H   -0.751826    1.487431    0.234076
 H   -5.736596    3.955998   -2.219009
 H   -4.572402    4.706548   -1.138376
 H   -7.077580    2.067725    0.996815
 H   -7.152887    1.928310   -0.772895
 H   -6.069653    0.237320    2.254992
 H   -5.318370   -1.342340    2.086035
 H   -4.523117   -4.520733   -0.526266
 H   -5.933145   -4.100289   -1.526485
 H   -4.282557   -3.803277   -2.144907
