121 
2rly_ligand_xtb.xyz
 N    1.209459   -0.537036    1.900207
 C    0.975999   -2.004650    1.961867
 C    0.342770   -2.629351    0.702823
 O    0.538408   -3.799268    0.481920
 C    0.074406   -2.229150    3.189919
 C    0.192538   -0.927730    3.979903
 C    0.298814    0.107546    2.870242
 N   -0.376988   -1.787633   -0.063948
 C   -1.045071   -2.168039   -1.300172
 C   -1.897189   -3.434968   -1.103114
 O   -1.488675   -4.519702   -1.471435
 C   -0.060403   -2.394885   -2.477015
 O    0.925928   -3.349549   -2.170571
 C    0.631360   -1.098873   -2.888333
 N   -3.104768   -3.274826   -0.534599
 C   -3.808741   -2.053900   -0.199984
 C   -3.419165   -1.560033    1.199739
 O   -2.822918   -2.279667    1.977941
 C   -5.306058   -2.456527   -0.164872
 C   -5.341515   -3.881053   -0.721851
 C   -3.974459   -4.422448   -0.328899
 N   -3.885660   -0.346900    1.569410
 C   -4.238000    0.748871    0.685913
 C   -3.030488    1.061149   -0.208517
 O   -1.932202    0.574716    0.080172
 C   -4.520426    1.918781    1.645743
 C   -3.608284    1.620445    2.832972
 C   -3.710755    0.106586    2.945380
 N   -3.220425    1.846087   -1.264061
 C   -2.180351    2.082356   -2.272023
 C   -1.080705    3.078632   -1.813369
 O   -0.902170    4.153288   -2.339138
 C   -2.941316    2.624314   -3.477864
 C   -4.120201    3.344995   -2.832824
 C   -4.495844    2.411852   -1.686676
 N   -0.343684    2.580973   -0.812822
 C    0.911545    3.119438   -0.347784
 C    1.901320    1.957826   -0.401530
 O    1.476339    0.794350   -0.358563
 C    0.771748    3.628992    1.096534
 C   -0.226962    4.785227    1.234280
 C    0.230411    6.024639    0.470585
 C   -0.418464    5.110208    2.714795
 N    3.196130    2.209234   -0.507845
 C    4.141990    1.106423   -0.632294
 C    4.141873    0.239628    0.630737
 O    3.607355    0.611741    1.678275
 C    5.496632    1.794350   -0.858571
 C    5.297498    3.175115   -0.236223
 C    3.851405    3.500855   -0.593258
 N    4.772057   -0.928334    0.535196
 C    5.178992   -1.581989   -0.696809
 C    3.947538   -1.962347   -1.547120
 O    3.954786   -1.882939   -2.745851
 C    5.886740   -2.859559   -0.224364
 C    5.178740   -3.181149    1.089085
 C    4.958082   -1.799190    1.690503
 O    2.942530   -2.366530   -0.806998
 H    2.201046   -0.282325    2.125774
 H    1.114373   -0.144985    0.929368
 H    1.932018   -2.519198    2.083891
 H    0.388324   -3.097849    3.761797
 H   -0.956765   -2.391317    2.874196
 H   -0.660998   -0.759768    4.631074
 H    1.097180   -0.919909    4.589034
 H    0.710715    1.059563    3.202436
 H   -0.672190    0.266083    2.396344
 H   -0.660161   -0.883576    0.283100
 H   -1.683599   -1.326212   -1.576683
 H   -0.662582   -2.769641   -3.320225
 H    0.472826   -4.121909   -1.778776
 H   -0.053767   -0.456582   -3.435503
 H    1.002103   -0.566563   -2.016058
 H    1.471454   -1.341078   -3.534146
 H   -3.624461   -1.284228   -0.955246
 H   -5.922569   -1.772295   -0.745556
 H   -5.663942   -2.451680    0.865657
 H   -5.437463   -3.864281   -1.807942
 H   -6.157736   -4.465944   -0.306845
 H   -3.946597   -4.711563    0.725881
 H   -3.626191   -5.252772   -0.941002
 H   -5.109660    0.503028    0.072210
 H   -5.565084    1.893679    1.955321
 H   -4.307273    2.888627    1.201474
 H   -3.926039    2.127305    3.740121
 H   -2.585804    1.922477    2.600811
 H   -4.590801   -0.186183    3.527342
 H   -2.835201   -0.371225    3.384833
 H   -1.668360    1.135231   -2.481340
 H   -3.282646    1.811293   -4.118512
 H   -2.314856    3.301062   -4.054261
 H   -4.946711    3.506060   -3.519444
 H   -3.789338    4.307664   -2.444175
 H   -4.992001    2.933773   -0.869192
 H   -5.154478    1.610532   -2.043045
 H   -0.566966    1.650067   -0.465685
 H    1.211797    3.923910   -1.022446
 H    1.745251    3.942309    1.475846
 H    0.429209    2.793385    1.711417
 H   -1.187794    4.460023    0.820260
 H    1.239565    6.307300    0.763332
 H    0.202911    5.854972   -0.602296
 H   -0.430782    6.858898    0.689005
 H    0.518757    5.443863    3.154161
 H   -0.766106    4.238987    3.267306
 H   -1.150682    5.903734    2.835872
 H    3.842882    0.481103   -1.479545
 H    5.693024    1.883207   -1.927007
 H    6.318356    1.253460   -0.394115
 H    5.406437    3.115426    0.847115
 H    5.996493    3.912542   -0.621659
 H    3.777783    3.886208   -1.616632
 H    3.403963    4.221005    0.089459
 H    5.835829   -0.955816   -1.305191
 H    5.805529   -3.659280   -0.957006
 H    6.942809   -2.651698   -0.050468
 H    4.222983   -3.664936    0.889030
 H    5.772829   -3.821412    1.735709
 H    5.838279   -1.459829    2.246808
 H    4.095370   -1.744810    2.355722
 H    2.175597   -2.734708   -1.363823
