37 
2sim_ligand_dft.xyz
 C   -3.895037   -0.103462    0.119192
 C   -2.467459    0.314715    0.118380
 C   -2.096409    1.548854    0.453063
 C   -0.666975    2.000212    0.398228
 C    0.239664    0.927908   -0.255287
 C   -0.232259   -0.489382    0.096668
 C    0.442235   -1.635453   -0.675768
 C    1.913394   -1.980529   -0.399803
 C    2.225805   -2.323418    1.058403
 C    2.428479    2.069071   -0.293471
 C    3.868989    1.999784    0.164457
 N    1.625515    1.076555    0.155311
 O   -4.816559    0.617205    0.419299
 O   -4.055987   -1.386599   -0.252330
 O   -0.647816    3.213358   -0.309318
 O   -1.602243   -0.661192   -0.268359
 O   -0.258539   -2.837838   -0.404680
 O    2.251867   -3.091263   -1.201052
 O    2.224521   -1.130627    1.840601
 O    2.032452    2.964134   -1.038000
 H   -2.852713    2.270879    0.736056
 H   -0.298221    2.141804    1.430580
 H    0.173389    1.065893   -1.341542
 H   -0.145632   -0.656362    1.178793
 H    0.368147   -1.391848   -1.747073
 H    2.552821   -1.153279   -0.718647
 H    1.479827   -3.036313    1.430658
 H    3.213973   -2.796710    1.079029
 H    4.507552    1.907231   -0.718476
 H    4.065990    1.161648    0.838146
 H    4.129405    2.938314    0.660340
 H    1.971824    0.442372    0.869945
 H   -5.012506   -1.549104   -0.227280
 H    0.262566    3.346568   -0.637769
 H   -1.200295   -2.646920   -0.523537
 H    1.489260   -3.687717   -1.159745
 H    2.331861   -1.359563    2.769690
