70 
2srt_ligand_dft.xyz
 C   -5.082931   -0.187011    0.003964
 C   -3.832069   -0.150277    0.890535
 C   -4.024108    0.893492    1.977637
 O   -4.869516    0.468794    2.912716
 O   -3.513280    1.995964    2.014200
 N   -2.673019    0.178421    0.076508
 C   -1.355078   -0.014521    0.686666
 C   -1.002658   -1.429439    1.208473
 C   -0.906191   -2.541136    0.150872
 C   -2.215593   -2.893140   -0.522782
 C   -2.436769   -2.596520   -1.870292
 C   -3.645407   -2.922890   -2.483238
 C   -4.651706   -3.552318   -1.755581
 C   -4.442178   -3.852259   -0.410814
 C   -3.233328   -3.527012    0.197032
 C   -0.308480    0.407468   -0.347898
 O   -0.472829    0.233778   -1.550809
 N    0.797764    0.994391    0.177670
 C    2.060580    1.086048   -0.533725
 C    2.562190    2.542098   -0.660040
 C    2.043606    3.333614   -1.866990
 C    0.526667    3.412519   -2.031238
 N   -0.118860    3.984440   -0.849033
 C   -1.215040    3.477981   -0.269090
 N   -2.089274    2.749386   -0.959330
 N   -1.468459    3.735590    1.018831
 C    3.070102    0.272831    0.306716
 O    2.863887    0.112975    1.501998
 N    4.150135   -0.167528   -0.378370
 C    5.286830   -0.870284    0.101564
 C    5.508603   -1.123351    1.455793
 C    6.659099   -1.809955    1.834005
 C    7.582652   -2.242806    0.888815
 C    7.351988   -1.985591   -0.459680
 C    6.209439   -1.302426   -0.853874
 H   -5.232897    0.777215   -0.491938
 H   -5.968121   -0.424550    0.597468
 H   -4.963334   -0.965312   -0.755108
 H   -3.746422   -1.126575    1.385516
 H   -4.998619    1.186892    3.554345
 H   -2.709088   -0.361939   -0.785413
 H   -2.561838    1.947960   -0.491766
 H   -1.294553    0.674795    1.537929
 H   -0.036112   -1.352115    1.722170
 H   -1.728574   -1.710678    1.979882
 H   -0.512219   -3.432841    0.651667
 H   -0.167830   -2.264885   -0.609026
 H   -1.655020   -2.100869   -2.440160
 H   -3.795951   -2.694767   -3.534138
 H   -5.590265   -3.814535   -2.233626
 H   -5.217096   -4.352960    0.161738
 H   -3.071095   -3.783987    1.242026
 H    0.946543    0.895875    1.179226
 H    1.920249    0.635975   -1.522716
 H    2.322524    3.056119    0.278409
 H    3.655963    2.535887   -0.724779
 H    2.434407    2.889907   -2.790265
 H    2.463417    4.346463   -1.821362
 H    0.283531    4.009227   -2.917170
 H    0.131961    2.402911   -2.177835
 H    0.368655    4.721185   -0.359121
 H   -1.919129    2.610293   -1.944183
 H   -2.297719    3.317741    1.438763
 H   -0.719162    4.011777    1.633515
 H    4.146882   -0.001825   -1.375281
 H    4.792877   -0.793158    2.195082
 H    6.830015   -2.004796    2.888076
 H    8.475298   -2.775965    1.198616
 H    8.062286   -2.316677   -1.210354
 H    6.035020   -1.107472   -1.909957
