28 
2tmn_ligand_dft.xyz
 P   -2.248326   -0.394559    0.057633
 O   -3.199571    0.245109   -1.066673
 O   -2.858190   -1.896253    0.081039
 O   -2.201441    0.188844    1.419680
 N   -0.793516   -0.359763   -0.703465
 C    0.443387    0.057578   -0.030277
 C    0.572485    1.592507   -0.116832
 O    1.242030    2.141413   -0.976655
 C    1.641477   -0.654199   -0.648680
 C    2.989114   -0.363314    0.028332
 C    2.974835   -0.687592    1.525289
 C    4.096891   -1.145773   -0.681311
 N   -0.132491    2.259334    0.835193
 H   -4.111802   -0.064036   -0.982365
 H   -2.751075   -2.278121    0.962701
 H   -0.785840   -0.307347   -1.713808
 H    0.338496   -0.227917    1.019451
 H    1.710534   -0.360871   -1.703395
 H    1.439067   -1.733071   -0.616860
 H    3.196004    0.705698   -0.095054
 H    2.290520   -0.039539    2.083585
 H    3.971645   -0.552663    1.958845
 H    2.675035   -1.729567    1.698175
 H    4.129150   -0.909290   -1.750490
 H    3.937611   -2.226936   -0.579041
 H    5.077949   -0.911679   -0.254274
 H   -0.859580    1.770438    1.350480
 H   -0.222524    3.258149    0.717212
