30 
2toh_ligand_xtb.xyz
 N    2.771153    1.117125    0.040805
 N    4.803456    0.101018   -0.198893
 C    3.458884    0.013807   -0.063866
 N    2.893282   -1.213854   -0.078393
 C    1.489836   -1.444880   -0.048158
 O    1.087754   -2.588069   -0.107930
 C    0.755602   -0.227299    0.063158
 C    1.423963    0.995415    0.120122
 N    0.716130    2.134385    0.211436
 C   -0.700690    2.144558    0.510679
 C   -1.302121    0.782622    0.212399
 N   -0.624361   -0.270256    0.022251
 C   -2.807916    0.762052    0.061366
 O   -3.142324    1.386773   -1.162616
 C   -3.397998   -0.666689    0.078313
 O   -2.927073   -1.374773   -1.040301
 C   -3.129821   -1.397220    1.389900
 H    5.211017    1.008110   -0.055642
 H    5.379809   -0.708762   -0.053845
 H    3.462584   -2.044946   -0.180919
 H    1.228007    3.001977    0.214025
 H   -0.879203    2.395218    1.571240
 H   -1.206203    2.898453   -0.103972
 H   -3.259752    1.371527    0.853392
 H   -3.079250    0.693206   -1.837841
 H   -4.480564   -0.569069   -0.076972
 H   -1.983676   -1.548918   -0.881775
 H   -2.061898   -1.554818    1.514113
 H   -3.509884   -0.821545    2.229694
 H   -3.623894   -2.365005    1.371357
