46 
2uue_ligand_dft.xyz
 C   -5.244351    0.072263    1.078196
 C   -6.679383    0.523964    0.845475
 O   -6.724439    1.778993    0.201728
 C   -6.050600    1.724987   -1.036860
 C   -4.592381    1.316950   -0.863188
 N   -4.530904    0.026471   -0.197350
 C   -3.273925   -0.624611   -0.169043
 C   -3.213750   -1.977678    0.191902
 C   -2.007733   -2.653668    0.229687
 C   -2.076329    0.004655   -0.515003
 C   -0.861834   -0.677554   -0.508469
 C   -0.810090   -2.015455   -0.119572
 N    0.361004   -2.790885   -0.097637
 C    1.678860   -2.431974   -0.050332
 N    2.016655   -1.143267   -0.034356
 N    2.525928   -3.481391   -0.019213
 C    3.811926   -3.163823    0.043882
 C    4.289429   -1.859046    0.071963
 C    3.326560   -0.845798    0.023680
 C    3.628866    0.577620    0.053384
 S    2.293001    1.694910    0.274881
 C    4.799686    1.283439   -0.073383
 C    6.171693    0.726022   -0.314138
 N    4.688281    2.649695    0.022196
 C    3.443888    2.998966    0.208942
 N    3.049846    4.306258    0.285518
 H   -5.245820   -0.919008    1.538189
 H   -4.751364    0.769293    1.779445
 H   -7.203252    0.641278    1.797769
 H   -7.204662   -0.232370    0.239640
 H   -6.117318    2.725102   -1.473103
 H   -6.549066    1.008649   -1.709744
 H   -4.067671    2.104845   -0.291504
 H   -4.119887    1.236215   -1.847517
 H   -4.129830   -2.510545    0.428522
 H   -1.993359   -3.701124    0.522316
 H   -2.068557    1.051125   -0.800008
 H    0.046326   -0.163278   -0.788791
 H    0.237949   -3.791577   -0.043571
 H    4.506525   -4.001128    0.080297
 H    5.347754   -1.660344    0.152423
 H    6.572792    0.244305    0.585314
 H    6.171369   -0.012113   -1.122124
 H    6.840605    1.544634   -0.585662
 H    2.205445    4.517508    0.794873
 H    3.810651    4.954302    0.434483
