54 
2uuo_ligand_xtb.xyz
 O    4.137343   -1.407502    1.093076
 S    3.737690   -1.315542   -0.284089
 O    4.394043   -2.137841   -1.253493
 N    3.870208    0.283076   -0.819524
 C    3.508151    1.207776    0.234180
 C    4.681364    1.365500    1.191810
 O    5.829639    1.341554    0.838465
 O    4.299008    1.559677    2.447448
 C    3.084364    2.566232   -0.344048
 C    1.975386    2.389604   -1.377625
 C    0.687738    1.875723   -0.784134
 O    0.464909    1.687989    0.381466
 O   -0.225742    1.645929   -1.733925
 C    1.968795   -1.463685   -0.412312
 C    1.415296   -1.522594   -1.697619
 C    0.059247   -1.484533   -1.848576
 C   -0.788217   -1.367485   -0.719746
 C   -2.182832   -1.272130   -0.846735
 C   -2.998312   -1.147602    0.261279
 C   -2.416354   -1.105305    1.546489
 C   -1.060670   -1.196050    1.693243
 C   -0.210169   -1.327579    0.579647
 C    1.192483   -1.382020    0.704974
 O   -4.327722   -1.068191    0.021291
 C   -5.229788   -0.973877    1.108785
 C   -6.648305   -0.998543    0.545984
 C   -6.964714    0.202843   -0.345355
 C   -7.115983    1.511059    0.427984
 C   -7.536912    2.653663   -0.488358
 H    4.809983    0.459993   -1.157196
 H    2.666898    0.781509    0.783731
 H    5.069264    1.607093    3.037824
 H    3.945615    3.040582   -0.816675
 H    2.734208    3.193713    0.476244
 H    1.758376    3.337924   -1.873202
 H    2.290591    1.676836   -2.141394
 H   -1.038705    1.281517   -1.346369
 H    2.089206   -1.598696   -2.535427
 H   -0.388349   -1.525138   -2.830339
 H   -2.637957   -1.303305   -1.824962
 H   -3.038036   -0.997158    2.420816
 H   -0.619843   -1.155974    2.677501
 H    1.658334   -1.346375    1.677845
 H   -5.091101   -1.826211    1.787644
 H   -5.052526   -0.046589    1.668110
 H   -7.349047   -1.036616    1.382104
 H   -6.760361   -1.914028   -0.037095
 H   -7.898051    0.001783   -0.875792
 H   -6.174097    0.305328   -1.090160
 H   -7.865344    1.381846    1.212789
 H   -6.171774    1.772306    0.908989
 H   -7.633949    3.579759    0.073240
 H   -8.494001    2.434437   -0.956569
 H   -6.799041    2.803693   -1.273369
