54 
2uuo_ligand_dft.xyz
 O    3.961816   -1.491223    1.222648
 S    3.595623   -1.506245   -0.186984
 O    4.193336   -2.452042   -1.114044
 N    3.849643    0.004519   -0.883505
 C    3.741487    1.164220   -0.004188
 C    5.129527    1.580780    0.457293
 O    6.155780    1.215732   -0.064652
 O    5.085928    2.445053    1.478520
 C    3.050191    2.336654   -0.725091
 C    1.636438    1.998859   -1.185375
 C    0.647702    1.851869   -0.054743
 O    0.911828    1.869953    1.126808
 O   -0.600621    1.676556   -0.515266
 C    1.826332   -1.613499   -0.282753
 C    1.225333   -1.939655   -1.525377
 C   -0.135655   -1.920404   -1.637079
 C   -0.956837   -1.557928   -0.529412
 C   -2.358709   -1.467633   -0.639576
 C   -3.128249   -1.063689    0.432573
 C   -2.507927   -0.728972    1.665019
 C   -1.144170   -0.832639    1.794950
 C   -0.334636   -1.249032    0.712941
 C    1.078598   -1.295192    0.816918
 O   -4.463422   -1.006780    0.227904
 C   -5.315666   -0.596658    1.286926
 C   -6.747010   -0.657519    0.779934
 C   -7.015883    0.193935   -0.464571
 C   -6.731896    1.686146   -0.283954
 C   -7.147106    2.508965   -1.502593
 H    4.753264   -0.022343   -1.358002
 H    3.150905    0.909674    0.879322
 H    6.004968    2.674425    1.691628
 H    3.648977    2.614643   -1.600172
 H    3.031212    3.194913   -0.046762
 H    1.257597    2.767742   -1.867320
 H    1.630974    1.059494   -1.751430
 H   -1.161666    1.484600    0.255402
 H    1.857024   -2.205838   -2.366202
 H   -0.610682   -2.168925   -2.581623
 H   -2.852106   -1.703126   -1.577195
 H   -3.099763   -0.401941    2.511710
 H   -0.668698   -0.571617    2.735666
 H    1.562454   -1.051429    1.757312
 H   -5.191331   -1.264948    2.149653
 H   -5.054031    0.422574    1.603209
 H   -7.399660   -0.335091    1.601824
 H   -6.994491   -1.703932    0.568004
 H   -8.067881    0.060812   -0.748116
 H   -6.417357   -0.189852   -1.298900
 H   -7.258419    2.055338    0.607028
 H   -5.661023    1.839097   -0.098964
 H   -6.930758    3.572451   -1.359695
 H   -8.220963    2.407308   -1.696517
 H   -6.614346    2.174623   -2.399977
