36 
2uvm_ligand_dft.xyz
 O   -2.786630    2.559496    0.776229
 P   -1.292553    2.054147    0.667806
 O   -0.960483    1.145682    1.922827
 O   -0.329506    3.153891    0.427062
 O   -1.377933    1.032742   -0.599091
 C   -0.766848   -0.191132   -0.662608
 C    0.606401   -0.344828   -0.487667
 O    1.320319    0.698812    0.044234
 P    2.204879    1.808019   -0.798352
 O    1.193651    2.377388   -1.879666
 O    2.386665    2.874169    0.351164
 O    3.447722    1.249411   -1.351698
 C    1.206461   -1.592237   -0.688552
 O    2.553361   -1.710448   -0.636109
 P    3.479100   -1.710684    0.735962
 O    4.549406   -0.616140    0.341977
 O    2.510987   -1.088187    1.850720
 O    3.983941   -3.031550    1.105250
 C    0.420751   -2.685342   -1.039021
 C   -0.955231   -2.546046   -1.168211
 C   -1.540854   -1.305323   -0.975598
 O   -2.916338   -1.154320   -1.147444
 P   -3.893087   -0.966674    0.114279
 O   -4.253512   -2.396165    0.690079
 O   -5.226331   -0.523070   -0.631970
 O   -3.382425   -0.080263    1.188026
 H   -3.369127    1.799110    0.986524
 H   -1.649594    0.464130    2.054999
 H    0.463015    2.857682   -1.441631
 H    1.511391    3.177031    0.682485
 H    4.259506    0.023687   -0.352979
 H    2.251501   -0.171755    1.666505
 H    0.907278   -3.641215   -1.192355
 H   -1.579635   -3.393527   -1.426905
 H   -4.711577   -2.974207    0.063692
 H   -5.085101    0.144803   -1.318542
