44 
2uw7_ligand_dft.xyz
Cl    4.563053   -3.599392   -0.200369
 C    3.516609   -2.206659   -0.116466
 C    3.443367   -1.468830    1.054151
 C    2.616070   -0.347266    1.103976
 C    1.857475    0.054784    0.003633
 C    1.923990   -0.740174   -1.148691
 C    2.745931   -1.853927   -1.221674
 C    0.910727    1.267172    0.005985
 C    1.056885    2.152354    1.272493
 C    2.396398    2.866580    1.412477
 N    2.681282    3.659299    0.160125
 C    2.633185    2.802058   -1.081600
 C    1.252787    2.182583   -1.192690
 C   -0.534596    0.781118   -0.059926
 C   -1.442812    1.159749   -1.055481
 C   -2.758653    0.729427   -1.033690
 C   -3.263709   -0.107544   -0.010394
 C   -2.321036   -0.502550    0.974497
 C   -1.010056   -0.075305    0.945646
 C   -4.627320   -0.528393    0.028820
 C   -5.687499   -0.226297   -0.863440
 N   -6.819622   -0.796494   -0.480514
 N   -6.570288   -1.499800    0.675652
 C   -5.290147   -1.347298    0.978228
 H    4.016849   -1.767898    1.924703
 H    2.553112    0.180817    2.050360
 H    1.280867   -0.515240   -1.994518
 H    2.775620   -2.458772   -2.121265
 H    0.885468    1.568619    2.180390
 H    0.248857    2.893925    1.248644
 H    3.234316    2.175086    1.515836
 H    2.406184    3.572019    2.246874
 H    3.588373    4.125090    0.237875
 H    1.976358    4.397859    0.070040
 H    3.414396    2.045780   -0.967444
 H    2.873215    3.450175   -1.927328
 H    0.505312    2.982988   -1.264394
 H    1.204052    1.638442   -2.138353
 H   -1.140036    1.799553   -1.881384
 H   -3.427663    1.047827   -1.826903
 H   -2.643562   -1.165070    1.771411
 H   -0.329197   -0.430484    1.719219
 H   -5.660890    0.382738   -1.763221
 H   -4.878711   -1.824336    1.863750
