53 
2uwo_ligand_xtb.xyz
Cl    4.749547   -2.433074   -0.682165
 C    3.060357   -2.167889   -0.735865
 C    2.343994   -1.669780   -1.782774
 C    0.970611   -1.568781   -1.489623
 C    0.646155   -1.981059   -0.226329
 C   -0.661830   -1.965228    0.404252
 C   -0.699366   -1.762494    1.884152
 S   -3.403257   -1.827960    0.278444
 O   -4.341936   -2.095614   -0.767757
 O   -3.589462   -2.481532    1.541999
 N   -3.488004   -0.184600    0.592321
 C   -3.650405    0.693309   -0.546900
 C   -4.134124    2.077120   -0.110847
 C   -2.832461    2.828304    0.185128
 C   -2.279642    0.985849   -1.150166
 O   -1.618638    0.256553   -1.863202
 N   -1.876306    2.191785   -0.699917
 C   -0.470126    2.527536   -0.754286
 C   -0.240354    4.033871   -0.671710
 C    0.233939    1.798454    0.404495
 O   -0.413888    1.418104    1.368483
 N    1.561241    1.607713    0.323599
 C    2.282183    1.041253    1.451350
 C    3.372789    2.023059    1.887316
 O    4.245003    2.320467    0.820297
 C    3.548091    2.875348   -0.265682
 C    2.453939    1.921772   -0.769801
 S    2.062354   -2.515952    0.637137
 C   -1.759884   -2.091512   -0.343407
 H    2.784374   -1.394380   -2.723647
 H    0.241381   -1.162760   -2.165892
 H    0.097949   -2.329430    2.362329
 H   -0.538976   -0.705929    2.104274
 H   -1.659425   -2.071835    2.285558
 H   -2.771614    0.112469    1.240070
 H   -4.317597    0.169955   -1.232646
 H   -4.786000    2.015394    0.756477
 H   -4.670201    2.554286   -0.930787
 H   -2.911812    3.893420   -0.042459
 H   -2.521575    2.705266    1.227851
 H   -0.116500    2.125466   -1.710181
 H   -0.516715    4.406549    0.311851
 H    0.805480    4.269892   -0.847413
 H   -0.838791    4.541943   -1.424303
 H    2.743597    0.097596    1.146906
 H    1.576041    0.861663    2.261277
 H    3.989543    1.585266    2.672689
 H    2.907928    2.948505    2.261044
 H    3.093079    3.834364    0.030956
 H    4.288347    3.053759   -1.046994
 H    2.925526    0.988513   -1.101385
 H    1.926224    2.366242   -1.609046
 H   -1.748486   -2.244272   -1.405430
