108 
2uxx_ligand_dft.xyz
 O    6.637528   -3.135777    1.102022
 O    5.938479   -2.897615   -3.312195
 C    6.026424   -2.559557    0.218118
 N    5.948032   -3.104804   -1.038385
 C    5.706015   -2.403631   -2.231008
 N    5.241588   -1.138535   -2.025631
 C    4.564022   -0.739616   -0.793880
 C    5.340491   -1.195819    0.447307
 N    6.384053   -0.269560    0.843723
 C    6.554264    0.947991    0.169927
 C    7.720299    1.684786    0.351907
 C    7.898612    2.934867   -0.238057
 C    9.170596    3.708226   -0.002464
 C    6.885333    3.448729   -1.058427
 C    7.038867    4.793540   -1.721961
 C    5.726104    2.696817   -1.262072
 C    5.540199    1.458500   -0.654792
 N    4.352490    0.686323   -0.771665
 P   -2.035599   -0.043389    0.711153
 O   -2.200283   -1.460186    1.080756
 O   -2.327332    1.062816    1.789135
 O   -3.043443    0.383587   -0.509611
 C    4.409699   -1.217706    1.697710
 C    3.326076   -2.268848    1.746340
 C    3.591591   -3.619637    1.990027
 C    2.557655   -4.550898    1.984138
 C    1.246105   -4.149757    1.742242
 C    0.963908   -2.806270    1.513496
 C    2.001435   -1.877705    1.518265
 C    5.403971   -1.122348    2.858435
 C    6.614994   -0.337103    2.294348
 O    7.849837   -0.895191    2.633621
 C    3.255122    1.158473   -1.605045
 C    2.342369    2.099815   -0.801669
 O    2.090073    1.560291    0.476475
 C    0.984912    2.363732   -1.456221
 O    0.168265    3.116775   -0.578370
 C    0.178493    1.139721   -1.959790
 O   -1.083528    1.656371   -2.364090
 C    0.014904   -0.017678   -0.976867
 O   -0.599392    0.454677    0.232879
 P   -3.419206   -0.479590   -1.834509
 O   -3.599703    0.677326   -2.901161
 O   -2.486086   -1.573884   -2.151110
 O   -4.926817   -0.932893   -1.570471
 C   -5.238523   -2.336941   -1.652191
 C   -6.663003   -2.554626   -1.184677
 O   -6.778386   -2.255278    0.213775
 C   -7.737289   -1.714807   -1.878064
 O   -8.949180   -2.424665   -1.828291
 C   -7.820014   -0.476322   -0.983311
 O   -9.099090    0.084634   -1.057830
 C   -7.491205   -1.074919    0.404529
 N   -6.670037   -0.148776    1.186052
 C   -5.424739   -0.350114    1.696500
 N   -4.921345    0.728781    2.254920
 C   -5.890472    1.697532    2.086355
 C   -6.984616    1.165675    1.420136
 N   -8.094660    1.821845    1.049557
 C   -8.045425    3.103164    1.413548
 N   -7.065456    3.748195    2.051453
 C   -5.960240    3.069497    2.395485
 N   -4.969620    3.727359    3.029722
 H    6.427048   -3.988651   -1.164943
 H    4.966549   -0.668874   -2.877141
 H    3.577560   -1.219063   -0.736321
 H    8.498846    1.255957    0.977070
 H    9.852677    3.154640    0.648124
 H    8.970414    4.678328    0.468506
 H    9.695470    3.912459   -0.943420
 H    7.896160    4.808612   -2.405895
 H    6.148205    5.057335   -2.299911
 H    7.205601    5.587937   -0.984591
 H    4.949296    3.116643   -1.893763
 H   -3.261606    0.939135    2.153637
 H    3.904890   -0.247422    1.634144
 H    4.607867   -3.947973    2.182828
 H    2.779257   -5.597221    2.173619
 H    0.443607   -4.881033    1.740674
 H   -0.058772   -2.478387    1.344734
 H    1.773879   -0.825124    1.358703
 H    5.732267   -2.107554    3.192184
 H    4.964073   -0.610873    3.717971
 H    6.649687    0.685836    2.679306
 H    7.838156   -1.799409    2.280787
 H    2.688114    0.275738   -1.909812
 H    3.600011    1.646984   -2.527154
 H    2.837261    3.075977   -0.691398
 H    2.956793    1.324400    0.837550
 H    1.144953    3.004571   -2.330281
 H    0.161418    2.634585    0.265228
 H    0.652233    0.730914   -2.859653
 H   -1.287380    2.336870   -1.696036
 H   -0.585073   -0.806789   -1.436953
 H    0.982631   -0.432536   -0.692397
 H   -2.719261    1.104900   -3.010483
 H   -5.126022   -2.676735   -2.686209
 H   -4.550622   -2.901501   -1.018094
 H   -6.896092   -3.616182   -1.311373
 H   -7.459374   -1.458860   -2.909505
 H   -9.646610   -1.755522   -1.748562
 H   -7.038946    0.239202   -1.262350
 H   -9.109072    0.825892   -0.421588
 H   -8.413052   -1.269362    0.963597
 H   -4.915482   -1.299102    1.608447
 H   -8.910416    3.706396    1.151352
 H   -5.041262    4.730117    3.103497
 H   -4.068260    3.295176    3.153787
