91 
2uy0_ligand_dft.xyz
 C   -0.199524    1.625893    3.020077
 C   -0.471304    0.132842    3.268782
 N    1.663561    2.559701    1.662698
 N    0.946716    2.250404    0.519500
 N   -2.182449    2.976730   -0.854350
 O    2.054457    1.865236    3.786787
 C    1.267715    1.998943    2.862836
 C    0.072191    3.129539   -0.052996
 C   -5.458912    2.122065    0.140492
 O   -4.304178    2.894607   -0.198740
 C   -3.225598    2.179924   -0.536074
 O   -3.219168    0.953013   -0.560388
 C   -0.851872    2.443219   -1.073448
 C   -0.380479    2.549007   -2.550008
 C   -1.339367    1.710875   -3.407805
 C    1.032263    1.959217   -2.663363
 C   -0.383275    4.005407   -3.028268
 O    0.001716    4.316594    0.206243
 C    3.058370    2.947370    1.452848
 C    3.871353    1.833909    0.835608
 C    4.280095    0.741959    1.607822
 C    4.931622   -0.337422    1.022884
 C    5.181624   -0.319738   -0.345329
Br    5.982674   -1.822775   -1.168331
 C    4.815574    0.767534   -1.127299
 C    4.160278    1.839127   -0.527780
 C   -0.276674   -0.804757    2.050344
 O   -0.479197   -0.038790    0.868039
 C    1.125965   -1.444591    2.026802
 C    1.448223   -2.099773    0.703385
 C    1.161908   -3.447288    0.468745
 C    1.429466   -4.024179   -0.770106
 C    1.990795   -3.265029   -1.793152
 C    2.283386   -1.923307   -1.569721
 C    2.008244   -1.348069   -0.333736
 C   -1.367643   -1.904679    2.058548
 O   -1.175558   -3.031968    2.475420
 N   -2.557069   -1.492552    1.506460
 C   -3.268945   -2.406669    0.637315
 C   -4.672127   -1.955724    0.315372
 C   -5.620387   -1.419656    1.175976
 C   -6.868847   -1.070430    0.664024
 C   -7.151634   -1.252110   -0.690649
 C   -6.194608   -1.792412   -1.549137
 C   -4.952737   -2.147943   -1.036128
 C   -3.770923   -2.772371   -1.741811
 C   -2.592033   -2.532232   -0.777614
 O   -1.855422   -1.369268   -1.127503
 H   -0.513193    2.161280    3.922069
 H   -0.812988    1.985908    2.194696
 H   -1.508144    0.058467    3.613882
 H    0.160914   -0.220927    4.089250
 H    0.722051    1.261672    0.420305
 H   -2.256891    3.964745   -0.651251
 H   -6.260435    2.848068    0.272202
 H   -5.288894    1.568172    1.066491
 H   -5.701430    1.411910   -0.652370
 H   -0.912587    1.382063   -0.833515
 H   -1.037633    1.752973   -4.460207
 H   -2.365162    2.086913   -3.338009
 H   -1.335961    0.660184   -3.094369
 H    1.074333    0.937291   -2.265799
 H    1.766648    2.560928   -2.119837
 H    1.337777    1.922575   -3.714593
 H   -0.029164    4.061498   -4.063493
 H    0.263557    4.634634   -2.409128
 H   -1.393675    4.428114   -3.001296
 H    3.048940    3.830469    0.807983
 H    3.449176    3.231532    2.430468
 H    4.062677    0.733809    2.672160
 H    5.225060   -1.194842    1.617986
 H    5.024581    0.770885   -2.191446
 H    3.864409    2.689065   -1.136659
 H   -0.674698   -0.647486    0.120911
 H    1.857141   -0.654241    2.233805
 H    1.181484   -2.168933    2.843952
 H    0.717818   -4.038350    1.263166
 H    1.207740   -5.075286   -0.932043
 H    2.206396   -3.718752   -2.755839
 H    2.736097   -1.321770   -2.352844
 H    2.255288   -0.303085   -0.166741
 H   -2.538716   -0.545248    1.142896
 H   -3.272908   -3.387487    1.123351
 H   -5.385722   -1.272781    2.226615
 H   -7.625973   -0.653817    1.322308
 H   -8.126363   -0.972336   -1.080016
 H   -6.418231   -1.932372   -2.603358
 H   -3.935176   -3.848382   -1.881816
 H   -3.563024   -2.342943   -2.726663
 H   -1.857048   -3.338785   -0.790495
 H   -2.451250   -0.594307   -1.134770
