91 
2uy0_ligand_xtb.xyz
 C   -0.380992    1.262604    2.934798
 C   -0.559600   -0.261097    3.005596
 N    1.519275    2.291634    1.771295
 N    0.819505    2.175835    0.575105
 N   -2.308561    2.980822   -0.688898
 O    1.791682    1.603004    3.888584
 C    1.068610    1.709667    2.918851
 C   -0.053182    3.120887    0.139295
 C   -5.462425    1.880478    0.423416
 O   -4.375008    2.722224    0.069007
 C   -3.255110    2.095404   -0.337217
 O   -3.148157    0.884968   -0.398214
 C   -0.947856    2.602125   -1.000609
 C   -0.498420    3.121280   -2.390224
 C   -1.302301    2.381102   -3.461199
 C    0.990585    2.812807   -2.560936
 C   -0.732164    4.628280   -2.506872
 O   -0.130253    4.244175    0.581727
 C    2.883633    2.795784    1.669762
 C    3.775902    1.763659    1.033921
 C    4.170349    0.651516    1.771798
 C    4.897184   -0.365446    1.181422
 C    5.239314   -0.259242   -0.156021
Br    6.205218   -1.671072   -0.990131
 C    4.884601    0.851465   -0.901258
 C    4.145511    1.856046   -0.301653
 C   -0.229307   -1.034826    1.707228
 O   -0.440665   -0.196933    0.574855
 C    1.222723   -1.558645    1.723771
 C    1.643927   -2.069384    0.373600
 C    1.557602   -3.421032    0.064707
 C    1.924357   -3.879473   -1.188095
 C    2.377440   -2.994422   -2.151586
 C    2.461506   -1.645788   -1.854804
 C    2.098508   -1.188278   -0.600737
 C   -1.223540   -2.209890    1.580879
 O   -0.958818   -3.357424    1.857953
 N   -2.427616   -1.790910    1.121525
 C   -3.260327   -2.638504    0.306728
 C   -4.681679   -2.162379    0.259852
 C   -5.483359   -1.780561    1.317121
 C   -6.773673   -1.347287    1.049958
 C   -7.243306   -1.296552   -0.252682
 C   -6.434506   -1.678959   -1.313418
 C   -5.149660   -2.112198   -1.049001
 C   -4.102903   -2.580422   -2.014637
 C   -2.797415   -2.588861   -1.194272
 O   -1.998036   -1.460045   -1.456632
 H   -0.800755    1.675568    3.855086
 H   -0.938962    1.663460    2.090939
 H   -1.603463   -0.450917    3.265557
 H    0.062080   -0.655833    3.809580
 H    0.630030    1.209501    0.298032
 H   -2.470222    3.954927   -0.477371
 H   -6.289312    2.545138    0.657309
 H   -5.208871    1.268839    1.291620
 H   -5.725589    1.217871   -0.403469
 H   -0.927041    1.509498   -1.015939
 H   -1.048553    2.759107   -4.448352
 H   -2.368965    2.522306   -3.303570
 H   -1.088411    1.314909   -3.433396
 H    1.190962    1.757715   -2.387622
 H    1.583439    3.400654   -1.864853
 H    1.306143    3.060358   -3.571567
 H   -0.259404    5.007024   -3.409816
 H   -0.309561    5.149684   -1.651888
 H   -1.794588    4.852168   -2.563393
 H    2.857020    3.717682    1.084640
 H    3.207158    3.012632    2.689597
 H    3.897445    0.585554    2.814551
 H    5.189098   -1.234300    1.750439
 H    5.171195    0.924576   -1.938934
 H    3.853650    2.718242   -0.882960
 H   -0.632721   -0.756487   -0.201496
 H    1.879124   -0.742816    2.033827
 H    1.275291   -2.361146    2.459560
 H    1.193633   -4.110773    0.810676
 H    1.859623   -4.933909   -1.412522
 H    2.669627   -3.353824   -3.126878
 H    2.817672   -0.947138   -2.598496
 H    2.187601   -0.135315   -0.372791
 H   -2.515588   -0.803606    0.900039
 H   -3.180335   -3.658174    0.697279
 H   -5.109449   -1.822579    2.329101
 H   -7.417850   -1.046016    1.862536
 H   -8.249882   -0.955408   -0.444603
 H   -6.803264   -1.636493   -2.327787
 H   -4.339176   -3.584763   -2.371345
 H   -4.008838   -1.926777   -2.883164
 H   -2.159486   -3.442620   -1.435713
 H   -2.527448   -0.661561   -1.274164
