13 
2uyn_ligand_dft.xyz
 C   -2.678163   -0.061392   -0.004451
 C   -1.301537   -0.711475    0.004508
 C   -0.177402    0.279040    0.001884
 O   -0.304464    1.486880    0.002144
 C    1.263333   -0.286016   -0.000602
 O    1.505525   -1.463647   -0.001201
 O    2.182044    0.674598   -0.001900
 H   -2.816218    0.577934    0.871778
 H   -2.812453    0.561659   -0.892955
 H   -3.457951   -0.827515    0.000815
 H   -1.152146   -1.375767   -0.856658
 H   -1.158190   -1.362034    0.877354
 H    1.694740    1.522140   -0.000717
