32 
2uze_ligand_xtb.xyz
 O    5.415411   -2.482590    0.361298
 O    6.563219   -0.755670   -0.411142
 C    4.202305   -0.479237    0.019053
 C    4.242147    0.914382    0.064255
 C    3.073333    1.645957    0.075519
 C    1.832481    1.003272    0.033916
 C    1.794815   -0.395500    0.002370
 C    2.964043   -1.122224    0.002622
 C    0.602130    1.759428    0.030691
 O   -0.570404    1.094597    0.011456
 C    0.359423    3.121137    0.039952
 C   -1.029929    3.280481    0.025577
 C   -1.568599    2.004995    0.008881
 C   -2.919016    1.571067   -0.006628
 C   -3.310210    0.276749   -0.014106
 S   -2.254272   -1.111319   -0.007639
 C   -3.661256   -2.242779   -0.018970
 N   -3.668206   -3.492287   -0.020220
 N   -4.807785   -1.500762   -0.027446
 C    5.424224   -1.333080    0.016044
 C   -4.724925   -0.128815   -0.026646
 O   -5.677070    0.613296   -0.034680
 H    6.429183    0.152700   -0.711516
 H    5.183559    1.445299    0.127669
 H    3.118422    2.722496    0.120364
 H    0.838557   -0.895212   -0.019513
 H    2.948856   -2.201177   -0.014287
 H    1.089314    3.904034    0.054037
 H   -1.579579    4.199294    0.027326
 H   -3.688922    2.328834   -0.011082
 H   -2.773792   -3.961680   -0.013284
 H   -5.700349   -1.974189   -0.034459
