54 
2uzj_ligand_dft.xyz
 C    1.989280    1.655682   -1.168255
 O    3.166685    1.104662   -1.015183
 O    1.142985    1.281885   -1.974397
 C    1.768752    2.817088   -0.222568
 C    0.334641    3.365942   -0.178474
 O    0.299369    4.545692    0.577352
 C   -0.626881    2.359710    0.471079
 O   -0.867438    2.458448    1.678436
 N   -1.172404    1.420234   -0.322519
 C   -2.084930    0.402477    0.194507
 C   -3.054376   -0.066502   -0.886891
 C   -4.376482   -0.631558   -0.343431
 C   -4.177017   -1.776965    0.653725
 C   -5.261478   -1.079891   -1.508723
 C   -1.209079   -0.732611    0.750383
 O   -0.954338   -1.743661    0.093984
 N   -0.675612   -0.488577    1.967299
 C    0.521531   -1.210404    2.375054
 C    1.753518   -0.663693    1.641677
 C    2.965216   -1.591834    1.592266
 C    2.711184   -2.932081    0.864267
 N    1.858055   -2.865611   -0.313638
 C    2.101752   -1.972430   -1.328908
 N    1.012088   -1.659588   -2.092274
 N    3.256626   -1.439530   -1.614658
 H    3.221993    0.178079   -1.472159
 H    2.430182    3.638199   -0.519926
 H    2.086608    2.519118    0.782482
 H    0.000997    3.590985   -1.196336
 H    0.005965    4.271464    1.463180
 H   -0.742802    1.292193   -1.235946
 H   -2.631085    0.873422    1.018542
 H   -2.556807   -0.822593   -1.506256
 H   -3.279863    0.791450   -1.530643
 H   -4.891594    0.187683    0.179691
 H   -5.145205   -2.178033    0.972156
 H   -3.647786   -1.452230    1.556978
 H   -3.598853   -2.590942    0.203485
 H   -6.240480   -1.415616   -1.150659
 H   -4.796628   -1.915981   -2.045217
 H   -5.423638   -0.267871   -2.226209
 H   -0.801221    0.456524    2.322045
 H    0.629559   -1.120286    3.459364
 H    0.355919   -2.266237    2.149336
 H    1.454821   -0.434309    0.613442
 H    2.045468    0.290983    2.094779
 H    3.769625   -1.043963    1.091756
 H    3.325780   -1.819498    2.603330
 H    3.672638   -3.387057    0.598675
 H    2.227083   -3.642248    1.540609
 H    0.870482   -2.985110   -0.119970
 H    0.117181   -1.674485   -1.613961
 H    1.154930   -0.835209   -2.662428
 H    4.003556   -1.840714   -1.055380
