81 
2v10_ligand_xtb.xyz
 C   -0.305733   -1.684944    2.825170
 O   -1.191039   -0.981211    1.975357
 C   -2.459825   -0.703783    2.544930
 C   -3.348681   -1.930512    2.768310
 C   -3.457531   -2.823977    1.527848
 O   -3.984573   -2.098123    0.424274
 O   -2.020870   -3.834312   -0.871341
 C   -3.123971   -4.653704   -1.226689
 C   -3.194912   -0.335086   -0.912518
 C   -3.106290   -1.667941   -0.527030
 C   -2.167471   -2.497273   -1.167390
 C   -1.321795   -1.946223   -2.119681
 C   -1.390729   -0.601174   -2.453894
 C   -2.353800    0.217460   -1.866825
 C   -2.433650    1.686123   -2.155370
 C   -1.682962    2.490557   -1.073918
 C   -2.142980    3.963863   -1.013300
 C   -3.532748    4.089419   -0.391804
 C   -2.109048    4.654370   -2.374552
 C   -0.157225    2.399109   -1.283495
 C    0.650850    1.661241   -0.210735
 N    0.210277    0.257145   -0.041963
 C    0.650743    2.321510    1.179339
 O   -0.646006    2.154168    1.714524
 C    1.674951    1.694010    2.145360
 C    3.133249    1.651667    1.674705
 C    4.060053    1.597555    2.898401
 C    3.419392    0.420834    0.814789
 O    2.617734   -0.505803    0.675913
 N    4.624687    0.413433    0.232262
 C    5.123515   -0.649710   -0.530610
 C    6.338570   -0.637540   -1.060864
 C    6.949444   -1.727703   -1.876930
 C    6.062052   -2.944497   -2.098279
 H    0.644815   -1.756870    2.298665
 H   -0.664943   -2.693457    3.038771
 H   -0.169066   -1.150705    3.771956
 H   -2.937087   -0.027805    1.833018
 H   -2.328296   -0.173872    3.498508
 H   -2.969720   -2.537361    3.591648
 H   -4.340319   -1.569167    3.040954
 H   -4.156369   -3.639404    1.737035
 H   -2.480427   -3.246861    1.283370
 H   -2.910595   -5.637934   -0.815329
 H   -3.211750   -4.722523   -2.315340
 H   -4.063785   -4.277233   -0.817100
 H   -3.955316    0.271952   -0.445340
 H   -0.613768   -2.599838   -2.605204
 H   -0.746651   -0.214664   -3.231237
 H   -3.480551    1.984441   -2.152443
 H   -2.020208    1.906467   -3.139307
 H   -1.929394    2.051439   -0.105287
 H   -1.444183    4.483105   -0.346658
 H   -3.787825    5.137937   -0.262787
 H   -4.293324    3.639456   -1.024183
 H   -3.563110    3.608186    0.583269
 H   -2.302612    5.717098   -2.254126
 H   -1.140700    4.540012   -2.855523
 H   -2.871649    4.249596   -3.033568
 H    0.260154    3.404313   -1.356170
 H    0.052770    1.908246   -2.234882
 H    1.687609    1.642549   -0.564844
 H    1.063315   -0.293239    0.245963
 H   -0.481335    0.163134    0.731759
 H   -0.224678   -0.125063   -0.903665
 H    0.879704    3.389306    1.048202
 H   -0.715051    2.625150    2.550516
 H    1.633048    2.272112    3.071091
 H    1.355448    0.678089    2.384596
 H    3.364991    2.551543    1.093981
 H    3.835138    0.718848    3.498395
 H    5.106987    1.553141    2.610158
 H    3.919297    2.481976    3.514299
 H    5.252746    1.192114    0.380861
 H    4.427553   -1.466093   -0.628594
 H    6.975609    0.225418   -0.905779
 H    7.876601   -2.037018   -1.384603
 H    7.240106   -1.305169   -2.843908
 H    5.793471   -3.404339   -1.150623
 H    6.592994   -3.681200   -2.694965
 H    5.152850   -2.669517   -2.627264
