79 
2v11_ligand_dft.xyz
 C   -6.273615   -0.163246   -1.144292
 C   -6.660905   -0.636702   -2.391756
 C   -6.904782   -1.996101   -2.580298
 C   -6.756853   -2.879179   -1.516600
 C   -6.363862   -2.404030   -0.267009
 C   -6.123281   -1.045858   -0.071321
 C   -5.702671   -0.533177    1.288900
 N   -4.425941    0.172970    1.256122
 C   -3.219003   -0.428316    1.182125
 C   -4.252015    1.551860    1.171595
 C   -2.425128    3.134145    0.967470
 C   -2.872013    1.809791    1.056244
 C   -2.221796    0.521673    1.064832
 C   -5.203497    2.573703    1.190798
 C   -4.738066    3.874203    1.095773
 C   -3.363852    4.150921    0.986643
 C   -0.812698    0.260020    0.965155
 O    0.047113    1.136291    0.864350
 O   -0.514626   -1.049642    0.988795
 C    0.852185   -1.466125    1.021629
 C    1.292513   -2.056889   -0.319071
 C    0.338357   -3.171917   -0.755695
 C    1.456129   -1.021507   -1.444545
 C    2.642986   -0.057807   -1.267950
 N    2.199787    1.270682   -0.743170
 C    3.380550    0.208815   -2.586967
 O    2.387355    0.807257   -3.404065
 C    4.617261    1.117327   -2.515368
 C    5.788314    0.642812   -1.649221
 C    7.063476    1.435640   -1.991903
 C    5.493752    0.816710   -0.158887
 O    4.683233    1.650604    0.264097
 N    6.190500    0.027762    0.675475
 C    5.987320    0.043493    2.120787
 C    4.838315   -0.868034    2.554907
 C    5.068292   -2.342105    2.220203
 C    3.932338   -3.244667    2.695369
 H   -6.083416    0.897851   -1.004367
 H   -6.778313    0.057656   -3.218086
 H   -7.212591   -2.363952   -3.554208
 H   -6.945777   -3.938956   -1.656561
 H   -6.251350   -3.099014    0.561968
 H   -6.444061    0.157768    1.699044
 H   -5.613764   -1.358517    2.001122
 H   -3.135242   -1.505783    1.212284
 H   -1.365148    3.346416    0.889345
 H   -6.265980    2.368465    1.275328
 H   -5.448734    4.694157    1.107606
 H   -3.036722    5.183592    0.917745
 H    1.484826   -0.634458    1.346889
 H    0.890046   -2.241042    1.791395
 H    2.280090   -2.505565   -0.130760
 H    0.226209   -3.923598    0.032065
 H    0.713287   -3.675602   -1.651643
 H   -0.653681   -2.768534   -0.979821
 H    1.600734   -1.562677   -2.384675
 H    0.526150   -0.457516   -1.582228
 H    3.341767   -0.460502   -0.529166
 H    1.434007    1.188434   -0.030978
 H    3.030298    1.742464   -0.330295
 H    1.836746    1.817418   -1.530864
 H    3.679132   -0.771831   -2.987547
 H    2.761691    1.025114   -4.266357
 H    4.324240    2.124462   -2.198033
 H    4.985861    1.219729   -3.543873
 H    5.976448   -0.422091   -1.844957
 H    6.905867    2.504272   -1.815502
 H    7.912051    1.113419   -1.381941
 H    7.328064    1.293985   -3.043510
 H    6.836720   -0.641379    0.284668
 H    5.790145    1.076584    2.413433
 H    6.925071   -0.268767    2.589680
 H    4.699739   -0.751261    3.636600
 H    3.911714   -0.510635    2.083957
 H    6.009831   -2.672639    2.678053
 H    5.194466   -2.458740    1.134561
 H    3.787424   -3.158975    3.777331
 H    4.134263   -4.294878    2.465669
 H    2.986366   -2.973556    2.212958
