77 
2v13_ligand_xtb.xyz
 C   -4.309452   -0.589846    2.804844
 O   -3.270581   -1.140553    2.016715
 C   -2.518934   -2.135757    2.703615
 C   -1.729733   -2.972985    1.705209
 C   -0.435667   -2.319604    1.228279
 O    0.084414   -3.155529    0.207973
 C    1.322597   -2.793114   -0.293052
 C    2.444185   -3.506142    0.107627
 C    3.687714   -3.209948   -0.422974
 C    3.824415   -2.181270   -1.340897
 C    2.714948   -1.450954   -1.724146
 C    1.453708   -1.753348   -1.219342
 C    0.298862   -0.934968   -1.681808
 O    0.388397    0.279983   -1.830030
 C   -2.013608   -1.016497   -2.504433
 N   -0.831518   -1.617630   -1.929860
 C   -4.447276   -1.390548   -1.929516
 C   -3.137839   -0.748807   -1.475048
 C   -3.348827    0.756303   -1.262238
 N   -2.294584    1.222910    0.921967
 C   -2.181170    1.429213   -0.541973
 C   -2.168042    2.950511   -0.752053
 O   -3.378352    3.416935   -0.175881
 C   -0.971141    3.657794   -0.090496
 C    0.419679    3.100532   -0.428188
 C    1.441174    4.246195   -0.390416
 C    0.859415    2.022696    0.560538
 O    0.171134    1.674733    1.531379
 C    2.723004    0.585505    1.240720
 N    2.056775    1.501913    0.340663
 C    4.130894    1.071746    1.582737
 C    5.087484    1.013474    0.392746
 C    6.500783    1.415391    0.796572
 H   -4.878354    0.080573    2.163318
 H   -3.906561   -0.037920    3.660218
 H   -4.973629   -1.374970    3.173841
 H   -1.852439   -1.656936    3.433888
 H   -3.213839   -2.787073    3.245551
 H   -1.478040   -3.928855    2.163520
 H   -2.362495   -3.178056    0.840213
 H   -0.614552   -1.307148    0.836976
 H    0.282062   -2.240650    2.056191
 H    2.321785   -4.304504    0.822786
 H    4.549479   -3.782591   -0.117410
 H    4.791704   -1.953242   -1.761311
 H    2.801788   -0.644266   -2.436694
 H   -2.382085   -1.683070   -3.286854
 H   -1.695581   -0.082720   -2.973857
 H   -0.850354   -2.606143   -1.726076
 H   -5.223250   -1.245251   -1.182211
 H   -4.784873   -0.948622   -2.863691
 H   -4.320521   -2.459412   -2.080063
 H   -2.849639   -1.207704   -0.524326
 H   -3.491474    1.228303   -2.234568
 H   -4.262308    0.926848   -0.690682
 H   -1.330980    1.455496    1.341619
 H   -2.998214    1.892522    1.252236
 H   -2.579964    0.258766    1.188885
 H   -1.233555    1.016990   -0.896975
 H   -2.151594    3.148978   -1.831890
 H   -3.487847    4.354234   -0.361449
 H   -1.007628    4.702778   -0.404813
 H   -1.102048    3.650989    0.994712
 H    0.417764    2.654963   -1.426673
 H    2.444823    3.906086   -0.628053
 H    1.459430    4.700793    0.597844
 H    1.169601    5.009246   -1.115198
 H    2.110126    0.526972    2.142704
 H    2.775242   -0.405995    0.780403
 H    2.543518    1.731835   -0.511386
 H    4.077862    2.093243    1.964586
 H    4.521841    0.438851    2.380617
 H    5.096861   -0.002406   -0.007777
 H    4.745088    1.682043   -0.400760
 H    6.885568    0.743161    1.559386
 H    7.167727    1.378497   -0.060727
 H    6.511705    2.427030    1.195476
