77 
2v13_ligand_dft.xyz
 C   -3.639055    0.478460    3.436195
 O   -2.943006   -0.385245    2.555461
 C   -2.423636   -1.539832    3.208787
 C   -1.962873   -2.544723    2.169627
 C   -0.682832   -2.166313    1.442004
 O   -0.541906   -3.099257    0.371799
 C    0.576586   -2.929038   -0.416604
 C    1.681167   -3.731992   -0.151980
 C    2.810228   -3.651542   -0.958915
 C    2.841486   -2.752123   -2.022102
 C    1.742804   -1.941027   -2.271561
 C    0.589078   -2.019578   -1.485284
 C   -0.553032   -1.130822   -1.891791
 O   -0.360343   -0.161367   -2.627745
 C   -3.009349   -0.813470   -1.895760
 N   -1.784915   -1.434618   -1.412843
 C   -5.241098    0.095011   -1.184524
 C   -3.741028    0.082148   -0.870831
 C   -3.225219    1.532815   -0.858394
 N   -1.540123    1.482801    0.979754
 C   -1.760499    1.719005   -0.481593
 C   -1.225108    3.121399   -0.774652
 O   -1.986587    3.982404    0.059812
 C    0.278704    3.312537   -0.510282
 C    1.222023    2.335335   -1.252386
 C    2.342210    3.083172   -1.986230
 C    1.714189    1.244420   -0.298040
 O    1.003863    0.815481    0.631131
 C    3.488470   -0.319079    0.347449
 N    2.926890    0.724825   -0.504736
 C    4.053442    0.226329    1.658454
 C    5.177462    1.244858    1.467063
 C    5.731728    1.761475    2.793138
 H   -4.023950    1.309479    2.839848
 H   -2.977425    0.864529    4.223520
 H   -4.484761   -0.040107    3.903258
 H   -1.606965   -1.246528    3.885985
 H   -3.219241   -1.985173    3.819615
 H   -1.818875   -3.515652    2.654502
 H   -2.768335   -2.673469    1.437437
 H   -0.721254   -1.149634    1.033642
 H    0.190268   -2.226096    2.104821
 H    1.626195   -4.432119    0.675149
 H    3.660889   -4.295757   -0.760048
 H    3.715896   -2.692432   -2.662138
 H    1.743309   -1.236739   -3.096476
 H   -3.683433   -1.620991   -2.200745
 H   -2.757705   -0.242684   -2.794186
 H   -1.859055   -2.289924   -0.876106
 H   -5.787804    0.733313   -0.483357
 H   -5.425950    0.477328   -2.195424
 H   -5.667275   -0.911126   -1.123353
 H   -3.610193   -0.365862    0.124529
 H   -3.357210    1.951046   -1.864329
 H   -3.848131    2.146233   -0.195852
 H   -0.511027    1.292000    1.083421
 H   -1.803761    2.334544    1.485067
 H   -2.065832    0.682255    1.378100
 H   -1.142199    1.002239   -1.016253
 H   -1.427554    3.321081   -1.836547
 H   -1.706634    4.895584   -0.076153
 H    0.522486    4.337276   -0.815614
 H    0.460100    3.276971    0.569608
 H    0.648610    1.779766   -2.007943
 H    2.918300    2.426215   -2.646415
 H    3.028669    3.575209   -1.288148
 H    1.909979    3.853574   -2.630492
 H    2.700918   -1.051694    0.538491
 H    4.269137   -0.818309   -0.233183
 H    3.506652    1.112036   -1.231156
 H    3.234950    0.675199    2.233897
 H    4.422274   -0.624594    2.245083
 H    5.987700    0.788455    0.882310
 H    4.804827    2.091977    0.875492
 H    6.148060    0.943293    3.390770
 H    6.525908    2.496627    2.632882
 H    4.945225    2.240925    3.386873
