17 
2v25_ligand_xtb.xyz
 N    0.702770    1.723850    0.133858
 C    0.665367    0.430743    0.864564
 C    1.390461   -0.648603    0.020737
 O    1.119322   -1.804573    0.069230
 C   -0.777485   -0.008157    1.125765
 C   -1.603913    0.023643   -0.147359
 O   -1.352244    0.792751   -1.061286
 O   -2.591425   -0.815658   -0.146275
 O    2.340881   -0.097235   -0.727127
 H    1.605802    1.830184   -0.345392
 H   -0.096621    1.617293   -0.593850
 H    0.528147    2.531041    0.738119
 H    1.212050    0.507972    1.811706
 H   -0.784217   -1.025784    1.520842
 H   -1.262747    0.636676    1.862185
 H   -3.136048   -0.789261   -0.954034
 H    2.835387   -0.763104   -1.235163
