14 
2v2c_ligand_dft.xyz
 P   -1.259788    0.003504   -0.149612
 O   -0.173611    0.649858    0.883958
 O   -1.163085   -1.552211    0.126012
 O   -2.652408    0.332735    0.555132
 O   -1.086244    0.524323   -1.518221
 C    1.064537    1.057439    0.368218
 C    1.971874   -0.134029    0.066535
 O    3.239855    0.166365   -0.234032
 O    1.601865   -1.281752    0.066964
 H   -0.216448   -1.803976    0.149708
 H   -3.101628    1.045125    0.081235
 H    1.532888    1.693286    1.126949
 H    0.940751    1.636533   -0.556909
 H    3.391814    1.121470   -0.203819
