14 
2v2h_ligand_xtb.xyz
 P   -1.338879    0.071957   -0.042320
 O   -0.162171   -0.483134   -0.978673
 O   -1.720190   -1.215945    0.826600
 O   -2.427353    0.667231   -0.799774
 O   -0.660932    0.967245    1.087736
 C    1.010248   -0.987905   -0.396990
 C    1.990895    0.144402   -0.090376
 O    3.195529   -0.254634    0.333011
 O    1.715078    1.299856   -0.208315
 H   -2.666921   -1.221998    0.953677
 H   -0.301594    1.778952    0.724276
 H    1.451523   -1.677941   -1.125881
 H    0.782886   -1.527774    0.530930
 H    3.290734   -1.214534    0.391313
