153 
2v86_ligand_dft.xyz
 N   10.706678    1.094291   -1.233745
 C    9.703473    0.201969   -1.830104
 C    8.499214    0.199070   -0.892607
 O    8.645132    0.164496    0.321734
 C   10.168547   -1.243766   -2.041672
 C   10.200161    3.097883    1.666471
 C    8.078416    2.206978    2.607215
 N    7.281406    0.275355   -1.504208
 C    6.072941   -0.091663   -0.790313
 C    4.864130    0.722532   -1.283286
 C    4.737275    2.149391   -0.734419
 C    5.963117    3.064375   -0.897054
 N    6.817466    3.027645    0.287825
 C    8.160738    3.048583    0.328701
 N    8.893853    3.274777   -0.772127
 N    8.772612    2.852678    1.498921
 C    5.833336   -1.598753   -1.008217
 O    6.388151   -2.198575   -1.916804
 N    4.972643   -2.157793   -0.130597
 C    4.451255   -3.508252   -0.297590
 C    2.928876   -3.325676   -0.274850
 O    2.293495   -3.223641   -1.317010
 C    5.047809   -4.483033    0.726125
 O    4.801108   -3.934871    2.021414
 C    6.538013   -4.690949    0.499372
 N    2.392057   -3.150777    0.960203
 C    1.203267   -2.361136    1.143530
 C    0.388565   -2.833984    2.368395
 C   -0.774524   -3.748160    1.970028
 C   -1.917079   -2.954142    1.322285
 C   -2.936092   -3.895458    0.697821
 N   -4.166541   -3.226648    0.127788
 C    1.565342   -0.858876    1.163701
 O    2.716652   -0.437434    1.043416
 C   -3.790887   -2.085607   -0.771306
 C   -5.051500   -2.721431    1.224416
 C   -4.924997   -4.236460   -0.677553
 N    0.485880   -0.065521    1.259739
 C    0.455560    1.363401    1.064968
 C   -0.988321    1.785789    1.392653
 O   -1.846288    0.949668    1.671373
 C    0.845001    1.779243   -0.369754
 C   -0.104699    1.260736   -1.463410
 C   -0.080021   -0.256941   -1.590028
 O   -1.017734   -0.960748   -1.216376
 N    1.053964   -0.774592   -2.102057
 N   -1.234651    3.101828    1.317627
 C   -2.567155    3.671507    1.432905
 C   -3.334107    3.411862    0.124509
 O   -3.297920    4.209216   -0.812668
 C   -2.400903    5.188459    1.659524
 O   -1.504216    5.692134    0.686168
 C   -1.842954    5.512848    3.033670
 N   -4.020602    2.257062    0.085319
 C   -4.801645    1.850828   -1.061951
 C   -5.867287    0.882459   -0.542541
 O   -5.707427    0.242382    0.493153
 C   -3.938977    1.223499   -2.166629
 N   -6.989504    0.800850   -1.286049
 C   -8.090572   -0.064046   -0.923112
 C   -7.722050   -1.549666   -1.067016
 O   -6.818187   -1.927662   -1.811453
 C   -9.321751    0.272682   -1.778402
 C   -9.966673    1.626911   -1.457153
 C  -10.657772    1.714817   -0.086914
 N  -11.717866    0.736407    0.103796
 C  -11.458680   -0.566618    0.467990
 N  -12.302997   -1.507284   -0.072879
 N  -10.482570   -0.977365    1.213814
 N   -8.470067   -2.375052   -0.314538
 H   11.541818    1.110024   -1.814852
 H   10.979789    0.699167   -0.335260
 H    9.732935    2.676604   -0.926797
 H    9.412769    0.637508   -2.793131
 H   10.478890   -1.681550   -1.087452
 H   11.014013   -1.275934   -2.735271
 H    9.360116   -1.858474   -2.451093
 H   10.546027    3.820948    0.928011
 H   10.367771    3.510837    2.663493
 H   10.764960    2.166355    1.564234
 H    8.822241    1.730426    3.246133
 H    7.517372    2.929962    3.211325
 H    7.421578    1.421623    2.227734
 H    7.272569   -0.028399   -2.472140
 H    6.252306    0.092401    0.272339
 H    3.952289    0.186037   -0.998753
 H    4.893934    0.745664   -2.380869
 H    3.894454    2.627814   -1.245391
 H    4.452082    2.098162    0.324759
 H    5.645235    4.097679   -1.075135
 H    6.550217    2.734882   -1.756237
 H    6.341016    3.145131    1.170325
 H    8.418931    3.590400   -1.603417
 H    4.479576   -1.561617    0.529770
 H    4.719477   -3.846443   -1.299955
 H    4.516116   -5.440442    0.618431
 H    5.168849   -4.532544    2.683180
 H    6.729847   -5.088610   -0.501061
 H    7.072204   -3.742825    0.606808
 H    6.940205   -5.402305    1.228918
 H    3.041431   -3.234635    1.738668
 H    0.601171   -2.488667    0.236335
 H    1.060875   -3.365316    3.049561
 H    0.001340   -1.977866    2.931928
 H   -1.148051   -4.276504    2.854510
 H   -0.401763   -4.514398    1.277364
 H   -1.522171   -2.301822    0.536150
 H   -2.377668   -2.311440    2.081621
 H   -3.297183   -4.635011    1.419647
 H   -2.471979   -4.433266   -0.133910
 H   -4.696549   -1.756526   -1.282305
 H   -3.036183   -2.427838   -1.479467
 H   -3.376756   -1.279057   -0.169735
 H   -5.936710   -2.269591    0.780689
 H   -5.324734   -3.560731    1.866324
 H   -4.523552   -1.956911    1.791482
 H   -4.277303   -4.602040   -1.475888
 H   -5.795844   -3.739477   -1.111748
 H   -5.215075   -5.062658   -0.025645
 H   -0.442715   -0.471390    1.316209
 H    1.143263    1.847693    1.768237
 H    1.864434    1.420720   -0.543185
 H    0.887273    2.872545   -0.427087
 H   -1.134873    1.562619   -1.257264
 H    0.182677    1.711162   -2.420271
 H    1.242901   -1.773303   -2.040313
 H    1.820210   -0.181467   -2.378087
 H   -0.539986    3.762160    0.986290
 H   -3.081183    3.202436    2.277057
 H   -3.389483    5.652775    1.546839
 H   -1.962930    5.568120   -0.164085
 H   -0.874204    5.027591    3.190293
 H   -2.528329    5.181640    3.819634
 H   -1.703356    6.592556    3.123311
 H   -3.942560    1.590096    0.845373
 H   -5.289280    2.745831   -1.462950
 H   -4.557715    0.809871   -2.969559
 H   -3.294629    1.998352   -2.590312
 H   -3.305345    0.427298   -1.764501
 H   -7.017401    1.261060   -2.184246
 H   -8.311789    0.108797    0.133768
 H   -9.024097    0.247894   -2.834843
 H  -10.059093   -0.526887   -1.662652
 H  -10.708617    1.843545   -2.235330
 H   -9.221055    2.430333   -1.513531
 H   -9.932883    1.612728    0.725183
 H  -11.096365    2.709520    0.032110
 H  -12.520598    0.877726   -0.493504
 H  -12.361222   -2.363465    0.459252
 H  -13.179881   -1.209192   -0.472890
 H   -9.994205   -0.197577    1.644573
 H   -8.391186   -3.367943   -0.479081
 H   -9.234482   -2.025673    0.288573
