152 
2v87_ligand_xtb.xyz
 N    1.944918   -3.212889    0.710396
 C    2.611351   -3.576990    1.974265
 C    4.071961   -3.132327    2.042339
 O    4.530797   -2.726419    3.100518
 C    2.516932   -5.083173    2.185043
 N    4.781964   -3.207355    0.911543
 C    6.230979   -3.017923    0.912419
 C    6.882767   -3.847537   -0.196566
 C    6.711944   -3.381522   -1.648630
 C    5.283641   -3.101081   -2.116246
 N    4.359984   -4.143305   -1.664866
 C    3.033449   -4.179933   -2.288820
 N    2.206440   -4.941177   -1.333781
 C    0.851782   -5.201055   -1.814569
 N    2.413433   -2.899661   -2.457662
 C    2.367287   -2.358611   -3.802921
 C    6.591849   -1.519753    0.891408
 O    7.148077   -0.964119   -0.044138
 N    6.222986   -0.907097    2.026791
 C    6.313868    0.506765    2.325863
 C    5.327020    1.378513    1.540316
 O    5.198520    2.562512    1.799797
 C    7.734989    1.122554    2.141079
 O    7.986981    1.472781    0.801955
 C    8.811838    0.204667    2.711085
 N    4.653245    0.770130    0.554618
 C    3.692747    1.424878   -0.294430
 C    4.271067    1.747944   -1.696090
 C    5.678717    2.339860   -1.668746
 C    5.749258    3.714081   -0.999538
 C    7.212967    4.138536   -0.898619
 N    7.491463    5.265029    0.041536
 C    2.529691    0.459525   -0.540353
 O    2.710417   -0.754834   -0.433357
 C    7.435221    4.783001    1.433629
 C    6.531969    6.366355   -0.142484
 C    8.853077    5.764537   -0.225100
 N    1.416530    1.053045   -0.939507
 C    0.174448    0.538513   -1.486840
 C   -0.834200    1.693403   -1.238398
 O   -0.411117    2.782032   -0.892919
 C   -0.282146   -0.814748   -0.939551
 C   -0.644052   -0.770497    0.549867
 C   -1.308486   -2.080899    0.930488
 O   -0.652159   -3.105147    1.134997
 N   -2.629872   -2.058794    0.982628
 N   -2.115956    1.410218   -1.458637
 C   -3.201057    2.281265   -1.071459
 C   -4.073225    1.525557   -0.070025
 O   -3.909285    0.324839    0.129525
 C   -4.048294    2.739297   -2.311368
 O   -5.131694    3.511235   -1.889055
 C   -4.490426    1.550486   -3.157456
 N   -4.964195    2.286009    0.568434
 C   -6.109391    1.718542    1.251349
 C   -7.164212    1.349209    0.184359
 O   -7.000475    1.643495   -0.991158
 C   -6.667461    2.723535    2.251167
 N   -8.216472    0.691686    0.652626
 C   -9.395128    0.356784   -0.117182
 C  -10.522040    0.208582    0.918984
 O  -10.262631    0.186690    2.110176
 C   -9.199962   -0.949635   -0.890363
 N  -11.745602    0.111560    0.405122
 C  -12.934955   -0.164996    1.180849
 C  -13.870131   -0.950087    0.249794
 O  -13.631595   -1.044800   -0.935100
 C  -13.599502    1.135712    1.642271
 N  -14.944142   -1.492254    0.841631
 H    2.101267   -3.938436   -0.071299
 H    0.887328   -3.182842    0.878240
 H    2.238127   -2.285598    0.370249
 H    2.104885   -3.072389    2.803936
 H    1.475461   -5.391503    2.155469
 H    3.071522   -5.615793    1.416936
 H    2.925766   -5.350687    3.155089
 H    4.409981   -3.625122    0.046353
 H    6.604512   -3.397279    1.875573
 H    7.955448   -3.873743    0.001664
 H    6.510781   -4.868983   -0.088515
 H    7.289662   -2.471491   -1.802099
 H    7.146384   -4.159096   -2.280657
 H    4.943740   -2.145055   -1.706979
 H    5.298086   -3.015684   -3.211462
 H    4.805318   -5.046729   -1.801244
 H    3.052825   -4.682313   -3.276619
 H    2.662183   -5.827236   -1.130360
 H    0.390617   -4.248347   -2.063072
 H    0.285587   -5.679548   -1.019345
 H    0.836246   -5.841806   -2.700031
 H    2.774240   -2.215080   -1.804178
 H    1.788415   -1.437386   -3.775252
 H    1.855871   -3.065758   -4.454781
 H    3.350904   -2.136460   -4.233629
 H    5.751591   -1.487980    2.724476
 H    6.057674    0.619040    3.383034
 H    7.729168    2.068063    2.693891
 H    7.926746    0.642480    0.284490
 H    8.876960   -0.715718    2.135964
 H    8.595264   -0.037495    3.747042
 H    9.775412    0.704343    2.660895
 H    4.769103   -0.217598    0.380675
 H    3.361075    2.335883    0.210207
 H    4.312738    0.820203   -2.272054
 H    3.583844    2.427509   -2.201652
 H    6.032870    2.416395   -2.698131
 H    6.341002    1.653286   -1.141017
 H    5.167989    4.429711   -1.582424
 H    5.315558    3.631519   -0.004874
 H    7.574351    4.426930   -1.887824
 H    7.791402    3.280061   -0.546654
 H    6.493270    4.274115    1.635545
 H    8.241495    4.071874    1.599243
 H    7.545517    5.617031    2.123240
 H    6.490447    6.657009   -1.190743
 H    6.839828    7.229087    0.445851
 H    5.541549    6.060588    0.185011
 H    9.128378    6.515656    0.513408
 H    8.907032    6.214243   -1.215205
 H    9.567343    4.944748   -0.172547
 H    1.330449    2.070978   -0.848560
 H    0.295074    0.442686   -2.577363
 H    0.506954   -1.545836   -1.119508
 H   -1.152557   -1.140684   -1.512440
 H    0.255418   -0.625818    1.150001
 H   -1.330937    0.051134    0.747375
 H   -3.125588   -2.906819    1.212112
 H   -3.168903   -1.224262    0.769965
 H   -2.409584    0.460680   -1.640436
 H   -2.776607    3.172605   -0.599878
 H   -3.404656    3.401805   -2.904123
 H   -5.901733    2.920170   -1.748125
 H   -5.120596    1.912050   -3.966078
 H   -3.638263    1.034967   -3.592165
 H   -5.074334    0.856275   -2.556023
 H   -5.097069    3.225424    0.205819
 H   -5.780172    0.802580    1.753241
 H   -7.505145    2.299818    2.797283
 H   -5.897658    3.006726    2.964756
 H   -7.009420    3.617257    1.733403
 H   -8.351059    0.511261    1.646281
 H   -9.614807    1.171610   -0.815675
 H  -10.096508   -1.201932   -1.449061
 H   -8.373973   -0.836606   -1.588076
 H   -8.974168   -1.761293   -0.202274
 H  -11.903345    0.051851   -0.596349
 H  -12.654917   -0.769007    2.051165
 H  -13.874887    1.740410    0.781478
 H  -12.901814    1.696634    2.258770
 H  -14.491654    0.929694    2.226361
 H  -15.116045   -1.408485    1.827448
 H  -15.610928   -1.992597    0.275905
