138 
2v88_ligand_xtb.xyz
 N    1.501381   -2.863548    0.752562
 C    2.168567   -2.923197    2.070411
 C    3.545269   -2.248243    1.971164
 O    3.711918   -1.121328    2.405264
 C    2.215806   -4.357971    2.566156
 N    4.523180   -2.963159    1.399702
 C    5.794962   -2.291195    1.223578
 C    6.830681   -3.187693    0.536187
 C    6.503242   -3.585987   -0.909676
 C    5.791281   -4.934815   -1.052498
 N    4.415723   -4.937047   -0.539779
 C    3.375065   -4.659630   -1.536424
 N    2.089571   -4.921632   -0.867808
 C    0.949625   -4.837830   -1.779930
 N    3.336074   -3.299363   -1.974761
 C    3.795318   -3.008811   -3.317920
 C    5.516597   -1.014882    0.423427
 O    4.668289   -1.017587   -0.458153
 N    6.257249    0.051061    0.752090
 C    6.176348    1.395786    0.201308
 C    4.868776    2.116056    0.543208
 O    4.911059    3.251575    1.021476
 C    6.539174    1.471496   -1.309730
 O    7.087564    2.768579   -1.494932
 C    5.403186    1.239685   -2.301599
 N    3.735687    1.481288    0.291590
 C    2.442253    2.026222    0.637179
 C    2.064931    3.223420   -0.270301
 C    2.140184    4.566128    0.467769
 C    2.461007    5.745722   -0.453853
 C    3.896542    5.780247   -0.982964
 N    4.945111    5.729430    0.064361
 C    6.284691    5.736969   -0.545170
 C    4.820768    6.808952    1.051802
 C    1.413935    0.902322    0.525102
 O    1.688058   -0.189587    0.052291
 N    0.214840    1.229179    1.016913
 C   -0.999226    0.487916    0.766113
 C   -1.955519    1.414882   -0.012561
 O   -1.760028    2.610532   -0.065504
 C   -1.715542    0.089918    2.076154
 C   -1.534553   -1.385338    2.434001
 C   -1.953688   -2.318525    1.315782
 O   -1.169141   -3.131912    0.826725
 N   -3.201682   -2.191986    0.871475
 N   -2.985335    0.755221   -0.564502
 C   -4.263316    1.371825   -0.835539
 C   -5.220652    0.976105    0.292225
 O   -4.943292    0.068237    1.071438
 C   -4.844394    0.930811   -2.219988
 O   -6.111789    1.489744   -2.402047
 C   -4.868691   -0.588062   -2.362091
 N   -6.324512    1.722804    0.366449
 C   -7.482758    1.291172    1.121639
 C   -8.202970    0.210625    0.293017
 O   -7.767626   -0.146137   -0.788565
 C   -8.399191    2.480075    1.390812
 N   -9.291739   -0.324206    0.865207
 C  -10.242586   -1.063391    0.058816
 C  -10.945503   -0.070880   -0.876210
 O  -11.780351   -0.673483   -1.707032
 C  -11.244100   -1.805061    0.932521
 O  -10.746111    1.112969   -0.846807
 H    1.640157   -1.931527    0.321740
 H    1.844152   -3.644910    0.096279
 H    0.459963   -3.014499    0.849718
 H    1.601907   -2.308740    2.779141
 H    1.207694   -4.762560    2.614730
 H    2.812747   -4.980400    1.907904
 H    2.647095   -4.397274    3.562012
 H    4.355363   -3.777690    0.786489
 H    6.167508   -2.009888    2.216535
 H    7.778994   -2.647570    0.546911
 H    6.959168   -4.083213    1.146016
 H    7.441533   -3.677249   -1.459172
 H    5.922781   -2.799860   -1.388219
 H    6.360875   -5.682786   -0.496943
 H    5.803626   -5.229104   -2.110036
 H    4.229477   -5.848454   -0.131874
 H    3.490963   -5.311999   -2.427902
 H    2.096704   -5.843822   -0.438860
 H    0.970669   -5.614734   -2.548763
 H    0.034201   -4.932584   -1.200575
 H    0.974583   -3.864152   -2.263479
 H    3.728842   -2.652580   -1.300326
 H    3.226978   -3.607948   -4.029056
 H    4.863616   -3.198596   -3.482675
 H    3.595227   -1.958375   -3.516788
 H    6.868988   -0.047840    1.547154
 H    6.960315    1.979439    0.696725
 H    7.319588    0.712977   -1.471669
 H    7.543521    2.792147   -2.343926
 H    4.651704    2.019879   -2.211271
 H    4.937797    0.275249   -2.136866
 H    5.802525    1.265343   -3.313785
 H    3.731241    0.528433   -0.080534
 H    2.468458    2.355194    1.683963
 H    1.060123    3.090522   -0.673727
 H    2.748678    3.218180   -1.119551
 H    1.177351    4.763457    0.940801
 H    2.884228    4.499856    1.262061
 H    2.239108    6.676213    0.068820
 H    1.799602    5.709444   -1.320979
 H    4.071260    4.933378   -1.648817
 H    4.035391    6.698067   -1.560324
 H    4.861105    4.796214    0.548913
 H    7.041404    5.753065    0.235526
 H    6.409307    6.615159   -1.176496
 H    6.434590    4.832125   -1.132344
 H    3.872460    6.744568    1.577609
 H    4.890079    7.776283    0.555187
 H    5.622307    6.730430    1.782906
 H    0.036119    2.196661    1.261221
 H   -0.743702   -0.388748    0.164617
 H   -2.780524    0.312738    1.994185
 H   -1.320915    0.702389    2.887680
 H   -2.140932   -1.614246    3.312113
 H   -0.491190   -1.584130    2.681157
 H   -3.532202   -2.844685    0.176476
 H   -3.869368   -1.519464    1.240274
 H   -3.057314   -0.236455   -0.373233
 H   -4.126978    2.456772   -0.842351
 H   -4.199265    1.367265   -2.992479
 H   -6.780026    0.876194   -2.038025
 H   -5.456571   -1.029608   -1.559482
 H   -3.863413   -1.000870   -2.360581
 H   -5.341205   -0.841442   -3.307761
 H   -6.518638    2.334887   -0.418982
 H   -7.119734    0.842548    2.053387
 H   -7.812130    3.323669    1.745171
 H   -8.922589    2.766877    0.481270
 H   -9.137458    2.241237    2.150623
 H   -9.663947    0.109167    1.696789
 H   -9.682787   -1.764305   -0.570167
 H  -12.218773   -0.036753   -2.295535
 H  -10.725791   -2.504225    1.583271
 H  -11.809249   -1.104662    1.544077
 H  -11.937722   -2.356109    0.304838
