56 
2v95_ligand_xtb.xyz
 C    3.280732   -1.516373   -0.483918
 C    4.797052   -1.548147   -0.341392
 C    5.399305   -0.211992   -0.708062
 C    4.611996    0.937519   -0.269556
 C    3.384356    0.864139    0.257214
 C    2.727531    2.080391    0.828690
 C    1.316011    2.261014    0.281410
 C    0.470251    1.009560    0.507884
 C    1.164906   -0.201481   -0.139907
 C    2.615288   -0.431579    0.382817
 C    0.289626   -1.476185   -0.118287
 C   -1.122408   -1.216989   -0.681436
 C   -1.801481   -0.034812    0.002716
 C   -0.890397    1.187893   -0.157456
 C   -1.777488    2.356062    0.269631
 C   -3.167499    1.974094   -0.277766
 C   -3.075991    0.505933   -0.745787
 C   -2.143335   -0.366048    1.454729
 C    2.680184   -0.838639    1.864281
 C   -4.268543   -0.394325   -0.483719
 C   -5.313403   -0.053713    0.554609
 O    6.469909   -0.102809   -1.267827
 O    0.243762   -2.033002    1.178572
 O   -2.857128    0.510781   -2.142112
 O   -4.412331   -1.398933   -1.153118
 O   -6.201314   -1.114948    0.737212
 H    3.041324   -1.329743   -1.534464
 H    2.880654   -2.493973   -0.212937
 H    5.230143   -2.326166   -0.972253
 H    5.079406   -1.764323    0.692089
 H    5.110775    1.894176   -0.355324
 H    3.329061    2.965790    0.616486
 H    2.675462    1.966794    1.915127
 H    1.370988    2.466835   -0.790249
 H    0.846345    3.118642    0.764764
 H    0.344866    0.846120    1.579752
 H    1.272409    0.046833   -1.204526
 H    0.759169   -2.210326   -0.794602
 H   -1.023698   -1.004823   -1.747412
 H   -1.721685   -2.126406   -0.571602
 H   -0.718576    1.299565   -1.234443
 H   -1.794049    2.455077    1.355067
 H   -1.436285    3.299749   -0.150171
 H   -3.940856    2.114023    0.472770
 H   -3.421335    2.576550   -1.148610
 H   -2.804741   -1.230328    1.495393
 H   -2.633289    0.466495    1.949981
 H   -1.240974   -0.611340    2.005410
 H    2.038938   -0.209972    2.472418
 H    3.700191   -0.739372    2.230205
 H    2.357548   -1.865939    1.991726
 H   -5.852118    0.833532    0.179884
 H   -4.864196    0.200917    1.518083
 H   -0.372604   -2.773192    1.168800
 H   -3.149176   -0.346687   -2.485175
 H   -6.067054   -1.725149   -0.008187
