51 
2va7_ligand_xtb.xyz
 C   -1.699805   -3.473366   -0.721353
 O   -3.072701   -3.174150   -0.612816
 C   -3.432779   -1.885597   -0.366174
 C   -4.804477   -1.637487   -0.282001
 C   -5.262930   -0.363685   -0.017661
 C   -4.371968    0.680152    0.167404
 C   -3.006129    0.445446    0.073756
 C   -2.537516   -0.837860   -0.196502
 C   -2.034902    1.532073    0.277084
 C   -2.128198    2.369691    1.384417
 C   -1.181071    3.354520    1.589634
 C   -0.130558    3.509658    0.701255
 C   -0.022909    2.693562   -0.418221
 C    1.108780    2.890652   -1.390737
 C    1.885481    1.624163   -1.776166
 C    2.477436    0.792733   -0.620134
 C    3.050343    1.673003    0.497577
 C    3.571435   -0.122914   -1.177357
 C    4.030585   -1.136329   -0.153057
 O    5.184398   -1.494127   -0.058115
 N    3.040888   -1.648805    0.640180
 C    3.392971   -2.694570    1.582511
 C    1.695998   -1.225722    0.584963
 N    1.448341   -0.094389   -0.118392
 N    0.715363   -1.830605    1.117920
 C   -0.990536    1.717290   -0.623993
 H   -1.643993   -4.554393   -0.840143
 H   -1.144405   -3.168204    0.169969
 H   -1.257880   -2.990023   -1.599470
 H   -5.486231   -2.461782   -0.420350
 H   -6.325538   -0.181805    0.047978
 H   -4.733108    1.677932    0.366848
 H   -1.473359   -1.012082   -0.220171
 H   -2.934546    2.232070    2.088914
 H   -1.253963    4.001964    2.451271
 H    0.607678    4.280198    0.875392
 H    1.800644    3.628974   -0.982875
 H    0.699609    3.310257   -2.315473
 H    2.707488    1.934686   -2.424848
 H    1.242544    0.962684   -2.359800
 H    2.250674    2.193971    1.017215
 H    3.585055    1.059950    1.220172
 H    3.745810    2.400306    0.086714
 H    4.442349    0.445016   -1.503855
 H    3.181315   -0.678114   -2.035488
 H    4.479682   -2.755085    1.605993
 H    2.991823   -3.659539    1.264101
 H    3.017870   -2.449236    2.577006
 H    0.531064    0.299921    0.039917
 H    0.943808   -2.689082    1.601013
 H   -0.955613    1.101749   -1.512003
