31 
2vc9_ligand_xtb.xyz
 C   -3.974786   -0.903271   -0.632354
 C   -2.521076   -0.726696   -0.336608
 O   -1.656609   -1.303068   -0.998175
 N   -2.215666    0.083583    0.695847
 C   -0.868948    0.494081    1.083260
 C    0.034242   -0.708770    1.401578
 N    0.626008   -1.198066    0.147034
 C    1.625087   -0.269456   -0.432179
 C    3.017126   -0.696344    0.054971
 O    3.050709   -2.106353   -0.023069
 C    1.300227    1.189904   -0.093864
 O    1.850239    1.964513   -1.114239
 C   -0.229019    1.402498   -0.010416
 O   -0.403033    2.761582    0.291280
 H   -4.613360   -0.296874    0.001494
 H   -4.154771   -0.658126   -1.677817
 H   -4.232880   -1.954228   -0.510489
 H   -2.979627    0.513570    1.193275
 H   -0.972520    1.099629    1.987711
 H   -0.560196   -1.503979    1.856414
 H    0.818440   -0.417628    2.101160
 H    1.127534   -2.091745    0.259162
 H   -0.243694   -1.325229   -0.509351
 H    1.592977   -0.370132   -1.521488
 H    3.181253   -0.371907    1.092423
 H    3.771931   -0.225691   -0.578817
 H    3.960294   -2.418827   -0.026117
 H    1.730370    1.479727    0.877603
 H    1.620245    2.891028   -0.962496
 H   -0.660003    1.161081   -0.991836
 H   -1.285949    3.065649    0.056319
