44 
2vcb_ligand_xtb.xyz
 C   -1.854937    4.326426    0.585091
 C   -2.690612    3.139882    0.173114
 O   -3.898903    3.203798    0.022824
 N   -1.963754    2.014124    0.018421
 C   -2.404283    0.730716   -0.507587
 C   -3.696220    0.189198    0.136073
 O   -4.848029    0.781058   -0.383462
 C   -3.821913   -1.309507   -0.184392
 O   -4.988725   -1.835042    0.377319
 C   -2.627055   -2.067425    0.376304
 C   -2.643975   -3.547161   -0.025238
 O   -1.595497   -4.260238    0.565338
 O   -1.390773   -1.531457   -0.096482
 C   -1.241784   -0.230680   -0.340461
 N   -0.105280    0.305773   -0.497760
 O    1.031371   -0.502079   -0.367924
 C    2.165230    0.267439   -0.212105
 O    2.154111    1.458831   -0.092773
 N    3.222653   -0.579456   -0.201601
 C    4.582233   -0.275095   -0.056621
 C    5.048217    1.029823    0.060340
 C    6.405503    1.260962    0.194349
 C    7.304814    0.208646    0.213499
 C    6.839456   -1.090626    0.097352
 C    5.486002   -1.334341   -0.037227
 H   -2.505972    5.171448    0.789034
 H   -1.167932    4.586519   -0.216915
 H   -1.274019    4.089720    1.472696
 H   -0.953959    2.081127    0.070219
 H   -2.607698    0.825263   -1.588816
 H   -3.641718    0.326417    1.229987
 H   -4.748252    1.758941   -0.289492
 H   -3.843969   -1.420099   -1.283137
 H   -5.689902   -1.189252    0.206310
 H   -2.635581   -1.997496    1.472802
 H   -3.575757   -3.992640    0.325237
 H   -2.598729   -3.615251   -1.121811
 H   -0.769492   -3.812605    0.344602
 H    2.996158   -1.559411   -0.307228
 H    4.349830    1.849183    0.045198
 H    6.761320    2.276327    0.283537
 H    8.362127    0.398102    0.317805
 H    7.531758   -1.918968    0.111065
 H    5.123962   -2.348901   -0.128187
