51 
2vcg_ligand_xtb.xyz
 C    2.211681    0.995151   -0.727172
 C    3.488672    1.229752   -0.250354
 C    4.418055    0.205146   -0.287205
Br    6.174581    0.510987    0.388535
 C    4.094097   -1.038226   -0.802208
 C    2.813817   -1.256941   -1.274843
 C    1.859081   -0.247677   -1.238902
 C    0.449938   -0.512294   -1.683098
 C   -0.310572   -1.324047   -0.615361
 C   -0.086692   -0.690272    0.755568
 O   -0.786296    0.177553    1.229232
 O    0.973838   -1.192226    1.356766
 C    1.322683   -0.644422    2.623925
 N   -1.715078   -1.389871   -0.931424
 C   -2.464881   -2.461978   -0.565289
 O   -1.976239   -3.428998   -0.020807
 C   -3.938209   -2.356135   -0.899941
 C   -4.754489   -2.180738    0.387104
 C   -4.609704   -0.795600    1.019624
 C   -5.322361    0.293700    0.217099
 C   -5.422558    1.629086    0.954829
 C   -4.065781    2.305532    1.188033
 C   -3.406059    2.606093   -0.134042
 O   -3.755842    3.468164   -0.923285
 N   -2.408437    1.756258   -0.456601
 O   -1.713292    2.041813   -1.649827
 H    1.480132    1.789590   -0.700276
 H    3.759029    2.195844    0.147694
 H    4.832249   -1.824862   -0.828827
 H    2.554097   -2.226041   -1.673331
 H   -0.073793    0.431675   -1.844495
 H    0.439473   -1.080496   -2.614490
 H    0.066762   -2.350923   -0.561205
 H    2.226255   -1.159852    2.936842
 H    1.504875    0.427972    2.532199
 H    0.517397   -0.810361    3.341397
 H   -2.153479   -0.550068   -1.276305
 H   -4.230865   -3.295964   -1.371137
 H   -4.127608   -1.540381   -1.596023
 H   -4.421687   -2.939599    1.098247
 H   -5.808504   -2.365777    0.168781
 H   -5.049009   -0.829524    2.019509
 H   -3.550674   -0.559200    1.132345
 H   -6.337583   -0.046896   -0.001736
 H   -4.818923    0.454261   -0.737333
 H   -6.044391    2.307829    0.367470
 H   -5.908875    1.475546    1.920360
 H   -3.419954    1.676194    1.798689
 H   -4.230360    3.253751    1.702146
 H   -1.842997    1.232325    0.210955
 H   -2.204964    2.818459   -1.997246
