66 
2vci_ligand_dft.xyz
 C   -5.201146   -3.325246   -0.415531
 C   -6.361935   -2.847966   -1.282306
 O   -6.929260   -1.676152   -0.759563
 C   -5.997546   -0.623259   -0.731224
 C   -4.817809   -0.957974    0.171294
 N   -4.173318   -2.236693   -0.296760
 C   -2.979703   -2.651533    0.553479
 C   -1.891098   -1.630230    0.448050
 C   -1.062332   -1.611622   -0.676702
 C   -0.142253   -0.586292   -0.849228
 C   -1.757845   -0.630261    1.413900
 C   -0.839421    0.393425    1.239655
 C   -0.034091    0.437806    0.097294
 C    0.933382    1.530289   -0.097760
 C    0.716711    2.937820   -0.085942
 C   -0.571449    3.682677    0.114738
 O   -1.618569    3.087832    0.348942
 N   -0.463277    5.020403    0.002218
 C   -1.593600    5.908190    0.223387
 C   -1.801798    6.242104    1.698218
 N    1.822397    3.593183   -0.337398
 O    2.797361    2.652774   -0.504344
 C    2.275008    1.423182   -0.370249
 C    3.150970    0.257996   -0.464342
 C    2.926672   -0.828295    0.392971
 C    3.657003   -2.002524    0.348050
 C    3.401992   -3.170044    1.284231
 C    4.410032   -3.168907    2.443699
 C    1.964918   -3.209193    1.813875
 C    4.693724   -2.064913   -0.600597
 O    5.422363   -3.205450   -0.638846
 C    4.951323   -1.003306   -1.464722
 C    4.181175    0.157990   -1.409195
 O    4.372365    1.190341   -2.258550
 H   -4.712701   -4.206712   -0.837971
 H   -5.539580   -3.547828    0.599373
 H   -7.140248   -3.612817   -1.293128
 H   -6.021230   -2.690774   -2.319431
 H   -6.509920    0.255744   -0.337376
 H   -5.644853   -0.385657   -1.748451
 H   -5.149143   -1.136102    1.197539
 H   -4.057786   -0.174427    0.161979
 H   -3.797862   -2.050507   -1.233770
 H   -2.674028   -3.630697    0.174014
 H   -3.358540   -2.769850    1.571777
 H   -1.128650   -2.402402   -1.422271
 H    0.498867   -0.572578   -1.724454
 H   -2.382019   -0.645213    2.304135
 H   -0.758317    1.179443    1.980281
 H    0.457622    5.406921   -0.155360
 H   -2.480998    5.415582   -0.181910
 H   -1.418771    6.815610   -0.361219
 H   -1.999950    5.328944    2.266695
 H   -0.917981    6.730663    2.120131
 H   -2.655757    6.916142    1.818268
 H    2.136323   -0.734564    1.129277
 H    3.567580   -4.085653    0.704360
 H    5.437175   -3.202475    2.070313
 H    4.294629   -2.264056    3.051400
 H    4.254549   -4.038226    3.091823
 H    1.768961   -2.392092    2.518436
 H    1.232624   -3.139292    1.000858
 H    1.794012   -4.146413    2.353233
 H    6.113042   -3.136993   -1.309283
 H    5.752409   -1.082319   -2.197727
 H    5.120542    1.006095   -2.839319
