25 
2vcx_ligand_xtb.xyz
 C    3.984438    0.992786    0.006577
 C    2.898560    0.083868   -0.000991
 C    1.497671    0.387973   -0.009499
 C    5.101808    0.199112    0.015198
 N   -0.450479    1.609832   -0.024025
 C   -0.940201    0.411106   -0.012849
 C   -2.351136    0.106077   -0.006070
 C   -3.278519    1.151080    0.017367
 C   -4.631338    0.877714    0.027975
 C   -5.079420   -0.434284    0.014734
 C   -4.165356   -1.475845   -0.009464
 C   -2.810052   -1.211126   -0.019634
 N    3.346614   -1.166793    0.002827
 S    0.289977   -0.851491    0.000447
 C    0.889740    1.618991   -0.023009
 N    4.669223   -1.080018    0.012388
 H    3.937208    2.061099    0.006522
 H    6.144039    0.445947    0.023254
 H   -2.912242    2.165290    0.028028
 H   -5.343070    1.689900    0.047254
 H   -6.138678   -0.645075    0.023516
 H   -4.512193   -2.498625   -0.020140
 H   -2.096037   -2.021945   -0.038429
 H    1.403625    2.563218   -0.033060
 H    5.223041   -1.921818    0.015560
