17 
2vd7_ligand_dft.xyz
 O    3.553858    0.218968    0.377720
 C    2.594701   -0.422375    0.042310
 O    2.713551   -1.714168   -0.306133
 C    1.210950    0.175337   -0.008567
 C    1.103175    1.563947   -0.074101
 C   -0.161053    2.139784   -0.112829
 C    0.042723   -0.579410    0.041403
 C   -1.172314    0.094164    0.004478
 N   -1.284010    1.420107   -0.076750
 C   -2.467806   -0.680988    0.055253
 O   -3.555733    0.083621    0.016595
 O   -2.497611   -1.883810    0.121242
 H    1.885858   -2.061280   -0.664425
 H    2.000250    2.172199   -0.090905
 H   -0.280131    3.217551   -0.173135
 H    0.019123   -1.660780    0.139301
 H   -3.251807    1.011910   -0.036662
