50 
2ves_ligand_xtb.xyz
 O    4.829145   -1.930653   -0.065485
 C    4.162027   -0.947595   -0.346989
 N    4.715905    0.174112   -0.815718
 O    6.109124    0.247060   -0.879769
 C    2.639896   -0.849838   -0.204134
 C    1.999452   -2.235236   -0.044262
 C    0.506726   -2.105926   -0.111541
 C   -0.145338   -2.206294   -1.356522
 C   -1.500148   -2.071260   -1.453365
 C   -2.283836   -1.819274   -0.308597
 C   -3.687358   -1.708945   -0.366364
 C   -1.632900   -1.684903    0.944684
 C   -2.411470   -1.421594    2.090575
 C   -3.770994   -1.316046    2.002010
 C   -4.415158   -1.466778    0.764464
 C   -0.233141   -1.834299    1.008951
 N    2.299549    0.000582    0.916627
 S    1.976277    1.610264    0.635599
 O    2.611462    2.000470   -0.601335
 O    2.313349    2.315757    1.833448
 C    0.212223    1.587602    0.408320
 C   -0.597549    1.738753    1.539126
 C   -1.956065    1.731795    1.395990
 C   -2.545674    1.565436    0.123607
 C   -3.943639    1.583194   -0.058263
 C   -1.710746    1.386524   -1.012181
 C   -0.311155    1.408417   -0.836524
 C   -2.303617    1.210826   -2.279309
 C   -3.662973    1.227640   -2.419358
 C   -4.488767    1.422688   -1.301340
 H    4.235443    1.063357   -0.926604
 H    6.395327   -0.647589   -0.602946
 H    2.235065   -0.353421   -1.090930
 H    2.372419   -2.878872   -0.841600
 H    2.315499   -2.655837    0.910622
 H    0.445212   -2.407652   -2.239117
 H   -1.995112   -2.162613   -2.409742
 H   -4.177545   -1.822138   -1.322720
 H   -1.911521   -1.313107    3.042400
 H   -4.361609   -1.121313    2.885443
 H   -5.491305   -1.389795    0.714027
 H    0.253632   -1.742610    1.968964
 H    2.814833   -0.171187    1.764570
 H   -0.116653    1.880369    2.493264
 H   -2.600407    1.860165    2.252784
 H   -4.575883    1.728421    0.805122
 H    0.344453    1.312440   -1.688020
 H   -1.661070    1.067693   -3.135395
 H   -4.112333    1.095501   -3.392482
 H   -5.560450    1.440712   -1.432303
