59 
2vfz_ligand_dft.xyz
 N   -4.930236   -0.698102   -0.577382
 C   -6.139524   -1.140102   -1.100394
 N   -6.418687   -2.458999   -0.850906
 C   -5.640686   -3.389341   -0.130358
 C   -4.395392   -2.822194    0.363690
 C   -4.087474   -1.534327    0.126488
 O   -6.881667   -0.392899   -1.719981
 O   -6.035054   -4.526740    0.016996
 C   -4.636715    0.711137   -0.866667
 C   -5.521826    1.670988   -0.053149
 O   -5.811490    2.835961   -0.791766
 C   -4.601437    2.107617    1.093122
 C   -3.220013    2.076292    0.423795
 O   -3.298832    0.998024   -0.528136
 O   -4.934383    3.337131    1.654125
 C   -2.089080    1.802017    1.391610
 O   -0.841681    1.680832    0.702357
 P   -0.429436    0.270894    0.075160
 O   -0.965597   -0.896273    0.827331
 O   -0.764326    0.355155   -1.471498
 O    1.160138    0.308476    0.031957
 P    2.082474   -0.405157    1.205138
 O    2.097131    0.349904    2.462785
 O    1.563925   -1.903105    1.197604
 O    3.465146   -0.563425    0.444817
 C    4.618851    0.213711    0.814926
 C    4.816426    1.299396   -0.242078
 C    5.152650    0.706673   -1.608153
 C    6.329672   -0.261768   -1.437545
 C    6.052702   -1.280791   -0.328909
 C    7.247992   -2.159478    0.015696
 F    3.653545    2.038157   -0.304309
 O    5.464689    1.699017   -2.548743
 O    7.449557    0.561488   -1.172207
 O    5.706493   -0.634105    0.901230
 O    8.332671   -1.395397    0.522628
 H   -7.297640   -2.798591   -1.221213
 H   -3.719784   -3.463367    0.912120
 H   -3.149997   -1.098572    0.454432
 H   -4.790266    0.869378   -1.936512
 H   -6.433518    1.183236    0.299078
 H   -6.529936    2.631054   -1.403677
 H   -4.634833    1.353773    1.888821
 H   -3.040784    3.011059   -0.119172
 H   -5.311795    3.866922    0.934153
 H   -2.280768    0.891089    1.967719
 H   -1.987655    2.646558    2.075390
 H   -1.708580    0.587905   -1.567862
 H    0.582383   -1.919802    1.246439
 H    4.456772    0.643407    1.804953
 H    5.628304    1.957100    0.084142
 H    4.272757    0.174059   -1.981558
 H    6.471737   -0.812782   -2.380655
 H    5.222711   -1.924544   -0.648450
 H    7.613168   -2.662623   -0.883320
 H    6.939955   -2.922288    0.741154
 H    6.373985    1.971408   -2.353397
 H    8.115543    0.026882   -0.706218
 H    8.002578   -0.952359    1.317542
