28 
2vgc_ligand_xtb.xyz
 C    0.020175   -1.044946    0.575515
 C   -0.618073   -1.582884   -0.534983
 C   -1.941933   -1.294946   -0.804408
 C   -2.638592   -0.452112    0.045645
 C   -2.025706    0.093435    1.160312
 C   -0.700233   -0.206537    1.416392
 C    1.481928   -1.285075    0.808141
 C    2.316792   -0.268579   -0.024559
 C    0.673552    3.134572    0.136095
 C    1.054706    1.794467   -0.459213
 N    1.912667    1.084540    0.308945
 O    0.648196    1.396954   -1.530701
 O    4.567327   -1.399486   -0.540636
 B    3.886129   -0.537821    0.196339
Cl   -4.293799   -0.079638   -0.285643
 H   -0.071893   -2.231570   -1.203985
 H   -2.429621   -1.711559   -1.671527
 H   -2.578995    0.748561    1.815375
 H   -0.221200    0.218064    2.287569
 H    1.758731   -2.296498    0.507150
 H    1.725220   -1.161230    1.865192
 H    2.020745   -0.392015   -1.073862
 H    0.058152    2.976811    1.019478
 H    0.102584    3.700141   -0.593835
 H    1.561202    3.695500    0.418558
 H    2.198142    1.446879    1.203754
 H    4.107922   -1.839662   -1.259209
 H    4.484407   -0.006365    1.054038
