27 
2vgp_ligand_xtb.xyz
 N    2.443190    2.109279    0.142536
 C    3.621910    1.453205    0.121435
 C    3.526180    0.103570    0.025503
 S    1.853119   -0.392963   -0.045656
 C    1.424634    1.310773    0.064024
 N    0.168050    1.809277    0.081986
 C   -1.083524    1.219008    0.017449
 C   -1.299036   -0.145318   -0.164086
 C   -2.585504   -0.649027   -0.208038
 C   -2.191777    2.065589    0.129490
 C   -3.468892    1.557642    0.074683
 C   -3.686853    0.189177   -0.077332
 C   -5.100150   -0.284983   -0.140634
 O   -6.001022    0.422207   -0.549455
 N   -5.302779   -1.550204    0.298606
 C   -6.609257   -2.158957    0.315410
Br    4.918241   -1.151112   -0.034720
 H    4.537659    2.011391    0.179909
 H    0.164213    2.818634    0.172852
 H   -0.471342   -0.824090   -0.282834
 H   -2.715386   -1.707634   -0.379682
 H   -2.036545    3.127566    0.255168
 H   -4.326346    2.208800    0.147717
 H   -4.539138   -2.069474    0.698854
 H   -6.922309   -2.384550    1.337074
 H   -7.303977   -1.445366   -0.124944
 H   -6.612635   -3.079129   -0.272078
