42 
2vhj_ligand_xtb.xyz
 P    3.224150   -0.932808    0.356755
 O    3.653346   -1.680798    1.687231
 O    3.938537   -1.370943   -0.845016
 O    3.243004    0.569330    0.703444
 P    0.961026   -0.966400   -1.147881
 O    1.631370   -1.981854   -2.151116
 O    1.048581    0.449438   -1.463050
 O    1.647782   -1.364230    0.272625
 O   -0.527807   -1.451393   -0.989134
 C   -0.950729   -2.663196   -0.375444
 C   -2.242736   -2.389257    0.410079
 O   -2.002336   -1.514293    1.505024
 C   -3.331262   -1.703874   -0.431691
 O   -4.596397   -2.026187    0.068566
 C   -2.998062   -0.216789   -0.235195
 O   -4.130274    0.590616   -0.329817
 C   -2.358415   -0.202930    1.178881
 N   -1.197913    0.659827    1.184363
 C    0.013292    0.415960    1.742363
 N    0.911444    1.313551    1.445849
 C    0.271161    2.212591    0.629617
 C    0.691364    3.318979   -0.131063
 N    1.963687    3.750868   -0.161886
 N   -0.236403    3.984312   -0.825058
 C   -1.482110    3.553199   -0.829557
 N   -1.982419    2.478752   -0.239894
 C   -1.063609    1.820379    0.472147
 H    4.094374   -2.506898    1.495346
 H    2.371826    0.921509    1.122114
 H    2.596798   -1.876062   -2.086955
 H   -1.133234   -3.410146   -1.152327
 H   -0.180509   -3.020366    0.310764
 H   -2.616801   -3.327980    0.829502
 H   -3.253775   -1.988520   -1.489363
 H   -5.150318   -1.238159   -0.032872
 H   -2.239419    0.073386   -0.969404
 H   -3.805055    1.507534   -0.383232
 H   -3.083354    0.167024    1.922937
 H    0.184046   -0.434587    2.371643
 H    2.188350    4.430894   -0.869728
 H    2.683067    3.110345    0.131783
 H   -2.182221    4.141130   -1.407799
