47 
2vhq_ligand_xtb.xyz
 P    3.770378   -0.872874   -0.494015
 O    2.908036   -0.286428   -1.531118
 O    5.144645   -0.130403   -0.340197
 O    4.230639   -2.347968   -0.617647
 P    2.020847    0.414891    1.104265
 O    1.668969    0.249852    2.617219
 O    2.520475    1.708889    0.657487
 O    3.099070   -0.753088    0.973668
 P    0.644704   -1.353193   -0.777673
 O    1.593839   -2.449494   -0.558666
 O    0.465846   -0.702162   -2.180950
 O    0.777407   -0.153136    0.284631
 O   -0.871434   -1.761683   -0.569167
 C   -1.283890   -2.667509    0.444864
 C   -2.752219   -2.390268    0.809021
 O   -2.876997   -1.259617    1.661243
 C   -3.626788   -2.077188   -0.415429
 O   -4.955519   -2.430759   -0.159923
 C   -3.451693   -0.555418   -0.545121
 O   -4.562681    0.054773   -1.128074
 C   -3.223352   -0.121317    0.925935
 N   -2.170517    0.864357    1.003339
 C   -1.202232    0.959160    1.950888
 N   -0.302570    1.868279    1.699302
 C   -0.691555    2.427748    0.505492
 C   -0.139979    3.397161   -0.356634
 N    1.025492    4.018948   -0.114469
 N   -0.841316    3.731682   -1.446940
 C   -1.978334    3.118814   -1.709867
 N   -2.557924    2.139824   -1.034348
 C   -1.874001    1.813585    0.067323
 H    5.037105    0.818520   -0.423182
 H    3.441115   -2.904597   -0.662407
 H    1.166184    1.023540    2.898466
 H    1.320351   -0.366800   -2.483683
 H   -0.663489   -2.550507    1.337252
 H   -1.179562   -3.687930    0.066402
 H   -3.153017   -3.243563    1.363789
 H   -3.254889   -2.593797   -1.309371
 H   -5.512714   -1.773197   -0.601134
 H   -2.543416   -0.357891   -1.121779
 H   -4.284114    0.957661   -1.359955
 H   -4.149174    0.306672    1.345906
 H   -1.211362    0.323434    2.814357
 H    1.686244    3.502006    0.451489
 H    1.389657    4.569439   -0.876391
 H   -2.494115    3.444192   -2.603508
