43 
2vi5_ligand_xtb.xyz
 O   -1.018415    3.677567   -0.102570
 C   -0.149959    2.851052   -0.126068
 N    1.199858    3.274313    0.132069
 C    2.276314    2.471295    0.188817
 O    3.324933    2.757255    0.725811
 N   -0.337160    1.532656   -0.327645
 C    0.633978    0.685917   -0.475269
 C    2.097141    1.114287   -0.509704
 N    3.086399    0.239617    0.091386
 C    3.442152   -1.011190   -0.261345
 C    4.740361   -1.473387    0.365102
 C    4.897316   -2.986693    0.285525
 O    2.770055   -1.718615   -0.997559
 N    0.368520   -0.588486   -0.697647
 C   -0.988433   -1.078817   -0.766128
 C   -1.523046   -1.390246    0.639962
 O   -0.848986   -2.504683    1.201311
 C   -3.012587   -1.778663    0.635421
 O   -3.206694   -2.937059   -0.146551
 C   -3.972915   -0.708161    0.084928
 O   -3.852538   -0.581963   -1.314599
 C   -3.780766    0.681419    0.708364
 O   -4.879031    1.507051    0.429216
 H    1.288430    4.208163    0.518396
 H    2.334116    1.274207   -1.577515
 H    3.735833    0.784922    0.656560
 H    5.554201   -0.987164   -0.180033
 H    4.784252   -1.133095    1.401261
 H    5.873468   -3.285060    0.657325
 H    4.794305   -3.318163   -0.744179
 H    4.131337   -3.480350    0.878522
 H    1.160579   -1.208004   -0.923927
 H   -1.621187   -0.314157   -1.219918
 H   -0.999102   -1.987510   -1.369088
 H   -1.386976   -0.504612    1.274145
 H    0.099757   -2.341199    1.171565
 H   -3.287863   -1.984377    1.681540
 H   -2.562327   -3.588366    0.157801
 H   -4.993345   -1.048851    0.326108
 H   -3.882755   -1.477270   -1.675577
 H   -2.852652    1.131620    0.335310
 H   -3.734336    0.592987    1.795710
 H   -4.930982    1.602279   -0.529247
