31 
2vin_ligand_dft.xyz
 C   -3.922780   -0.476536    0.971194
 C   -2.811457   -0.420757   -0.058036
 N   -2.832777    0.891973   -0.819570
 C   -1.400728   -0.525774    0.512077
 O   -0.539745   -0.207633   -0.561845
 C    0.809785   -0.048020   -0.215160
 C    1.627687   -1.175375   -0.158824
 C    1.087206   -2.556235   -0.425478
 C    2.972346   -0.968103    0.156157
 C    3.463176    0.308587    0.399288
 C    2.617419    1.410905    0.326274
 C    1.268852    1.250126    0.014746
 C    0.338100    2.431381   -0.092401
 H   -4.909712   -0.391733    0.507539
 H   -3.883912   -1.440110    1.486008
 H   -3.814013    0.309634    1.726228
 H   -2.939045   -1.185963   -0.828415
 H   -2.908828    1.693753   -0.186164
 H   -3.593903    0.947941   -1.500464
 H   -1.914389    0.951677   -1.295777
 H   -1.235711   -1.544075    0.881180
 H   -1.258020    0.172584    1.349821
 H    1.879118   -3.218421   -0.783630
 H    0.294299   -2.537757   -1.178389
 H    0.679534   -3.009355    0.486820
 H    3.641134   -1.822767    0.201925
 H    4.512394    0.448646    0.637071
 H    3.008490    2.407930    0.506507
 H    0.864446    3.362795    0.127663
 H   -0.075827    2.528124   -1.104458
 H   -0.496285    2.363145    0.619253
