25 
2vio_ligand_xtb.xyz
 N    3.755420   -1.146614    0.444635
 C    3.267651   -0.014623    1.272057
 C    2.733907    1.068874    0.325227
 O    1.909187    0.474273   -0.660357
 C    0.580228    0.291856   -0.379340
 C   -0.321249    1.341360   -0.176155
Cl    0.225011    2.979573   -0.238040
 C   -1.668868    1.085718    0.042736
 C   -2.140856   -0.219420    0.055195
 C   -1.260997   -1.277424   -0.154086
 C    0.074250   -1.012719   -0.370338
Cl    1.156206   -2.338234   -0.670052
 C   -3.578561   -0.585897    0.346594
 O   -3.851782   -1.645010    0.828930
 O   -4.504043    0.318523    0.044319
 H    4.148944   -1.900410    1.015396
 H    2.915913   -1.523236   -0.098863
 H    4.460054   -0.824041   -0.228265
 H    4.070534    0.389024    1.888842
 H    2.469444   -0.386280    1.916936
 H    3.555047    1.534668   -0.226029
 H    2.212642    1.839641    0.896573
 H   -2.323626    1.925826    0.222852
 H   -1.645933   -2.286013   -0.129934
 H   -4.171580    1.105701   -0.406846
