46 
2vip_ligand_xtb.xyz
 C   -5.628231    1.770327   -1.708257
 C   -5.899073    1.684751   -0.207234
 C   -7.144171    2.478331    0.174290
 O   -6.156629    0.338296    0.187536
 C   -5.153549   -0.543702    0.353007
 C   -5.544771   -1.834757    0.726737
 C   -4.601248   -2.816121    0.938981
 C   -3.253296   -2.540111    0.787778
 C   -2.857913   -1.259448    0.417461
 N   -1.476715   -1.031920    0.269064
 C   -0.834779    0.112913   -0.045609
 O   -1.350014    1.194632   -0.239561
 C    0.667915   -0.015498   -0.136364
 C    1.386975    1.162950    0.054307
 C    2.758502    1.144555   -0.054265
Cl    3.666992    2.605867    0.193031
 C    3.461135   -0.018180   -0.383324
 O    4.816442    0.087347   -0.546981
 C    5.673949   -0.716503    0.251313
 C    6.866573    0.185977    0.567359
 N    6.354908    1.437689    1.184072
 C    2.725673   -1.186158   -0.587625
Cl    3.537894   -2.643313   -1.034326
 C    1.343237   -1.184391   -0.461625
 C   -3.798715   -0.261270    0.197211
 H   -4.759420    1.177914   -1.984239
 H   -6.489428    1.396445   -2.256644
 H   -5.450267    2.803748   -1.991751
 H   -5.037906    2.073207    0.354316
 H   -8.007006    2.086576   -0.357140
 H   -7.328931    2.394011    1.241821
 H   -7.012297    3.525209   -0.081918
 H   -6.597050   -2.035583    0.843559
 H   -4.914354   -3.807917    1.225859
 H   -2.515723   -3.312078    0.954019
 H   -0.914993   -1.847530    0.468682
 H    0.840994    2.067819    0.277121
 H    6.010772   -1.599445   -0.299910
 H    5.163515   -1.043592    1.163320
 H    7.360483    0.445033   -0.369742
 H    7.574303   -0.312697    1.228482
 H    7.048285    2.190292    1.152265
 H    5.479748    1.748209    0.646355
 H    6.074258    1.286811    2.158648
 H    0.814223   -2.101917   -0.667891
 H   -3.457283    0.717498   -0.087943
