56 
2viq_ligand_xtb.xyz
 C    2.603696    4.000817   -0.303502
 C    1.384358    4.906440   -0.226643
 C    5.271681   -2.897120    0.010237
 C    6.497568   -3.794617   -0.045363
 C    4.457748    1.824062   -0.322259
 C    5.302313    0.730286   -0.305237
 C    4.801048   -0.560754   -0.147480
 C    3.428104   -0.742461   -0.007802
 C    2.579975    0.353977   -0.028630
 N    1.189016    0.252614    0.097305
 C    0.423229   -0.844784    0.281313
 O    0.833877   -1.987592    0.355025
 C   -1.051930   -0.564518    0.367971
 C   -1.608169    0.661827    0.704234
 C   -2.985354    0.830732    0.770211
 C   -3.551636    2.158912    1.175691
 C   -3.804161   -0.259465    0.476938
 O   -5.208753   -0.112381    0.525549
 C   -5.793648    0.688120   -0.484032
 C   -6.481803   -0.258754   -1.489526
 N   -7.077447   -1.323053   -0.643948
 C   -3.272741   -1.519902    0.198739
 C   -4.143692   -2.726604   -0.015716
 O    5.713604   -1.559963   -0.146368
 C   -1.896038   -1.647237    0.148176
 O    2.153095    2.663797   -0.184305
 C    3.089622    1.654163   -0.184625
 H    3.301530    4.235020    0.510584
 H    3.119213    4.138288   -1.262944
 H    0.689981    4.668674   -1.028728
 H    0.879399    4.774107    0.726983
 H    1.692115    5.943194   -0.321393
 H    4.757189   -3.011738    0.973714
 H    4.571388   -3.158063   -0.794591
 H    7.000711   -3.677532   -1.001135
 H    7.191591   -3.524601    0.745547
 H    6.201674   -4.832266    0.077902
 H    4.882123    2.807018   -0.445361
 H    6.366424    0.860656   -0.413676
 H    2.994792   -1.718691    0.118547
 H    0.742612    1.155987    0.017021
 H   -0.986802    1.507788    0.957468
 H   -2.892935    2.631463    1.899368
 H   -3.632869    2.829767    0.319755
 H   -4.534074    2.047012    1.627563
 H   -5.058856    1.314930   -0.989229
 H   -6.538785    1.330287   -0.003532
 H   -5.738655   -0.709564   -2.148627
 H   -7.228859    0.257856   -2.088572
 H   -7.191986   -2.222204   -1.117784
 H   -6.341422   -1.372069    0.131170
 H   -7.972313   -1.033354   -0.236761
 H   -4.915005   -2.793961    0.751467
 H   -4.599405   -2.717407   -1.007002
 H   -3.533446   -3.622441    0.050792
 H   -1.441910   -2.604699   -0.057444
