57 
2viv_ligand_dft.xyz
 N   -4.856613   -0.872178    0.181536
 C   -4.642236   -2.080914   -0.620161
 C   -5.336245   -3.287334    0.003888
 C   -6.827419   -3.010131    0.192032
 C   -7.015826   -1.722220    0.992107
 C   -6.267838   -0.551681    0.354379
 C   -3.959953    0.183325   -0.003411
 C   -4.393509    1.496645   -0.235309
 C   -3.452770    2.510053   -0.366059
Cl   -4.006551    4.143270   -0.654897
 C   -2.092059    2.272915   -0.298591
 C   -1.665908    0.958316   -0.076062
 N   -0.268736    0.760796    0.020442
 C    0.422910   -0.416147    0.021659
 O   -0.076452   -1.524228   -0.075365
 C    1.920998   -0.268379    0.141711
 C    2.542108    0.782447    0.812253
 C    3.932542    0.852009    0.922709
 C    4.602504    1.982987    1.658869
 C    4.667350   -0.174198    0.333915
 O    6.063826   -0.157914    0.445206
 C    6.730951    0.602557   -0.542371
 C    8.201953    0.252799   -0.366536
 N    8.277466   -1.249392   -0.271031
 C    4.082298   -1.258321   -0.325276
 C    4.926930   -2.366638   -0.900176
 C    2.695834   -1.290449   -0.405588
 C   -2.579286   -0.073517    0.082730
 H   -3.572342   -2.270262   -0.714075
 H   -5.033592   -1.920891   -1.641645
 H   -4.872068   -3.500703    0.974668
 H   -5.179434   -4.161642   -0.637513
 H   -7.318173   -3.850009    0.694757
 H   -7.303932   -2.902651   -0.792464
 H   -6.635828   -1.864304    2.011172
 H   -8.077230   -1.463128    1.070690
 H   -6.739209   -0.291650   -0.612092
 H   -6.348570    0.320696    1.008417
 H   -5.442957    1.737336   -0.340393
 H   -1.385739    3.088560   -0.415496
 H    0.279399    1.605032   -0.047106
 H    1.949350    1.549061    1.305041
 H    4.855030    2.807434    0.980485
 H    3.939500    2.390956    2.425712
 H    5.522638    1.652549    2.148375
 H    6.592815    1.679053   -0.394521
 H    6.370403    0.341550   -1.546781
 H    8.582942    0.640274    0.579495
 H    8.829661    0.593623   -1.189973
 H    9.150871   -1.584798    0.142814
 H    7.471885   -1.525605    0.319245
 H    8.158562   -1.701402   -1.182295
 H    5.625899   -1.997842   -1.663666
 H    5.501185   -2.879164   -0.117626
 H    4.300375   -3.119611   -1.382660
 H    2.187756   -2.121760   -0.884238
 H   -2.221623   -1.068482    0.299291
