64 
2viw_ligand_dft.xyz
 N    4.842355   -1.311391    0.084814
 C    6.238510   -0.975957    0.333010
 C    7.009885   -2.198558    0.829036
 C    6.882590   -3.370733   -0.142808
 C    5.406126   -3.663167   -0.408454
 C    4.686537   -2.403818   -0.880507
 C    3.924107   -0.257518   -0.003003
 C    4.331103    1.079736   -0.083870
 C    3.383387    2.098579   -0.113960
Cl    3.921076    3.753243   -0.237907
 C    2.025438    1.824626   -0.082910
 C    1.619661    0.477891   -0.035373
 N    0.225673    0.296145   -0.051163
 C   -0.486978   -0.859414    0.017999
 O   -0.009531   -1.967552    0.202731
 C   -1.981255   -0.688335   -0.127761
 C   -2.580965    0.386737   -0.780297
 C   -3.968741    0.479419   -0.901617
 C   -0.436195    4.306745    0.938907
 C   -4.614069    1.640051   -1.613354
 C   -4.724715   -0.549693   -0.345492
 O   -6.119909   -0.510086   -0.471239
 C   -6.786576    0.232812    0.529616
 C   -8.259901   -0.096739    0.333733
 N   -8.349148   -1.594917    0.197671
 C   -4.162411   -1.656161    0.295249
 C   -5.028228   -2.765110    0.836628
 C   -2.777395   -1.708696    0.390864
 C    2.547962   -0.548872    0.017942
 O    1.049488    2.789518   -0.133140
 C    0.781327    3.426870    1.124788
 H    6.276995   -0.194113    1.096703
 H    6.723052   -0.578130   -0.578973
 H    6.610744   -2.488483    1.808652
 H    8.060135   -1.921445    0.970941
 H    7.388220   -4.256751    0.255059
 H    7.378807   -3.116343   -1.089861
 H    4.926823   -4.021073    0.511055
 H    5.293367   -4.445606   -1.167036
 H    5.092100   -2.094346   -1.861539
 H    3.625241   -2.611086   -1.023636
 H    5.377300    1.348430   -0.148121
 H   -0.268031    1.173603   -0.144192
 H   -1.977601    1.160077   -1.249089
 H   -0.254433    5.046284    0.154442
 H   -1.310386    3.708870    0.656940
 H   -0.664844    4.834656    1.869458
 H   -4.858907    2.450264   -0.915229
 H   -3.937574    2.057531   -2.363100
 H   -5.535220    1.337878   -2.119068
 H   -6.635676    1.311062    0.409570
 H   -6.436940   -0.057013    1.529973
 H   -8.629665    0.319447   -0.604524
 H   -8.890559    0.228506    1.161203
 H   -9.221595   -1.910908   -0.232977
 H   -7.540049   -1.862325   -0.392249
 H   -8.242480   -2.072216    1.097448
 H   -5.731009   -2.403749    1.600345
 H   -5.600382   -3.253394    0.037098
 H   -4.416949   -3.536417    1.309678
 H   -2.284747   -2.554556    0.860053
 H    2.198058   -1.566410    0.113824
 H    0.607438    2.657150    1.889080
 H    1.652701    4.017403    1.426209
