64 
2viw_ligand_xtb.xyz
 N    4.805352   -1.467371   -0.744761
 C    6.171333   -1.346621   -0.274926
 C    6.275048   -1.820105    1.179314
 C    5.792688   -3.263840    1.301243
 C    4.385269   -3.396156    0.723191
 C    4.377028   -2.850864   -0.706623
 C    3.907522   -0.442810   -0.592847
 C    4.313304    0.893176   -0.741665
 C    3.411596    1.934082   -0.645848
Cl    3.990652    3.549380   -0.879018
 C    2.063252    1.707127   -0.401568
 C    1.645562    0.370627   -0.287067
 N    0.272504    0.203093   -0.080477
 C   -0.448467   -0.931798    0.048263
 O   -0.000523   -2.061302    0.022612
 C   -1.923501   -0.696853    0.217342
 C   -2.770046   -1.729077   -0.167966
 C   -4.145018   -1.619434   -0.054004
 C    0.019094    4.475475    0.860028
 C   -5.022404   -2.770848   -0.460217
 C   -4.668312   -0.434049    0.465834
 O   -6.070015   -0.311965    0.590000
 C   -6.697132    0.658320   -0.227439
 C   -7.428353   -0.090551   -1.361263
 N   -7.985360   -1.299826   -0.705211
 C   -3.842455    0.591436    0.926059
 C   -4.395326    1.820267    1.584116
 C   -2.468470    0.445730    0.785307
 C    2.541481   -0.677182   -0.371685
 O    1.102815    2.698661   -0.300356
 C    1.181415    3.497327    0.879719
 H    6.520762   -0.320166   -0.355503
 H    6.804268   -1.971904   -0.912921
 H    5.655939   -1.171729    1.803970
 H    7.308085   -1.735930    1.518854
 H    5.802557   -3.574950    2.347135
 H    6.472369   -3.918719    0.750838
 H    3.681216   -2.825044    1.331526
 H    4.069014   -4.439743    0.724207
 H    5.089160   -3.422539   -1.311909
 H    3.396111   -2.951362   -1.168988
 H    5.337640    1.138526   -0.964461
 H   -0.206992    1.096615   -0.116969
 H   -2.323444   -2.631976   -0.555530
 H    0.077025    5.094028   -0.031012
 H   -0.930532    3.944318    0.850245
 H    0.060589    5.112301    1.738688
 H   -5.509406   -2.580571   -1.417836
 H   -4.410774   -3.660216   -0.579856
 H   -5.768957   -2.983558    0.304877
 H   -5.984541    1.373528   -0.638190
 H   -7.420628    1.194539    0.395169
 H   -6.714876   -0.403172   -2.124836
 H   -8.201787    0.522081   -1.819829
 H   -8.118535   -2.095576   -1.333846
 H   -7.217207   -1.485860    0.015678
 H   -8.862612   -1.100118   -0.214225
 H   -4.501900    2.635644    0.867764
 H   -5.363552    1.623455    2.037439
 H   -3.714633    2.155984    2.362047
 H   -1.834409    1.231819    1.167139
 H    2.151708   -1.671020   -0.249117
 H    1.130063    2.846269    1.765716
 H    2.130864    4.040888    0.908344
