14 
2vj1_ligand_dft.xyz
 C   -2.210107   -0.250296    0.000003
 C   -1.731482    1.057484    0.000012
 C   -0.359910    1.288574    0.000011
 C    0.530371    0.214040    0.000049
 C    1.989792    0.468395   -0.000038
 O    2.837148   -0.396092   -0.000003
 C    0.045981   -1.097313    0.000091
 C   -1.322410   -1.327408   -0.000067
 H   -3.280669   -0.433250   -0.000090
 H   -2.425458    1.892231   -0.000002
 H    0.024372    2.306346    0.000089
 H    2.275542    1.542695   -0.000298
 H    0.758834   -1.916030    0.000118
 H   -1.703219   -2.344114   -0.000164
