58 
2vj8_ligand_xtb.xyz
 C    3.760150    1.426097   -0.802496
 C    3.075019    2.606827   -0.578075
 C    2.984151    3.122935    0.706441
 C    3.583115    2.452322    1.760305
 C    4.271511    1.272683    1.533951
 C    4.367568    0.752565    0.250455
 C    5.124946   -0.523091   -0.031022
 O    4.429893   -1.366856   -0.933586
 C    3.234920   -1.873064   -0.563266
 C    2.724573   -1.864122    0.731836
 C    1.469508   -2.392860    0.984505
 C    2.475302   -2.457347   -1.582745
 C    1.218826   -2.955817   -1.325033
 C    0.688333   -2.918937   -0.039103
 C   -0.743213   -3.309252    0.214031
 C   -1.637901   -2.081701   -0.026211
 N   -1.152193   -0.961445    0.829188
 C   -3.103629   -2.366693    0.316665
 N   -3.959326   -1.214147    0.091328
 O   -4.573036   -1.144583   -1.148408
 C   -4.055807   -0.210787    0.992432
 O   -3.367454   -0.264338    2.009006
 C   -4.928117    0.963299    0.671130
 C   -4.012456    2.136253    0.276364
 C   -3.422564    1.961646   -1.124555
 C   -2.284067    2.945052   -1.388805
 C   -0.990551    2.550242   -0.732878
 O   -0.721044    1.433980   -0.327187
 O   -0.132441    3.542218   -0.659312
 H    3.838646    1.024280   -1.801675
 H    2.644464    3.136973   -1.416359
 H    2.478449    4.061254    0.888482
 H    3.521815    2.854415    2.760003
 H    4.750163    0.764132    2.358412
 H    5.370326   -1.052649    0.897319
 H    6.061301   -0.291039   -0.548523
 H    3.291778   -1.455752    1.551503
 H    1.129370   -2.436538    2.012894
 H    2.895115   -2.492566   -2.574759
 H    0.639469   -3.381534   -2.130259
 H   -1.044154   -4.110117   -0.459694
 H   -0.872782   -3.657767    1.239967
 H   -1.558130   -1.778507   -1.074781
 H   -0.217223   -1.197279    1.198745
 H   -1.049732   -0.065779    0.302002
 H   -1.859456   -0.770336    1.593130
 H   -3.473995   -3.183654   -0.304618
 H   -3.193370   -2.652016    1.369272
 H   -5.407071   -1.644732   -1.134206
 H   -5.473710    1.230164    1.576653
 H   -5.628298    0.746058   -0.132789
 H   -3.212732    2.215531    1.016042
 H   -4.591289    3.059243    0.310862
 H   -3.044832    0.946924   -1.257563
 H   -4.207613    2.116504   -1.864627
 H   -2.542151    3.954353   -1.066470
 H   -2.074972    2.996946   -2.461144
 H    0.726210    3.271783   -0.279093
