77 
2vj9_ligand_dft.xyz
 C   -2.151048    2.430117    0.800513
 C   -2.034187    1.043546    0.606947
 C   -0.823978    0.518075    0.171379
 C    0.281757    1.316992   -0.097338
 C    0.188341    2.689703    0.137331
 C   -1.019817    3.235659    0.581629
 C   -0.607535   -0.940128    0.005085
 N   -1.146608   -1.754520    0.943062
 O    0.139275   -1.390750   -0.879360
 C   -1.307954   -3.202583    0.801420
 C   -1.884017   -3.607210   -0.572007
 C   -0.077544   -4.040736    1.231949
 O    0.333111   -3.720242    2.548591
 C   -3.111009   -2.787369   -0.901438
 C    1.211512   -3.937041    0.411042
 C   -4.309023   -2.996181   -0.213009
 C   -5.417060   -2.190871   -0.455641
 C   -5.340106   -1.162579   -1.393043
 C   -4.153641   -0.951243   -2.088308
 C   -3.046498   -1.760028   -1.843998
 N   -3.344696    2.955197    1.242650
 C   -3.670140    4.371080    1.195599
 C   -3.841234    4.937316   -0.214990
 N    1.291798    3.533999   -0.086097
 C    2.616700    3.134645   -0.135923
 C    3.472914    4.384319   -0.236575
 C    2.496331    5.478632   -0.663438
 C    1.152175    4.991179   -0.109232
 O    3.033359    1.991191   -0.082778
 N    1.883971   -2.643517    0.700050
 C    3.328320   -2.467983    0.321067
 C    3.784456   -1.135033    0.918095
 C    5.208808   -0.783550    0.480995
 C    5.328819   -0.792270   -1.043699
 C    4.899775   -2.144618   -1.617441
 C    3.468304   -2.501232   -1.200263
 H   -2.903359    0.402456    0.738922
 H    1.192711    0.879786   -0.473338
 H   -1.093315    4.299952    0.762363
 H   -1.708293   -1.302647    1.649628
 H   -2.076013   -3.455136    1.543444
 H   -2.132204   -4.674525   -0.528182
 H   -1.130275   -3.474567   -1.351278
 H   -0.391764   -5.092418    1.164666
 H   -0.374516   -3.908841    3.176156
 H    1.888614   -4.739286    0.712117
 H    1.022044   -3.996788   -0.660262
 H   -4.381860   -3.803981    0.513021
 H   -6.345040   -2.372653    0.077902
 H   -6.207145   -0.539428   -1.589500
 H   -4.087499   -0.159065   -2.827559
 H   -2.120237   -1.585760   -2.384567
 H   -4.135228    2.334195    1.152821
 H   -4.594465    4.501003    1.765506
 H   -2.902092    4.926179    1.745658
 H   -2.933138    4.801338   -0.810857
 H   -4.663622    4.436313   -0.735598
 H   -4.066309    6.007557   -0.172575
 H    3.900982    4.576017    0.754845
 H    4.301557    4.218079   -0.927010
 H    2.757020    6.467965   -0.283899
 H    2.446378    5.536231   -1.754589
 H    0.308911    5.279376   -0.743109
 H    0.969901    5.373681    0.903900
 H    1.342166   -1.937749    0.160264
 H    1.758182   -2.456435    1.701291
 H    3.876789   -3.300412    0.777731
 H    3.112750   -0.333411    0.582447
 H    3.722404   -1.179808    2.013351
 H    5.460097    0.203624    0.877988
 H    5.919085   -1.500539    0.914741
 H    6.358870   -0.570956   -1.340379
 H    4.695038    0.004922   -1.452733
 H    5.587637   -2.926627   -1.268147
 H    4.960903   -2.138706   -2.709939
 H    2.768527   -1.773415   -1.633327
 H    3.198064   -3.488876   -1.591453
