22 
2vjx_ligand_xtb.xyz
 O    1.080116    1.813675    0.064975
 C    0.317801    0.658438    0.326865
 C   -1.058123    0.766692   -0.335791
 O   -1.757460    1.878803    0.158172
 C   -1.882495   -0.496666   -0.115498
 N   -1.208046   -1.655964   -0.063093
 C    0.215970   -1.824521    0.145980
 C    1.019817   -0.582904   -0.234000
 C    2.464154   -0.693307    0.285622
 O    3.324644    0.212491   -0.337238
 O   -3.092912   -0.422102   -0.023424
 H    0.493791    2.572413    0.179832
 H    0.179276    0.550755    1.416322
 H   -0.910634    0.881805   -1.425445
 H   -2.688020    1.605062    0.229637
 H   -1.778497   -2.477171    0.093650
 H    0.398209   -2.056445    1.205035
 H    0.553428   -2.678625   -0.448293
 H    1.066661   -0.483795   -1.323205
 H    2.465526   -0.551265    1.377776
 H    2.859895   -1.689469    0.066686
 H    2.918838    1.089149   -0.269279
