20 
2vk2_ligand_dft.xyz
 C    2.325159    0.676555   -0.327589
 C    1.644571   -0.339377    0.204697
 C    0.269468   -0.288712    0.796154
 C   -0.551746    0.918287    0.456760
 C   -1.599888    0.560624   -0.277261
 O    3.573379    0.545655   -0.839298
 O    2.257532   -1.576161    0.276405
 O   -0.482927   -1.385817    0.229524
 O   -0.186179    2.139097    0.903688
 C   -1.613493   -0.918696   -0.477043
 O   -2.563465    1.384550   -0.775457
 O   -2.820660   -1.407835    0.044080
 H    1.943574    1.688528   -0.358733
 H    0.321067   -0.449358    1.881805
 H    3.807984   -0.391546   -0.758537
 H    1.577190   -2.230247    0.059876
 H   -0.869977    2.767930    0.631747
 H   -1.517726   -1.228351   -1.528925
 H   -3.409818    0.926210   -0.673480
 H   -2.918158   -2.331167   -0.219615
