25 
2vl4_ligand_dft.xyz
 C    0.867428    0.533257   -0.831332
 C    1.470047    0.169740    0.531027
 C   -0.519103    1.187020   -0.698302
 O    0.857096   -0.659385   -1.607430
 O    2.577171   -0.625326    0.437756
 N    0.428181   -0.563174    1.377807
 O   -0.229264    2.453077   -0.143715
 C   -1.493339    0.414138    0.217878
 C   -2.046995   -0.906898   -0.347103
 C   -0.839187    0.212857    1.585422
 O   -1.111486   -1.980642   -0.308309
 H    1.539811    1.271624   -1.277971
 H    1.710651    1.076962    1.088584
 H   -0.951546    1.273513   -1.705033
 H    1.074739   -0.453643   -2.525143
 H    2.484697   -1.169907   -0.362207
 H    0.874337   -0.819180    2.262421
 H    0.133952   -1.434441    0.886388
 H   -0.974838    3.051049   -0.278400
 H   -2.359613    1.069715    0.371501
 H   -2.421058   -0.755359   -1.366469
 H   -2.892319   -1.224827    0.268280
 H   -0.581450    1.165136    2.052142
 H   -1.471048   -0.366455    2.261962
 H   -0.544827   -1.904438   -1.092656
