39 
2vl8_ligand_xtb.xyz
 N    1.415539    1.274031   -0.735432
 C    1.720397    2.244406    0.195758
 N    0.727478    3.141148    0.443970
 C   -0.553914    3.180916   -0.119045
 C   -0.737199    2.181830   -1.147926
 C    0.226166    1.280405   -1.400849
 O    2.807019    2.302781    0.744134
 O   -1.354064    4.004558    0.256827
 C    2.425467    0.230571   -0.962108
 C    2.865299   -0.420239    0.381850
 O    4.164984   -0.080533    0.751341
 C    2.766378   -1.929902    0.093310
 C    1.751446   -1.981031   -1.061285
 O    1.952567   -0.780250   -1.790738
 O    3.988327   -2.468346   -0.313276
 C    0.303203   -2.108076   -0.573092
 O    0.043098   -0.986675    0.273561
 P   -1.110474   -0.866697    1.318811
 O   -1.306399    0.511610    1.760390
 O   -0.755290   -1.936703    2.427458
 O   -2.428006   -1.507077    0.659941
 P   -3.117020   -0.633846   -0.543526
 O   -3.474523    0.735209    0.117135
 O   -4.510090   -1.350456   -0.669691
 O   -2.294788   -0.651725   -1.749278
 H    0.925889    3.832133    1.159855
 H   -1.669026    2.162858   -1.684455
 H    0.112630    0.508430   -2.145785
 H    3.291887    0.707468   -1.447646
 H    2.144146   -0.152011    1.163938
 H    4.152432    0.873484    0.943357
 H    2.391517   -2.471622    0.972821
 H    1.981185   -2.806539   -1.740574
 H    4.683465   -1.881502    0.021956
 H    0.164618   -3.041051   -0.024292
 H   -0.386373   -2.059653   -1.420081
 H   -1.243442   -1.804795    3.239938
 H   -2.793550    1.060817    0.728054
 H   -4.610236   -1.738541   -1.538237
