30 
2vmc_ligand_dft.xyz
 C   -0.078632   -1.126198   -0.757881
 O   -0.741652   -2.273368   -0.423857
 C   -0.653953    0.158562   -0.137328
 C    0.145451    1.362848   -0.653534
 C    1.622753    1.185980   -0.299199
 C    2.114428   -0.196878   -0.751677
 C    3.492844   -0.548842   -0.199658
 C   -3.029075   -0.249668    0.302351
 C   -4.419606    0.331942    0.182364
 N   -2.061834    0.374724   -0.422953
 O   -0.355680    2.573306   -0.139986
 O    1.716110    1.407478    1.093028
 O    1.271437   -1.237622   -0.303388
 O    3.425257   -0.731150    1.207698
 O   -2.789415   -1.214610    1.023516
 H   -0.055358   -1.037464   -1.858585
 H   -1.355205   -2.084786    0.314093
 H   -0.508619    0.078063    0.947983
 H    0.034821    1.421673   -1.744637
 H    2.206873    1.949647   -0.836435
 H    2.157589   -0.186811   -1.854814
 H    3.862484   -1.458766   -0.687997
 H    4.204486    0.260741   -0.382250
 H   -5.150889   -0.464571    0.324845
 H   -4.565985    1.076030    0.972787
 H   -4.586354    0.815720   -0.783972
 H   -2.287471    1.290523   -0.788733
 H   -0.011168    2.627765    0.765585
 H    2.376503    0.791609    1.459231
 H    2.737401   -1.401204    1.344847
