27 
2vmd_ligand_xtb.xyz
 C    0.358160    1.153478   -0.228636
 C    1.496568    0.198913    0.156818
 C    1.287111   -1.141821   -0.549349
 C   -0.105079   -1.687058   -0.193982
 C   -1.170534   -0.619595   -0.483767
 C   -2.548641   -1.052516    0.030945
 C   -0.330101    3.378248    0.128402
 O    0.587388    2.346523    0.439201
 O    2.751286    0.708253   -0.220910
 O    2.240403   -2.087718   -0.132192
 O   -0.152871   -2.053578    1.157117
 O   -0.883170    0.616322    0.145309
 O   -3.536294   -0.112971   -0.290295
 H    0.367841    1.315804   -1.332153
 H    1.445432    0.049201    1.245911
 H    1.359699   -0.980658   -1.636522
 H   -0.310084   -2.564702   -0.829103
 H   -1.211058   -0.460983   -1.575437
 H   -2.838331   -1.990923   -0.443817
 H   -2.472565   -1.200673    1.114149
 H   -0.332770    3.581610   -0.948230
 H   -1.339172    3.112984    0.449586
 H    0.013069    4.255771    0.671524
 H    2.805499    1.614790    0.104865
 H    3.104027   -1.658876   -0.174859
 H    0.673887   -2.521749    1.342792
 H   -3.244328    0.735863    0.062860
