41 
2vot_ligand_xtb.xyz
 O    3.086457    3.137676   -0.399227
 C    3.641745    1.853098   -0.575329
 C    3.150958    0.969283    0.581610
 C    4.022926   -0.285402    0.785220
 O    3.831788   -0.846643    2.060558
 C    3.689405   -1.388657   -0.228989
 O    3.906217   -0.918036   -1.531739
 O    1.887288   -2.653107   -1.153533
 N    1.781487    0.583527    0.365394
 C    0.688770    1.407604    0.350936
 C   -0.375341    0.627555   -0.005755
 N    0.048672   -0.656782   -0.201463
 C    1.339310   -0.647479    0.027824
 C   -1.806295    1.007273   -0.191551
 N   -2.655461   -0.038772    0.326109
 C   -4.016032   -0.048532    0.148819
 C   -4.730998   -1.227048    0.392366
 C   -6.105283   -1.254379    0.288631
 C   -6.806932   -0.112184   -0.065336
 C   -6.109957    1.057683   -0.311231
 C   -4.732403    1.097118   -0.207862
 C    2.229177   -1.839985   -0.050362
 H    3.299439    3.679965   -1.165045
 H    3.335810    1.408211   -1.527936
 H    4.738624    1.900682   -0.550647
 H    3.193554    1.584787    1.492109
 H    5.075315    0.000509    0.640692
 H    4.110274   -0.214818    2.733690
 H    4.344747   -2.248548   -0.022588
 H    3.427738   -1.530771   -2.111319
 H    0.926439   -2.613836   -1.243530
 H    0.769918    2.449876    0.574837
 H   -1.999206    1.182105   -1.265209
 H   -1.997843    1.945429    0.341999
 H   -2.203805   -0.942100    0.337453
 H   -4.187846   -2.120905    0.666663
 H   -6.636459   -2.175766    0.481499
 H   -7.883063   -0.135760   -0.148975
 H   -6.644714    1.954960   -0.589778
 H   -4.212219    2.022176   -0.402370
 H    2.152106   -2.416811    0.885753
