42 
2vqm_ligand_dft.xyz
 C    5.912584    0.675217   -0.775839
 C    7.072557   -0.069098   -0.955219
 C    7.007965   -1.457447   -1.041538
 C    5.773286   -2.095130   -0.960721
 C    4.609966   -1.350788   -0.797748
 C    4.664583    0.044875   -0.696076
 C    3.455836    0.862533   -0.542624
 C    3.092489    2.045862   -1.139122
 N    1.869945    2.473920   -0.695019
 C    1.489979    1.561984    0.168183
 C    0.215880    1.597067    0.966725
 N    2.402880    0.560288    0.305798
 C    2.275723   -0.535134    1.257810
 C    1.282832   -0.116748    2.335664
 N    0.048267    0.360277    1.724648
 C   -0.921522   -0.582302    1.476393
 O   -0.752539   -1.768779    1.721595
 C   -2.232731   -0.107496    0.956444
 S   -3.185569   -1.224274    0.053965
 C   -2.898485    1.073157    1.181642
 C   -4.183056    1.091047    0.588657
 C   -4.463014   -0.077703   -0.076803
 C   -5.678299   -0.448620   -0.824799
 O   -5.997075   -1.602192   -1.087182
 N   -6.485576    0.596999   -1.192116
 O   -7.541393    0.246771   -2.027300
 H    5.965333    1.755954   -0.682799
 H    8.031739    0.436387   -1.016094
 H    7.915080   -2.039373   -1.173191
 H    5.712179   -3.176539   -1.038416
 H    3.649368   -1.856856   -0.776147
 H    3.646499    2.594364   -1.888838
 H   -0.621694    1.737584    0.283831
 H    0.233282    2.455435    1.650874
 H    3.257930   -0.752602    1.685744
 H    1.905261   -1.434792    0.756725
 H    1.697411    0.697501    2.940700
 H    1.052090   -0.962989    2.981190
 H   -2.495527    1.884115    1.776880
 H   -4.883237    1.913687    0.678913
 H   -6.049323    1.446062   -1.527694
 H   -7.427306   -0.724000   -2.101368
