40 
2vr0_ligand_dft.xyz
 C    2.796567    1.430645    0.671811
 O    3.579434    2.264631    1.396690
 C    1.606137    1.912634    0.194555
 C    0.734725    1.115954   -0.565675
 N    1.047442   -0.164746   -0.844057
 O    0.256597   -0.908767   -1.531837
 C    2.254132   -0.697018   -0.382976
 C    2.546572   -2.036351   -0.702357
 C    3.721184   -2.597768   -0.268716
 C    4.634817   -1.840656    0.494633
 C    4.356238   -0.534966    0.810846
 C    3.153538    0.081229    0.381827
 C   -0.581125    1.607675   -1.077715
 C   -3.107403    1.526993   -0.822081
 C   -1.762859    1.075816   -0.251793
 C   -4.312538    1.115050    0.028446
 C   -4.501727   -0.397273    0.159863
 C   -5.776228   -0.775890    0.915079
 C   -5.956725   -2.286267    1.055754
 H    4.380351    1.811279    1.681350
 H    1.323003    2.937581    0.405580
 H    1.816273   -2.578257   -1.289215
 H    3.949520   -3.630030   -0.513805
 H    5.561701   -2.292556    0.833238
 H    5.082576    0.020725    1.399346
 H   -0.693358    1.268492   -2.113202
 H   -0.578983    2.703504   -1.070375
 H   -3.220851    1.117696   -1.835558
 H   -3.104814    2.620794   -0.928501
 H   -1.666666    1.422517    0.786374
 H   -1.698743   -0.016289   -0.243287
 H   -5.220617    1.549157   -0.411624
 H   -4.217400    1.556330    1.031118
 H   -3.638478   -0.840173    0.673582
 H   -4.524288   -0.848443   -0.842600
 H   -6.645013   -0.348319    0.396539
 H   -5.756443   -0.313693    1.911418
 H   -6.007456   -2.768279    0.072613
 H   -5.116457   -2.732843    1.599821
 H   -6.876031   -2.531716    1.597780
