40 
2vr0_ligand_xtb.xyz
 C    2.817306    1.451671    0.574420
 O    3.618524    2.325167    1.231956
 C    1.605300    1.899288    0.099570
 C    0.729477    1.064459   -0.585967
 N    1.035826   -0.226959   -0.798907
 O    0.237713   -0.996460   -1.413710
 C    2.244221   -0.724502   -0.345374
 C    2.543131   -2.073432   -0.587583
 C    3.728324   -2.610113   -0.163786
 C    4.653044   -1.810209    0.518667
 C    4.379160   -0.493269    0.769137
 C    3.166583    0.094361    0.347652
 C   -0.590153    1.538815   -1.101052
 C   -3.085622    1.559828   -0.718756
 C   -1.739504    1.059056   -0.204032
 C   -4.260865    1.137561    0.163339
 C   -4.537263   -0.363630    0.120327
 C   -5.788020   -0.736260    0.912969
 C   -6.053944   -2.236265    0.876583
 H    4.432510    1.890148    1.511712
 H    1.329989    2.928440    0.262775
 H    1.803826   -2.654751   -1.117333
 H    3.954915   -3.647735   -0.353071
 H    5.587682   -2.238036    0.848877
 H    5.112047    0.101590    1.298976
 H   -0.739780    1.116412   -2.097921
 H   -0.592670    2.627341   -1.164808
 H   -3.244078    1.184069   -1.731812
 H   -3.059388    2.651898   -0.770315
 H   -1.578763    1.418250    0.815743
 H   -1.727456   -0.030471   -0.194416
 H   -5.156109    1.667439   -0.172709
 H   -4.067431    1.442016    1.194972
 H   -3.684908   -0.909043    0.527937
 H   -4.663980   -0.675842   -0.918723
 H   -6.649669   -0.205165    0.500919
 H   -5.667392   -0.413919    1.950114
 H   -6.197681   -2.572352   -0.148015
 H   -5.213202   -2.782323    1.299066
 H   -6.946202   -2.483065    1.447717
