34 
2vti_ligand_xtb.xyz
 N    0.511618   -0.579506    0.060805
 C    1.537297    0.328504    0.052211
 C    2.848175   -0.340730    0.020794
 C    4.613996    1.583884   -0.021927
 C    5.975796    1.762851   -0.058291
 C    6.862473    0.675854   -0.082513
 C    6.417093   -0.625603   -0.070818
 C    4.135294    0.272964   -0.010177
 O    1.410709    1.535303    0.064680
 N    2.970813   -1.657973    0.015383
 N    4.271860   -1.940080   -0.017022
 C   -1.412253    0.920150    0.135239
 C   -2.786135    1.070419    0.151912
 C   -3.599927   -0.044032    0.116029
 C   -3.068094   -1.317917    0.066840
 C   -1.697672   -1.478165    0.051361
 S   -5.364296    0.154843    0.088289
 O   -5.722945    1.420478    0.660084
 O   -5.995762   -1.039694    0.570383
 N   -5.642765    0.236473   -1.576053
 C   -0.857035   -0.360281    0.081642
 C    5.038700   -0.815960   -0.034528
 H    0.814477   -1.546657    0.043390
 H    3.921764    2.409666   -0.002764
 H    6.383611    2.762283   -0.069023
 H    7.924056    0.871218   -0.111105
 H    7.099617   -1.461312   -0.089447
 H   -0.761827    1.778288    0.164002
 H   -3.241944    2.045743    0.205952
 H   -3.738806   -2.161689    0.054287
 H   -1.265129   -2.467653    0.017035
 H   -5.971771    1.147692   -1.851057
 H   -6.273967   -0.487025   -1.879891
 H    4.575696   -2.900754   -0.023607
