27 
2vtj_ligand_dft.xyz
 N    4.869239    0.851502   -1.291892
 S    4.539979    0.121560    0.181907
 O    5.223387   -1.162249    0.166542
 O    4.763031    1.111481    1.224274
 C    2.793640   -0.194223    0.112442
 C    2.332045   -1.373643   -0.465418
 C    0.968815   -1.607058   -0.539728
 C    0.058996   -0.674762   -0.023814
 N   -1.304593   -0.978376   -0.090261
 C   -2.385182   -0.127659   -0.150680
 C   -2.314816    1.229404   -0.518979
 N   -3.404291    1.982681   -0.575754
 C   -4.576620    1.419198   -0.288432
 C   -4.629429    0.066756    0.038155
Cl   -6.172559   -0.675435    0.367473
 N   -3.564287   -0.702921    0.112920
 C    0.539465    0.488733    0.588505
 C    1.904707    0.731938    0.645982
 H    5.588422    0.329465   -1.782676
 H    5.132502    1.822633   -1.157354
 H    3.037685   -2.101740   -0.850646
 H    0.597682   -2.515371   -1.005322
 H   -1.566501   -1.952502   -0.025705
 H   -1.374687    1.696694   -0.791455
 H   -5.469504    2.032921   -0.333894
 H   -0.147745    1.186484    1.053435
 H    2.282431    1.622701    1.136254
