30 
2vtn_ligand_xtb.xyz
 C    4.432559   -2.760608   -0.007807
 C    4.327514   -1.253707   -0.012373
 O    5.276299   -0.501664   -0.030675
 N    3.035751   -0.815709    0.008852
 C    2.651609    0.507226    0.006840
 C    3.398791    1.669004   -0.002778
 N    2.505551    2.685389   -0.002178
 N    1.250239    2.277246    0.006654
 C    1.302618    0.944751    0.012536
 C    0.127414    0.070239    0.018835
 O    0.234681   -1.148529    0.027641
 N   -1.040421    0.766513    0.011389
 C   -2.351567    0.298385    0.005593
 C   -3.380884    1.240643   -0.008660
 C   -4.701503    0.838806   -0.015953
 C   -4.986118   -0.515210   -0.009178
 F   -6.276901   -0.913677   -0.016684
 C   -3.984156   -1.467634    0.004480
 C   -2.663681   -1.059949    0.012022
 H    3.901019   -3.174816   -0.861552
 H    5.478021   -3.049851   -0.056456
 H    3.989997   -3.159174    0.902514
 H    2.252189   -1.464174    0.020361
 H    4.457594    1.812867   -0.010339
 H   -0.922329    1.772821    0.004997
 H   -3.139917    2.293764   -0.014553
 H   -5.505479    1.557392   -0.027115
 H   -4.240135   -2.514983    0.008881
 H   -1.870089   -1.787706    0.022286
 H    2.709988    3.672769   -0.008957
