37 
2vto_ligand_xtb.xyz
 F   -6.801082   -2.300160    0.067533
 C   -5.701258   -1.515875    0.055172
 C   -4.450439   -2.104445    0.069428
 C   -3.325380   -1.301957    0.056664
 C   -3.456599    0.085269    0.029388
 N   -2.359239    0.941932    0.015073
 C   -1.031993    0.647998    0.008380
 O   -0.547415   -0.475918    0.016871
 C   -0.190500    1.846295   -0.015300
 N   -0.655675    3.095865   -0.036195
 N    0.410174    3.874494   -0.061991
 C    1.575927    3.187494   -0.059175
 C    1.227991    1.850724   -0.028447
 N    1.998350    0.711349   -0.015175
 C    3.362620    0.693790   -0.036435
 O    4.028040    1.712119   -0.043776
 C    3.966186   -0.666956   -0.031193
 C    5.267029   -0.788107    0.452034
 C    5.892332   -2.019659    0.482934
 C    5.227997   -3.142723    0.017505
 C    3.941450   -3.027041   -0.483104
 C    3.307549   -1.797627   -0.508234
 C   -4.730147    0.655626    0.015795
 C   -5.857218   -0.141288    0.028598
 H   -4.363794   -3.179063    0.090523
 H   -2.342982   -1.742706    0.067781
 H   -2.563256    1.934270    0.001944
 H    2.537276    3.653683   -0.078891
 H    1.450047   -0.143529    0.032647
 H    5.769201    0.101440    0.801738
 H    6.898129   -2.105149    0.866565
 H    5.714098   -4.107040    0.038123
 H    3.428169   -3.900129   -0.858136
 H    2.312213   -1.729374   -0.922603
 H   -4.832761    1.730781   -0.005109
 H   -6.846491    0.287785    0.018271
 H    0.296335    4.876267   -0.081454
