37 
2vtp_ligand_xtb.xyz
 F    7.059137   -2.388123   -0.292021
 C    5.981194   -1.577662   -0.216919
 C    6.174192   -0.210512   -0.126451
 C    5.069193    0.613425   -0.051120
 C    3.780986    0.077210   -0.065676
 N    2.706902    0.960588    0.010230
 C    1.373071    0.701475   -0.000926
 O    0.857839   -0.405269   -0.077258
 C    0.561164    1.919403    0.084591
 N    1.051909    3.156814    0.141640
 N    0.003014    3.957208    0.198357
 C   -1.176585    3.295387    0.182213
 C   -0.855731    1.954276    0.108985
 N   -1.652378    0.829911    0.068451
 C   -3.009567    0.852647    0.055809
 O   -3.675034    1.862894    0.069659
 C   -3.612205   -0.525145    0.031451
 C   -4.552377   -0.888966   -0.927903
 F   -4.858974   -0.021799   -1.901812
 C   -5.157385   -2.133680   -0.933401
 C   -4.831121   -3.047308    0.053167
 C   -3.904497   -2.723708    1.029429
 C   -3.310899   -1.475557    1.002189
 F   -2.420303   -1.163366    1.961631
 C    3.612228   -1.303235   -0.155436
 C    4.715050   -2.132571   -0.231816
 H    7.174494    0.191998   -0.116512
 H    5.201219    1.683276    0.019557
 H    2.938513    1.944747    0.074771
 H   -2.127492    3.781770    0.218740
 H   -1.118689   -0.037682    0.048637
 H   -5.873771   -2.367713   -1.704206
 H   -5.301153   -4.017948    0.061918
 H   -3.636977   -3.419391    1.808104
 H    2.618547   -1.718017   -0.164999
 H    4.599516   -3.202244   -0.302900
 H    0.138232    4.955275    0.247624
