47 
2vts_ligand_xtb.xyz
 C    5.952683   -1.530550   -0.636219
 C    4.566144   -1.689090   -0.024538
 C    4.651027   -2.146490    1.433189
 N    3.874691   -0.420635   -0.122693
 C    2.550235   -0.227946   -0.130223
 C    1.546408   -1.183010   -0.179471
 C    0.202407   -0.763261   -0.228327
 N   -0.825588   -1.658751   -0.345068
 C   -2.166072   -1.134285   -0.290469
 C   -3.193174   -2.068110   -0.922233
 C   -4.529640   -1.327933   -1.021425
 C   -4.985608   -0.863278    0.358569
 N   -6.235350   -0.028660    0.203246
 C   -3.934171   -0.017217    1.066766
 C   -2.611863   -0.775919    1.134428
 N   -0.160401    0.511712   -0.203026
 C    0.806758    1.413099   -0.145347
 C    0.773132    2.813198   -0.085053
 C   -0.400048    3.564919   -0.076290
 N   -1.410457    4.112729   -0.062057
 C    2.128317    3.192590   -0.019756
 N    2.937665    2.154955   -0.034702
 N    2.140145    1.073945   -0.110251
 H    5.878796   -1.193315   -1.666921
 H    6.534656   -0.805567   -0.071729
 H    6.479265   -2.480168   -0.620053
 H    3.997906   -2.424349   -0.605401
 H    5.220820   -1.429154    2.018783
 H    3.656922   -2.234143    1.865595
 H    5.143442   -3.112531    1.494524
 H    4.423041    0.422706   -0.009751
 H    1.785017   -2.231529   -0.193515
 H   -0.661433   -2.612141   -0.065433
 H   -2.118458   -0.201805   -0.864207
 H   -3.306543   -2.971274   -0.319849
 H   -2.866659   -2.362862   -1.918494
 H   -5.280133   -1.983687   -1.467050
 H   -4.393099   -0.462225   -1.672699
 H   -5.244770   -1.729829    0.973949
 H   -6.573844    0.290187    1.119670
 H   -6.005558    0.801854   -0.360313
 H   -6.980250   -0.553348   -0.271430
 H   -4.266879    0.236404    2.074736
 H   -3.761381    0.909044    0.515234
 H   -1.856087   -0.136566    1.587012
 H   -2.715225   -1.679282    1.738333
 H    2.526300    4.186203    0.039260
