37 
2vuk_ligand_xtb.xyz
 C    0.630925    1.939446   -0.102984
 C    1.930265    1.576302    0.177566
 C    2.276863    0.248377    0.460445
 C    1.310230   -0.749165    0.449462
 C   -0.000860   -0.408533    0.168201
 C   -1.220856   -1.155710    0.091733
 C   -1.534787   -2.499314    0.265459
 C   -2.849239   -2.890220    0.121549
 C   -3.843971   -1.963270   -0.188091
 C   -3.556268   -0.623958   -0.363703
 C   -2.234766   -0.222518   -0.225646
 N   -1.677425    1.032709   -0.359777
 C   -0.343442    0.945827   -0.111227
 C   -2.412031    2.247041   -0.613243
 C   -2.890754    2.893893    0.684412
 C    3.709920   -0.100798    0.725317
 N    4.395211   -0.399272   -0.583914
 C    5.818124   -0.762634   -0.458870
 H    0.386259    2.970611   -0.300023
 H    2.695890    2.338556    0.203805
 H    1.569142   -1.772679    0.678526
 H   -0.766283   -3.216599    0.510363
 H   -3.118022   -3.926840    0.252240
 H   -4.863655   -2.301163   -0.290548
 H   -4.340426    0.079179   -0.596094
 H   -3.265746    2.004049   -1.249946
 H   -1.765548    2.935418   -1.163548
 H   -3.536751    2.211370    1.231127
 H   -2.044351    3.149191    1.317927
 H   -3.447695    3.799989    0.464568
 H    3.793440   -0.988179    1.354160
 H    4.242852    0.725643    1.197586
 H    4.291984    0.431200   -1.180757
 H    3.873095   -1.159458   -1.038030
 H    6.366900    0.052107    0.009638
 H    5.918170   -1.652376    0.159885
 H    6.250129   -0.962677   -1.437326
