37 
2vuk_ligand_dft.xyz
 C    0.641423    1.953783   -0.079824
 C    1.944154    1.595395    0.222053
 C    2.293249    0.259260    0.498273
 C    1.319180   -0.742052    0.480333
 C    0.005390   -0.407301    0.182745
 C   -1.224716   -1.159766    0.098219
 C   -1.550647   -2.505848    0.282159
 C   -2.870297   -2.897915    0.130177
 C   -3.861919   -1.960398   -0.200761
 C   -3.561996   -0.619570   -0.389130
 C   -2.229883   -0.232581   -0.240099
 N   -1.664858    1.031216   -0.381473
 C   -0.325941    0.944171   -0.108462
 C   -2.408628    2.257309   -0.620764
 C   -2.945081    2.877598    0.665881
 C    3.721651   -0.096748    0.740747
 N    4.400453   -0.404279   -0.595226
 C    5.842076   -0.778399   -0.511000
 H    0.387064    2.991167   -0.268110
 H    2.705438    2.371332    0.271366
 H    1.578478   -1.771646    0.720828
 H   -0.786498   -3.231532    0.545426
 H   -3.145379   -3.937592    0.271989
 H   -4.889859   -2.291353   -0.308621
 H   -4.340993    0.093980   -0.636386
 H   -3.222619    2.021654   -1.312164
 H   -1.749575    2.952779   -1.148582
 H   -3.613194    2.181802    1.181870
 H   -2.126296    3.132092    1.345866
 H   -3.504389    3.790481    0.441793
 H    3.845847   -0.997030    1.347732
 H    4.302591    0.715521    1.185031
 H    4.276633    0.416051   -1.197158
 H    3.861048   -1.149605   -1.047114
 H    6.388443    0.047869   -0.055865
 H    5.932760   -1.670543    0.108875
 H    6.223242   -0.975603   -1.513168
