35 
2vur_ligand_xtb.xyz
 O   64.482707   72.304890   14.392748
 C   63.220896   71.791290   14.751569
 C   63.205284   70.263740   14.609789
 O   63.391063   69.884182   13.261626
 C   61.908715   69.692004   15.204404
 C   61.851178   68.149680   15.102496
 O   63.099101   67.524064   15.033935
 O   61.825741   70.058930   16.562613
 C   61.693013   71.446728   16.755334
 O   61.523213   71.673600   18.107865
 C   62.928814   72.207263   16.201308
 N   62.716593   73.630196   16.302933
 C   61.719894   74.274198   15.661973
 O   60.949031   73.768165   14.866787
 N   61.622404   75.619012   15.990739
 C   60.718357   76.478186   15.253569
 N   62.497513   76.155626   16.905899
 O   63.637054   76.766283   16.312053
 H   64.768555   71.851054   13.589520
 H   62.437636   72.218104   14.104366
 H   64.059986   69.848738   15.156161
 H   63.803032   71.955516   16.809196
 H   62.667647   70.248844   12.736024
 H   61.047227   70.122962   14.664999
 H   61.369759   67.776286   16.007925
 H   61.236732   67.876695   14.233467
 H   63.546587   67.820180   14.230214
 H   60.792339   71.825972   16.248949
 H   62.136777   71.097975   18.582236
 H   63.291539   74.177594   16.922925
 H   60.129122   77.082261   15.947666
 H   61.251147   77.134214   14.557208
 H   60.056834   75.828833   14.685820
 H   62.022493   76.868946   17.464424
 H   63.375015   77.461790   15.687262
