61 
2vvt_ligand_dft.xyz
 N    0.532789   -0.303100   -1.022936
 C   -0.737016   -0.018454   -0.835131
 N   -1.714939   -0.852520   -0.406708
 C   -1.407635   -2.125299   -0.112634
 C    0.810661   -1.579460   -0.722608
 C   -0.078961   -2.542490   -0.258196
 N    0.551295   -3.749657   -0.048068
 C    1.790308   -3.506524   -0.378160
 N    2.013033   -2.213475   -0.807044
 N   -2.381720   -2.956299    0.339804
 O   -1.194499    1.213667   -1.067046
 C   -3.800143   -2.722296    0.134469
 C   -4.411240   -1.665850    1.062352
 N   -4.132782   -0.267790    0.604992
 C   -5.071937    0.197587   -0.461374
 C   -4.692629    1.611128   -0.888464
 O   -4.722319    2.484488    0.215722
 C   -3.775321    2.101672    1.183488
 C   -4.088455    0.713088    1.730918
 C   -0.233165    2.243975   -1.385930
 C    0.410465    2.805412   -0.129505
 C    1.392466    3.932890   -0.452202
 C    1.972236    4.569183    0.809628
 C    3.270046   -1.602730   -1.228126
 C    3.756422   -0.574888   -0.242410
 C    4.212856   -0.952427    1.017990
 C    4.666870   -0.050488    1.963717
 C    4.672816    1.301518    1.630018
 C    4.227872    1.733323    0.384613
 C    3.771392    0.788308   -0.521268
 F    4.201005   -2.263502    1.308503
 F    3.334334    1.201798   -1.720726
 H    2.601190   -4.220977   -0.332705
 H   -2.083428   -3.913106    0.473789
 H   -4.311083   -3.664945    0.340032
 H   -4.002363   -2.474586   -0.916101
 H   -3.992648   -1.779107    2.064853
 H   -5.496607   -1.785572    1.121571
 H   -3.152696   -0.319941    0.161628
 H   -6.084075    0.176327   -0.046103
 H   -5.006818   -0.497255   -1.301713
 H   -5.423380    1.978142   -1.611188
 H   -3.697687    1.606966   -1.356653
 H   -3.827210    2.830081    1.994685
 H   -2.760436    2.112241    0.758878
 H   -3.314635    0.382254    2.428400
 H   -5.062155    0.696145    2.229855
 H   -0.823774    3.002994   -1.903226
 H    0.516220    1.837907   -2.068330
 H    0.939419    2.001555    0.396760
 H   -0.375329    3.177994    0.541373
 H    0.889892    4.703406   -1.051005
 H    2.198614    3.531246   -1.077856
 H    1.186662    5.047071    1.405081
 H    2.456561    3.816797    1.442621
 H    2.714305    5.334603    0.562823
 H    3.117720   -1.144132   -2.206023
 H    3.996936   -2.410519   -1.338539
 H    5.014122   -0.407254    2.925993
 H    5.035992    2.028404    2.348737
 H    4.242007    2.780183    0.105599
