78 
2vw5_ligand_dft.xyz
 O   41.426273   -5.265928   41.853963
 C   41.239968   -5.809839   40.777635
 C   41.569712   -7.260589   40.573684
 C   42.868063   -7.694241   41.194622
 C   40.668050   -8.063466   39.997334
 C   40.776324   -9.555252   39.829357
 C   40.038754  -10.082416   38.592299
 C   38.510456   -9.923739   38.609372
 C   37.862097  -10.672809   39.775220
 N   40.639106   -5.113388   39.746111
 C   40.776183   -5.312852   38.351213
 C   39.705413   -4.964814   37.526358
 C   39.832448   -5.107635   36.146626
 O   38.823345   -4.798168   35.288025
 C   41.004142   -5.619283   35.593615
 C   42.067381   -5.984049   36.416533
 C   41.955981   -5.800892   37.796305
 C   43.313642   -6.605808   35.831476
 C   43.298461   -8.154532   35.813055
 C   43.284676   -8.741998   37.224955
 C   42.143221   -8.665495   34.944079
 C   42.061672  -10.183839   34.799684
 O   43.375111  -10.662602   34.603817
 C   43.502620  -12.057375   34.561298
 C   41.118206  -10.607731   33.657378
 O   41.730853  -10.203834   32.448015
 C   39.689205  -10.038465   33.797682
 C   38.801848  -10.494393   32.629242
 C   39.069023  -10.482183   35.092477
 C   38.534239   -9.726762   36.055884
 C   38.447628   -8.224142   36.051448
 C   37.945874  -10.413116   37.269635
 O   36.522773  -10.163936   37.301292
 C   35.755567  -11.016827   36.587363
 O   36.152269  -12.008494   36.015491
 N   34.460288  -10.584035   36.588879
 H   40.338387   -4.192539   40.040549
 H   43.720948   -7.314770   40.616738
 H   42.946571   -7.273867   42.201171
 H   42.957950   -8.780015   41.258426
 H   39.754343   -7.603236   39.623572
 H   41.828492   -9.846874   39.747469
 H   40.395074  -10.053745   40.731256
 H   40.446013   -9.584372   37.705070
 H   40.273432  -11.149569   38.474078
 H   38.255239   -8.859873   38.701514
 H   38.146158  -11.732572   39.761699
 H   38.167717  -10.253389   40.738506
 H   36.772462  -10.612329   39.717434
 H   38.092701  -11.494341   37.187080
 H   38.780399   -4.600837   37.968094
 H   42.794822   -6.042083   38.440615
 H   38.066750   -4.472717   35.789896
 H   41.065154   -5.739627   34.516487
 H   43.450621   -6.246535   34.804651
 H   44.188673   -6.274121   36.403934
 H   44.231601   -8.466633   35.332374
 H   43.361764   -9.833196   37.191292
 H   44.132418   -8.367295   37.811425
 H   42.369366   -8.473917   37.762487
 H   41.193313   -8.319461   35.367335
 H   42.230857   -8.225907   33.943008
 H   41.656577  -10.620505   35.729854
 H   41.031819  -11.708404   33.683287
 H   43.149826  -12.477772   33.609280
 H   44.566762  -12.282860   34.665851
 H   42.954915  -12.541713   35.386350
 H   41.261752  -10.627089   31.720909
 H   39.765055   -8.947925   33.756393
 H   37.783306  -10.117358   32.757010
 H   39.175766  -10.117231   31.670785
 H   38.745099  -11.589142   32.580066
 H   39.027252  -11.564956   35.224652
 H   39.152400   -7.782931   36.768391
 H   38.661932   -7.784603   35.075588
 H   37.442625   -7.905770   36.350200
 H   34.180122   -9.885157   37.257844
 H   33.768695  -11.245839   36.276954
