82 
2vwc_ligand_xtb.xyz
 O  -26.465211   34.378128   -3.487917
 C  -25.749898   33.653284   -4.148576
 C  -25.145822   32.416995   -3.555281
 C  -24.694454   31.425651   -4.354490
 C  -24.595786   31.560156   -5.801628
 O  -24.135483   30.682854   -6.511827
 C  -25.045668   32.848698   -6.354682
 N  -25.265183   32.249419   -2.194474
 C  -25.260686   33.228456   -1.208706
 O  -25.771648   33.003751   -0.136647
 C  -24.490274   34.459288   -1.516625
 C  -25.107033   35.712786   -0.994992
 C  -23.288044   34.334604   -2.107896
 C  -22.383847   35.413425   -2.422229
 C  -21.119111   35.278048   -2.835524
 C  -20.320990   34.016000   -2.896338
 C  -19.405561   33.968654   -1.665257
 C  -25.549877   33.836515   -5.601569
 C  -26.010807   35.143174   -6.208308
 O  -26.415414   34.995973   -7.550398
 C  -27.659472   34.360478   -7.710455
 C  -24.899210   36.220813   -6.170641
 C  -24.529163   36.554830   -4.732752
 C  -23.693088   35.757563   -6.989266
 C  -22.486283   36.699018   -6.916729
 O  -22.932186   38.040376   -7.027319
 C  -22.054155   39.005297   -6.514129
 C  -21.457414   36.325657   -8.017310
 O  -22.045491   36.189788   -9.292400
 C  -22.404429   37.397329   -9.922672
 C  -20.775656   34.976440   -7.720454
 C  -19.664212   34.727791   -8.749202
 C  -20.168754   34.919367   -6.351778
 C  -20.320014   33.957974   -5.442892
 C  -21.245690   32.785922   -5.570012
 C  -19.473380   33.950776   -4.182767
 O  -18.735637   32.729006   -4.090787
 C  -17.635412   32.485032   -4.824992
 O  -16.953532   31.529753   -4.566624
 N  -17.326775   33.380116   -5.808296
 H  -24.360623   30.486108   -3.935786
 H  -25.475580   31.315977   -1.858978
 H  -24.953058   32.972587   -7.425175
 H  -25.534463   35.507038   -0.014983
 H  -24.395529   36.527710   -0.917876
 H  -25.925207   36.004636   -1.654494
 H  -20.553343   36.172756   -3.063749
 H  -20.960630   33.133444   -2.877208
 H  -18.784381   33.078626   -1.703801
 H  -18.762135   34.845564   -1.634041
 H  -20.006023   33.945359   -0.759413
 H  -18.771263   34.796576   -4.191688
 H  -26.856366   35.508455   -5.601526
 H  -25.315925   37.109472   -6.650687
 H  -28.452784   34.907002   -7.186224
 H  -27.865507   34.359224   -8.778734
 H  -27.642166   33.327870   -7.342784
 H  -23.950287   35.745678   -4.294365
 H  -23.939375   37.465372   -4.703063
 H  -25.421666   36.707763   -4.131225
 H  -23.359185   34.785186   -6.628201
 H  -24.001178   35.656105   -8.029429
 H  -21.982827   36.573578   -5.943035
 H  -20.688231   37.116910   -8.052919
 H  -21.770790   38.774785   -5.478476
 H  -21.139629   39.101088   -7.110966
 H  -22.591709   39.951704   -6.540379
 H  -21.535625   34.206354   -7.848919
 H  -23.193834   37.920509   -9.378157
 H  -21.535892   38.061005  -10.021701
 H  -22.761805   37.121970  -10.913449
 H  -20.074924   34.817741   -9.750290
 H  -18.861214   35.454162   -8.633547
 H  -19.254198   33.727620   -8.627702
 H  -19.475843   35.730252   -6.146174
 H  -21.440864   32.526342   -6.605714
 H  -20.812688   31.920343   -5.072985
 H  -22.199191   33.012849   -5.090292
 H  -18.050370   33.932182   -6.241167
 H  -16.554585   33.107192   -6.393987
 H  -22.782733   36.413236   -2.327304
 H  -22.943625   33.340481   -2.361563
