61 
2vwu_ligand_xtb.xyz
 C    1.372176    2.504278    1.212227
 O    1.886395    1.262865    0.785062
 C    0.993013    0.307681    0.383153
 C   -0.365969    0.470066    0.299591
 C   -1.186761   -0.582044   -0.147982
 C   -2.612406   -0.527498   -0.283949
 N   -3.290218    0.607455    0.028370
 C   -4.672737    0.743898    0.006410
 C   -5.552866   -0.230828    0.439968
 O   -5.281859   -1.446394    0.991872
 C   -6.534825   -2.067875    1.191982
 O   -7.560172   -1.149405    0.872807
 C   -6.936894   -0.036668    0.393996
 C   -7.499424    1.138014   -0.043978
 C   -6.627478    2.147288   -0.445394
 C   -5.263221    1.948910   -0.419140
Cl   -4.208910    3.230657   -0.922826
 N   -3.296588   -1.566547   -0.723188
 C   -2.624984   -2.676387   -1.015000
 N   -1.337430   -2.865317   -0.936284
 C   -0.601020   -1.819103   -0.505924
 C    0.797161   -1.975025   -0.410080
 C    1.577219   -0.942641    0.026034
 O    2.940762   -0.987409    0.164658
 C    3.621014   -2.157612   -0.226800
 C    5.104407   -1.898810    0.053452
 C    5.541736   -0.637178   -0.691988
 N    6.673809    0.058509   -0.035999
 C    7.937990   -0.716296   -0.096419
 C    9.027266   -0.023351    0.712713
 C    9.257021    1.391652    0.190894
 C    7.941762    2.164449    0.213120
 C    6.877104    1.423027   -0.585234
 H    0.848135    3.022121    0.402992
 H    0.700171    2.387190    2.067158
 H    2.235560    3.094706    1.514992
 H   -0.813698    1.408407    0.584368
 H   -2.785836    1.484133    0.022824
 H   -6.628035   -2.375036    2.244037
 H   -6.618064   -2.954219    0.541841
 H   -8.565998    1.274376   -0.066294
 H   -7.022514    3.091103   -0.784692
 H   -3.222495   -3.506522   -1.368742
 H    1.200090   -2.933528   -0.689450
 H    3.458595   -2.359487   -1.293867
 H    3.279804   -3.024008    0.351338
 H    5.680059   -2.775678   -0.239198
 H    5.210206   -1.745636    1.129681
 H    4.687265    0.045298   -0.696760
 H    5.822282   -0.865272   -1.721586
 H    6.430763    0.167857    0.956365
 H    8.234266   -0.792426   -1.144812
 H    7.755079   -1.719372    0.290021
 H    9.944003   -0.607087    0.639157
 H    8.742713    0.009816    1.766708
 H    9.645149    1.351511   -0.827820
 H    9.997076    1.899506    0.806742
 H    8.078016    3.155026   -0.218963
 H    7.605914    2.298659    1.243751
 H    5.926667    1.958608   -0.548039
 H    7.182559    1.325134   -1.629092
