49 
2vww_ligand_dft.xyz
 C    6.764551   -2.202079   -0.509038
 O    6.417048   -0.891162   -0.129990
 C    5.100912   -0.569069   -0.090601
 C    4.065478   -1.449190   -0.384652
 C    2.727667   -1.030436   -0.288533
 N    1.760773   -1.993722   -0.600315
 C    0.391584   -1.952441   -0.631734
 N   -0.167758   -3.125685   -0.982308
 C   -1.496832   -3.119134   -1.037785
 C   -2.283546   -2.016493   -0.752273
 C   -1.585403   -0.859951   -0.384020
 N   -2.190645    0.332860   -0.069760
 C   -3.563268    0.587241   -0.035819
 C   -4.439176   -0.158644    0.735365
 O   -4.139338   -1.199678    1.562035
 C   -5.397963   -1.745752    1.940779
 O   -6.397478   -0.780036    1.638270
 C   -5.801814    0.102331    0.783935
 C   -6.372427    1.152580    0.102653
 C   -5.509493    1.945480   -0.665100
 C   -4.153420    1.663862   -0.736365
Cl   -3.125515    2.677116   -1.721060
 N   -0.249585   -0.823775   -0.331947
 C    2.436602    0.275719    0.095776
 C    3.483989    1.149152    0.384909
 O    3.167521    2.411442    0.811068
 C    3.505852    3.444516   -0.103922
 C    4.815257    0.752046    0.291184
 O    5.837059    1.625340    0.554845
 C    6.175867    1.688290    1.931479
 H    6.353822   -2.946557    0.185840
 H    6.423224   -2.431154   -1.526977
 H    7.853966   -2.244325   -0.478145
 H    4.279622   -2.469842   -0.682731
 H    2.106473   -2.907395   -0.855191
 H   -1.962381   -4.056921   -1.335068
 H   -3.361167   -2.049701   -0.828899
 H   -1.561225    1.123750   -0.051354
 H   -5.396136   -1.945212    3.013162
 H   -5.586723   -2.661904    1.364438
 H   -7.433563    1.361157    0.161630
 H   -5.902348    2.785974   -1.225124
 H    1.417962    0.620321    0.181535
 H    4.585204    3.482417   -0.278437
 H    2.982926    3.300383   -1.058156
 H    3.171566    4.377923    0.353287
 H    5.319293    2.020806    2.529675
 H    6.521586    0.712090    2.292787
 H    6.987162    2.414065    2.018822
