49 
2vww_ligand_xtb.xyz
 C    6.895118   -2.080209   -0.022045
 O    6.446103   -0.763720    0.172764
 C    5.113617   -0.508545    0.069086
 C    4.144617   -1.476069   -0.151095
 C    2.800428   -1.116505   -0.220110
 N    1.873709   -2.127765   -0.437197
 C    0.521397   -2.097004   -0.540406
 N   -0.029518   -3.293623   -0.788192
 C   -1.342321   -3.320058   -0.928346
 C   -2.144328   -2.199638   -0.810840
 C   -1.478407   -1.009120   -0.507493
 N   -2.084020    0.209719   -0.365413
 C   -3.410287    0.518273   -0.153865
 C   -4.320077   -0.278356    0.525212
 O   -4.115586   -1.503204    1.112307
 C   -5.355192   -1.875428    1.673931
 O   -6.302085   -0.859089    1.426219
 C   -5.642552    0.113848    0.729334
 C   -6.125569    1.325417    0.294864
 C   -5.224230    2.160121   -0.358956
 C   -3.918707    1.767252   -0.570353
Cl   -2.833210    2.854431   -1.373182
 N   -0.151552   -0.959500   -0.397624
 C    2.430651    0.213348   -0.080154
 C    3.394914    1.192983    0.119221
 O    3.094763    2.521365    0.236094
 C    1.752864    2.918645    0.094915
 C    4.748963    0.841582    0.203825
 O    5.762752    1.760351    0.351745
 C    5.712502    2.567022    1.510154
 H    6.497844   -2.761052    0.739009
 H    6.631826   -2.454274   -1.016948
 H    7.979363   -2.036103    0.068844
 H    4.415291   -2.514098   -0.261110
 H    2.247953   -3.059879   -0.554200
 H   -1.765687   -4.289713   -1.157338
 H   -3.205363   -2.243107   -0.966510
 H   -1.456276    1.000872   -0.440814
 H   -5.238469   -2.016862    2.760039
 H   -5.699492   -2.819103    1.220656
 H   -7.146746    1.615843    0.465093
 H   -5.547319    3.127529   -0.707221
 H    1.385867    0.453004   -0.140716
 H    1.353725    2.641510   -0.885541
 H    1.121811    2.491235    0.880918
 H    1.758453    4.003969    0.187515
 H    4.844145    3.230102    1.505432
 H    5.693640    1.952389    2.416953
 H    6.625684    3.159604    1.494707
