43 
2vwy_ligand_xtb.xyz
 N   -2.116289    2.804332   -0.394816
 C   -0.774604    2.581985   -0.529311
 N   -0.064947    3.673218   -0.827422
 C    1.236795    3.491940   -0.996168
 C    1.861174    2.268457   -0.857986
 C    1.032636    1.196211   -0.501281
 N    1.440487   -0.090713   -0.330619
 C    2.721190   -0.586947   -0.174430
 C    3.755133    0.074194    0.469378
 O    3.741728    1.311809    1.063781
 C    5.035013    1.498882    1.596995
 O    5.831614    0.375353    1.291422
 C    5.019698   -0.494861    0.618821
 C    5.314867   -1.755884    0.158878
 C    4.284513   -2.453410   -0.464736
 C    3.035717   -1.886825   -0.623398
Cl    1.783516   -2.798490   -1.394409
 N   -0.283531    1.363225   -0.367894
 C   -4.074797   -2.672702   -1.083240
 S   -3.629875   -2.019546    0.556563
 O   -4.517326   -2.603494    1.525939
 O   -2.213771   -2.206038    0.736189
 C   -3.974798   -0.266717    0.398885
 C   -5.261774    0.209205    0.551673
 C   -5.480809    1.567793    0.377193
 C   -4.433465    2.412927    0.059846
 C   -3.130873    1.922872   -0.084725
 C   -2.916794    0.554398    0.084766
 H   -2.368345    3.776541   -0.513715
 H    1.795616    4.379210   -1.264564
 H    2.913514    2.148493   -1.033156
 H    0.687879   -0.769039   -0.281065
 H    4.967689    1.618977    2.690314
 H    5.488514    2.402780    1.160266
 H    6.293100   -2.183954    0.287139
 H    4.460366   -3.451006   -0.832320
 H   -3.882112   -3.738306   -1.080574
 H   -5.125245   -2.475475   -1.250847
 H   -3.455711   -2.174353   -1.817579
 H   -6.055832   -0.468812    0.818497
 H   -6.475072    1.972324    0.491833
 H   -4.618339    3.469629   -0.070914
 H   -1.928724    0.139496   -0.003697
