66 
2vxj_ligand_xtb.xyz
 C   -3.170670   -1.488642    1.078703
 C   -4.703568   -1.392866    0.974529
 C   -5.094464    0.080959    0.791334
 C   -4.533485    0.903232    1.961788
 C   -3.019949    0.675511    2.067292
 C   -2.449496    1.284942    3.352351
 O   -5.213163   -2.182852   -0.067112
 O   -6.495614    0.222258    0.786705
 O   -5.163159    0.533564    3.159054
 O   -2.685697   -0.708156    2.114458
 O   -1.050428    1.170329    3.412880
 C    0.994095   -0.560778   -0.863553
 C   -0.387727   -0.344258   -0.215065
 C   -1.339428   -1.498824   -0.520586
 C   -1.312410   -1.812629   -2.029799
 C    0.139965   -1.960802   -2.514500
 C    0.243400   -2.151841   -4.031239
 O   -0.185735   -0.230443    1.162895
 O   -2.687696   -1.157289   -0.205626
 O   -1.945017   -0.796493   -2.760845
 O    0.902304   -0.805534   -2.233755
 O    1.580385   -2.318827   -4.409994
 C    5.425482    0.698160   -1.014940
 C    3.977605    0.420099   -1.431369
 C    3.035693    0.527727   -0.221497
 C    3.306258    1.800301    0.607352
 C    2.566199    1.803047    1.954038
 C    5.497085    2.013130   -0.229031
 O    6.807035    2.201386    0.186285
 O    6.209867    0.748633   -2.178776
 O    3.861718   -0.872937   -1.967004
 O    1.690195    0.618090   -0.628032
 O    4.675371    1.955065    0.909246
 O    1.201345    2.069794    1.741631
 H   -2.864337   -2.515265    1.333976
 H   -5.146302   -1.765883    1.903850
 H   -4.670783    0.450348   -0.156319
 H   -4.713705    1.971841    1.758430
 H   -2.538204    1.132775    1.191062
 H   -2.693201    2.348427    3.396232
 H   -2.917385    0.771371    4.200379
 H   -4.644226   -2.055878   -0.838216
 H   -6.859986   -0.530338    0.301554
 H   -6.111067    0.491006    2.967142
 H   -0.844241    0.293279    3.055324
 H    1.486278   -1.419576   -0.362960
 H   -0.804729    0.581624   -0.637942
 H   -1.035897   -2.378065    0.061649
 H   -1.837649   -2.769265   -2.198220
 H    0.590069   -2.827162   -1.998941
 H   -0.201196   -1.272086   -4.512235
 H   -0.296975   -3.048462   -4.340425
 H    0.362521    0.574982    1.287774
 H   -2.645872   -0.431772   -2.206242
 H    2.087761   -1.646835   -3.933472
 H    5.772337   -0.107214   -0.347841
 H    3.675108    1.170405   -2.178006
 H    3.189822   -0.365042    0.402784
 H    2.945503    2.655291    0.014982
 H    3.026087    2.584259    2.571837
 H    2.710954    0.836047    2.452096
 H    5.167675    2.848118   -0.884649
 H    6.796200    2.775630    0.960886
 H    7.087238    1.063350   -1.929278
 H    4.531415   -0.957152   -2.658051
 H    0.719890    2.098388    2.585222
