66 
2vxj_ligand_dft.xyz
 C   -3.542488    0.400064   -0.895911
 C   -4.970048    0.506371   -0.362995
 C   -5.155204   -0.363240    0.878589
 C   -4.755138   -1.806060    0.567900
 C   -3.331728   -1.808394    0.026668
 C   -2.856802   -3.168745   -0.466975
 O   -5.356272    1.841680   -0.110252
 O   -6.512436   -0.366416    1.269550
 O   -5.638604   -2.366108   -0.374909
 O   -3.181657   -0.926737   -1.095163
 O   -1.479326   -3.151541   -0.816178
 C    1.031255    0.929845   -0.093348
 C   -0.375985    0.538181    0.344239
 C   -1.384934    1.365295   -0.433451
 C   -1.084505    2.858360   -0.243805
 C    0.390164    3.127145   -0.565483
 C    0.879741    4.534170   -0.253806
 O   -0.583338   -0.814838    0.080400
 O   -2.711351    1.096509    0.017558
 O   -1.348653    3.252410    1.083831
 O    1.255290    2.281267    0.176971
 O    2.233714    4.657771   -0.614597
 C    5.552155   -0.340887   -0.071280
 C    4.306399    0.376332    0.428605
 C    3.055856   -0.362462   -0.032868
 C    3.140568   -1.871561    0.275078
 C    1.995117   -2.694738   -0.326792
 C    5.496211   -1.814917    0.299736
 O    6.620878   -2.420467   -0.239145
 O    6.661267    0.314285    0.503241
 O    4.269789    1.697138   -0.062869
 O    1.911073    0.140172    0.626353
 O    4.342900   -2.400540   -0.262448
 O    0.984041   -2.884386    0.648852
 H   -3.465000    0.873412   -1.881926
 H   -5.638795    0.129129   -1.140582
 H   -4.515235    0.020089    1.688989
 H   -4.765703   -2.386036    1.505369
 H   -2.662695   -1.468889    0.824907
 H   -2.996162   -3.912253    0.324483
 H   -3.464919   -3.463809   -1.329603
 H   -4.621831    2.247224    0.371259
 H   -6.827150    0.542833    1.162235
 H   -6.526075   -2.119930   -0.074892
 H   -1.274093   -2.228063   -1.042509
 H    1.144080    0.736227   -1.177134
 H   -0.471363    0.765715    1.414260
 H   -1.303560    1.106207   -1.497964
 H   -1.702880    3.436756   -0.950470
 H    0.539313    2.939071   -1.643144
 H    0.714646    4.734840    0.813084
 H    0.312508    5.266763   -0.836084
 H    0.078631   -1.347909    0.570541
 H   -2.183241    2.836644    1.336565
 H    2.679486    3.877383   -0.249395
 H    5.579003   -0.284086   -1.170140
 H    4.319596    0.371306    1.530471
 H    2.959392   -0.228454   -1.119632
 H    3.115414   -2.010274    1.367855
 H    2.417117   -3.656985   -0.638915
 H    1.589527   -2.193648   -1.217423
 H    5.461734   -1.928257    1.399479
 H    6.628898   -3.346046    0.034745
 H    7.455147   -0.120894    0.166517
 H    5.131332    2.083216    0.147188
 H    0.210553   -3.301414    0.217714
