16 
2vxn_ligand_dft.xyz
 C    1.602034    0.135280   -0.086175
 C    0.565256    1.248666   -0.133448
 N    2.885897    0.514839   -0.142958
 O    3.862232   -0.429607    0.116110
 O    1.324201   -1.065695    0.001566
 O   -0.614836    0.796255   -0.752518
 O   -3.054392    0.193576   -0.623409
 O   -1.364973   -1.555780   -0.181407
 O   -1.680105    0.408558    1.563100
 P   -1.686408   -0.031757    0.161829
 H    0.934128    2.098988   -0.713838
 H    0.360679    1.575919    0.893873
 H    3.218310    1.451938    0.025905
 H    3.332586   -1.248619    0.193334
 H   -3.140797   -0.406141   -1.376185
 H   -0.390829   -1.681737   -0.119623
