23 
2vzr_ligand_dft.xyz
 C    0.912438    1.182721    0.228761
 C    1.509942   -0.097149    0.812403
 C    0.437399   -1.183468    0.913236
 C   -0.265157   -1.370357   -0.442635
 C   -0.768815   -0.005465   -0.959103
 C   -1.977758    0.555660   -0.214515
 O    1.986972    2.028769   -0.038183
 O    2.539566   -0.572732   -0.036391
 O   -0.468143   -0.739338    1.906195
 O    0.580732   -1.976344   -1.380921
 O    0.275717    0.935725   -1.013245
 O   -2.935546   -0.381626   -0.049720
 O   -2.117492    1.698064    0.139519
 H    0.198792    1.633609    0.927882
 H    1.898969    0.121488    1.815505
 H    0.919245   -2.130364    1.191364
 H   -1.127499   -2.033899   -0.317690
 H   -1.084483   -0.159468   -1.996192
 H    1.647941    2.774181   -0.550637
 H    2.978508    0.221848   -0.379682
 H   -1.176602   -1.390060    1.980788
 H    1.446343   -1.540889   -1.289533
 H   -3.683957    0.071755    0.371285
