17 
2w2i_ligand_xtb.xyz
 O    3.544764    0.046822    0.549700
 C    2.526635   -0.592040   -0.046618
 O    2.669370   -1.666617   -0.550692
 C    1.206792    0.126480   -0.040174
 C    1.109314    1.513845   -0.125770
 C   -0.154461    2.088844   -0.155298
 C    0.034271   -0.622357    0.010552
 C   -1.175953    0.057464   -0.001265
 N   -1.265638    1.382998   -0.085367
 C   -2.494836   -0.669092    0.081855
 O   -2.580797   -1.858659    0.196420
 O   -3.542876    0.146601    0.022504
 H    3.286595    0.884489    0.957208
 H    1.984633    2.142775   -0.204656
 H   -0.281014    3.159963   -0.235261
 H    0.058411   -1.699242    0.060418
 H   -3.223409    1.066992   -0.063289
