33 
2w4x_ligand_dft.xyz
 O   -0.332487    2.345364   -0.756338
 C   -0.735906    1.188998   -0.069516
 C   -2.255760    1.136528   -0.244216
 O   -2.842984    2.259314    0.362176
 C   -2.842688   -0.124373    0.373136
 C   -4.334656   -0.281563    0.131984
 O   -4.815286   -1.487466    0.675729
 O   -2.216698   -1.254815   -0.232819
 C   -0.839730   -1.306131    0.021388
 O   -0.311753   -2.451556   -0.558355
 C   -0.112333   -0.106342   -0.605240
 N    1.307545   -0.308725   -0.328998
 C    2.247176    0.588447    0.010033
 O    2.103728    1.790778    0.191573
 N    3.549592    0.031286    0.184678
 C    4.681671    0.858354    0.567413
 N    3.705526   -1.288836   -0.023997
 O    4.836407   -1.689962    0.138089
 H    0.593321    2.499426   -0.493703
 H   -0.520714    1.274530    1.007599
 H   -2.462878    1.116858   -1.327320
 H   -2.317069    3.015406    0.062208
 H   -2.652434   -0.133309    1.458090
 H   -4.527927   -0.217450   -0.950639
 H   -4.864607    0.537349    0.621970
 H   -4.274647   -2.188007    0.288303
 H   -0.671234   -1.295119    1.114966
 H   -0.671471   -3.221688   -0.101113
 H   -0.278305   -0.148402   -1.688751
 H    1.622115   -1.263432   -0.464896
 H    4.315919    1.873814    0.695991
 H    5.111360    0.479255    1.497582
 H    5.445874    0.817920   -0.212406
