35 
2w66_ligand_dft.xyz
 O   -2.457891   -0.544854   -1.412144
 C   -3.080817   -0.108753   -0.450837
 C   -4.572157    0.119707   -0.491090
 N   -2.449421    0.179779    0.725123
 C   -1.010574    0.031494    0.898816
 C   -0.541975   -1.432480    0.686536
 O    0.439912   -1.801947    1.642365
 C   -0.266723    1.116701    0.099589
 O   -0.604140    2.373119    0.666600
 C    1.275796    1.033326    0.180168
 O    1.820382    2.282121   -0.144849
 C    1.908655    0.089956   -0.856621
 C    3.434513    0.162056   -0.825125
 O    3.821964   -0.499464    0.361655
 N    1.564282   -1.351884   -0.607670
 C    0.122471   -1.752672   -0.652629
 H   -5.067829   -0.845417   -0.628550
 H   -4.809939    0.732160   -1.364157
 H   -4.971609    0.597611    0.406647
 H   -2.980113    0.570708    1.488112
 H   -0.814979    0.259459    1.951377
 H   -1.425568   -2.075854    0.760891
 H    0.049646   -1.878525    2.521044
 H   -0.576404    1.080334   -0.951765
 H   -1.372618    2.731604    0.208857
 H    1.580373    0.717871    1.190287
 H    1.208472    2.941714    0.221075
 H    1.537258    0.347511   -1.852718
 H    3.728016    1.214188   -0.846288
 H    3.850732   -0.337579   -1.714003
 H    4.729265   -0.267657    0.589151
 H    1.934721   -1.600473    0.324621
 H    2.089076   -1.915792   -1.280466
 H   -0.382268   -1.261757   -1.483063
 H    0.112779   -2.833173   -0.805062
