82 
2w68_ligand_xtb.xyz
 C   -1.584660    0.181504   -3.831792
 C   -1.192491    1.125778   -2.671075
 C   -1.818166    2.510989   -2.904087
 C   -3.327515    2.491584   -2.634673
 C   -3.544694    1.962136   -1.205168
 C   -2.962499    0.547753   -1.098182
 C   -3.014079    0.022099    0.353498
 C   -2.987076   -1.526803    0.452428
 C   -1.792588   -2.201368   -0.247840
 C   -5.503226    3.091417   -0.293762
 C   -6.989356    2.968211   -0.060543
 N   -4.941035    1.982418   -0.842280
 O   -2.684219   -0.287064   -3.974630
 O   -0.579533   -0.057992   -4.662180
 O   -3.913026    3.748933   -2.827804
 O   -1.593488    0.541020   -1.457197
 O   -2.005699    0.579066    1.145280
 O   -3.017223   -1.881164    1.812368
 O   -0.540857   -1.789345    0.238881
 O   -4.849913    4.072787   -0.009144
 C    2.185565   -0.196199    0.120756
 C    1.488978    0.966734   -0.600831
 C    0.949752    0.362173   -1.903203
 C    2.169950   -0.084127   -2.725983
 C    3.008580   -1.073492   -1.892996
 C    4.315053   -1.418616   -2.606684
 O    0.463579    1.515682    0.177697
 O    0.194926    1.318196   -2.635899
 O    2.950786    1.025390   -3.089014
 O    3.338322   -0.572988   -0.610736
 O    3.997321   -2.234171   -3.710247
 C    4.362507   -2.034575    3.796633
 C    4.204615   -1.064455    2.622957
 C    2.711027   -0.839281    2.347609
 C    1.970384   -0.453910    3.643854
 C    0.447563   -0.419737    3.444564
 C    3.556895   -1.528580    5.003329
 O    3.620938   -2.414691    6.063164
 O    5.703015   -2.164606    4.193773
 O    4.877308   -1.619547    1.521908
 O    2.535844    0.207149    1.401287
 O    2.204706   -1.407578    4.657613
 O   -0.056605   -1.680476    3.082362
 H   -1.613070    2.839033   -3.922999
 H   -1.329684    3.200104   -2.212012
 H   -3.820126    1.822867   -3.352458
 H   -3.025565    2.620651   -0.496121
 H   -3.532259   -0.126311   -1.754632
 H   -3.965505    0.342795    0.799948
 H   -3.903394   -1.928935    0.005277
 H   -1.909175   -3.287019   -0.115716
 H   -1.807569   -1.974501   -1.315462
 H   -7.332362    3.817701    0.522197
 H   -7.218284    2.045694    0.466965
 H   -7.506300    2.964707   -1.018034
 H   -5.530517    1.254709   -1.213769
 H   -0.860951   -0.646103   -5.384407
 H   -3.801797    4.279884   -2.025708
 H   -1.204844    0.664587    0.593684
 H   -2.382998   -1.306836    2.270482
 H   -0.551271   -1.865476    1.209428
 H    1.489432   -1.052199    0.165132
 H    2.240018    1.732490   -0.843171
 H    0.325920   -0.499311   -1.657794
 H    1.830700   -0.614136   -3.628336
 H    2.413631   -1.993895   -1.780611
 H    4.797209   -0.486195   -2.917430
 H    4.967227   -1.946991   -1.898363
 H    0.855121    1.788135    1.017392
 H    2.340816    1.692397   -3.429368
 H    4.796281   -2.372087   -4.229667
 H    3.956972   -3.014815    3.496034
 H    4.655792   -0.094084    2.892143
 H    2.279080   -1.771677    1.960076
 H    2.322501    0.540196    3.961093
 H    0.180294    0.267876    2.641567
 H   -0.011848   -0.081801    4.381242
 H    3.952893   -0.533216    5.299524
 H    4.517127   -2.775859    6.079593
 H    6.225566   -2.274071    3.389075
 H    4.554080   -1.187393    0.712127
 H    0.246692   -2.310971    3.749068
