22 
2w6m_ligand_dft.xyz
Br   -3.204028   -1.429927   -0.201477
 C   -2.204613    0.164997    0.023257
 C   -0.834112    0.143114   -0.203390
 C   -2.854834    1.331784    0.405380
 C   -2.114245    2.503256    0.547162
 C   -0.745666    2.501871    0.314582
 C   -0.097203    1.318291   -0.045047
 C    1.380033    1.380861   -0.300933
 O    1.901583    2.400594   -0.719658
 C    2.172792    0.194922    0.009809
 O    3.488836    0.181064   -0.421660
 C    3.995812   -0.940727    0.091949
 N    5.275261   -1.249123   -0.231961
 N    3.172693   -1.651955    0.820519
 C    2.008589   -0.927916    0.766957
 H   -0.355904   -0.773186   -0.530433
 H   -3.924885    1.325848    0.581049
 H   -2.616442    3.420505    0.837849
 H   -0.159812    3.410292    0.405077
 H    5.872567   -0.490983   -0.523956
 H    5.702222   -1.966505    0.333164
 H    1.124889   -1.246954    1.301223
