22 
2w6m_ligand_xtb.xyz
Br   -3.156934   -1.435520   -0.227989
 C   -2.158574    0.166951    0.031029
 C   -0.804912    0.167173   -0.252090
 C   -2.804596    1.300042    0.496846
 C   -2.075472    2.465081    0.665679
 C   -0.723042    2.488588    0.378337
 C   -0.077046    1.337224   -0.064151
 C    1.377195    1.419612   -0.392289
 O    1.857335    2.408724   -0.910666
 C    2.165552    0.259359   -0.016018
 O    3.471708    0.152886   -0.447741
 C    3.931661   -0.957058    0.129131
 N    5.174581   -1.385098   -0.151796
 N    3.065327   -1.565634    0.903433
 C    1.946883   -0.808966    0.821706
 H   -0.330151   -0.721085   -0.639012
 H   -3.861326    1.272039    0.713459
 H   -2.570910    3.357028    1.017475
 H   -0.147200    3.393869    0.494060
 H    5.806262   -0.742363   -0.596868
 H    5.547058   -2.117729    0.424918
 H    1.071374   -1.064369    1.382313
