40 
2w6n_ligand_xtb.xyz
 O    0.664533   -1.851971    1.820261
 C    0.770267   -1.071784    0.888175
 C    2.041416   -0.964817    0.142897
 O    2.803652   -2.106906    0.056294
 C    3.943045   -1.714591   -0.522193
 N    4.879599   -2.643358   -0.831466
 N    3.996933   -0.440862   -0.796455
 C    2.796392    0.049423   -0.375800
 N   -0.243830   -0.255887    0.509126
 C   -1.471949   -0.258161    1.290982
 C   -2.597590   -0.905142    0.528926
 C   -3.664856   -0.156497    0.052146
 C   -4.675211   -0.762024   -0.675949
 C   -4.621816   -2.119677   -0.939209
 C   -3.556480   -2.871710   -0.470778
 C   -2.549174   -2.267807    0.259005
 C   -0.259222    0.596746   -0.652461
 C   -0.061203    2.058967   -0.323682
 C    0.566688    2.459435    0.847999
 C    0.745210    3.804558    1.122672
 C    0.302143    4.762866    0.227950
 C   -0.324598    4.370516   -0.943058
 C   -0.508052    3.026873   -1.214577
 H    4.834370   -3.507346   -0.316749
 H    5.794225   -2.280053   -1.037524
 H    2.579982    1.094803   -0.456783
 H   -1.724810    0.775805    1.547451
 H   -1.261487   -0.821134    2.204003
 H   -3.707861    0.904725    0.256112
 H   -5.503397   -0.171563   -1.040027
 H   -5.409492   -2.591625   -1.507846
 H   -3.513185   -3.931698   -0.673719
 H   -1.716902   -2.847870    0.629397
 H   -1.228491    0.470309   -1.150782
 H    0.516078    0.269520   -1.351395
 H    0.915587    1.715555    1.549483
 H    1.233463    4.102956    2.038554
 H    0.442933    5.811648    0.442421
 H   -0.674538    5.112981   -1.644976
 H   -1.000940    2.721698   -2.126758
