27 
2w6o_ligand_xtb.xyz
 O    0.263786    2.562584   -0.141943
 C   -0.150724    1.418266   -0.256807
 C   -1.606332    1.141631   -0.545692
 C   -2.118881   -0.163599    0.072248
 C   -3.572762   -0.390194   -0.345514
 C   -2.037842   -0.090931    1.598608
 C   -1.247207   -1.309668   -0.451575
 C    0.210702   -1.054085   -0.248797
 N    1.000994   -2.119114   -0.162269
 C    2.291828   -1.894442    0.014913
 N    2.889974   -0.732626    0.131146
 C    2.117527    0.362252    0.050862
 C    0.712455    0.247380   -0.160112
 N    2.711981    1.548337    0.173062
 H   -1.704460    1.089875   -1.635587
 H   -2.193297    1.997249   -0.205565
 H   -3.663635   -0.435934   -1.428710
 H   -3.943937   -1.324535    0.068791
 H   -4.202925    0.418806    0.016769
 H   -2.413213   -1.011053    2.040711
 H   -1.012121    0.052857    1.930625
 H   -2.636098    0.737798    1.970922
 H   -1.416392   -1.436936   -1.526049
 H   -1.502668   -2.255807    0.027855
 H    2.926653   -2.769698    0.078734
 H    3.705496    1.582444    0.317289
 H    2.133078    2.378424    0.117387
