27 
2w6o_ligand_dft.xyz
 O    0.271602    2.569020   -0.133041
 C   -0.146258    1.419723   -0.238843
 C   -1.615353    1.162978   -0.510955
 C   -2.144007   -0.159234    0.068338
 C   -3.581607   -0.388175   -0.408361
 C   -2.124271   -0.114045    1.604075
 C   -1.245531   -1.294445   -0.447919
 C    0.225135   -1.054044   -0.234393
 N    1.001923   -2.138519   -0.151895
 C    2.305735   -1.899245    0.016432
 N    2.922652   -0.734632    0.124100
 C    2.140914    0.361580    0.047870
 C    0.734156    0.246925   -0.148699
 N    2.748001    1.548971    0.161286
 H   -1.734020    1.152836   -1.605215
 H   -2.178430    2.024694   -0.138617
 H   -3.638367   -0.418096   -1.502712
 H   -3.971571   -1.337525   -0.023766
 H   -4.240957    0.413672   -0.057140
 H   -2.511823   -1.050533    2.020218
 H   -1.114042    0.033721    2.000440
 H   -2.751905    0.705008    1.972679
 H   -1.405176   -1.421755   -1.528990
 H   -1.504531   -2.251532    0.016101
 H    2.943926   -2.779066    0.077937
 H    3.745984    1.563095    0.298476
 H    2.186593    2.390474    0.115208
