20 
2w70_ligand_xtb.xyz
 N   -3.402912    1.823034    0.154513
 C   -2.532445    0.793220    0.036686
 S   -3.132964   -0.877820   -0.072451
 C   -1.487515   -1.389470   -0.074637
 N   -1.258749    0.893430    0.059577
 C   -0.637785   -0.322901    0.001999
 C    0.818800   -0.392892    0.011297
 C    1.508704   -1.610095    0.073744
 C    2.890055   -1.535344    0.082648
 N    3.550225   -0.391968    0.033583
 C    2.802555    0.715372   -0.030425
 N    1.471962    0.761244   -0.038746
 N    3.454748    1.893653   -0.126464
 H   -4.347319    1.679565   -0.159927
 H   -3.010740    2.740405    0.018016
 H   -1.264184   -2.433940   -0.140335
 H    0.999259   -2.556453    0.122973
 H    3.504208   -2.426062    0.135491
 H    4.446493    1.902035    0.026889
 H    2.918572    2.736475   -0.028999
