45 
2w7x_ligand_xtb.xyz
 O    5.925473   -2.188288    0.425067
 N    6.746578   -1.287534    0.369615
 O    7.944376   -1.445198    0.479629
 C    6.252386    0.032981    0.160778
 C    7.128608    1.107084    0.085660
 C    4.878778    0.275283    0.027510
 N    3.811388   -0.543558    0.058893
 C    2.664984    0.187928   -0.119065
 C    2.993504    1.513872   -0.271695
 C    4.406785    1.603764   -0.182471
 C    5.311607    2.661612   -0.255216
 C    6.661333    2.400845   -0.119546
 C    1.381173   -0.544157   -0.100272
 O    1.357961   -1.749240    0.064083
 N    0.290298    0.251741   -0.276224
 C   -1.061549   -0.100362   -0.274739
 C   -1.998349    0.914490   -0.477564
 C   -3.344858    0.632686   -0.476752
 C   -3.805711   -0.671894   -0.277568
 C   -2.861078   -1.677664   -0.075198
 C   -1.507931   -1.402349   -0.071700
 C   -5.243675   -0.941034   -0.257796
 C   -5.739234   -2.340090   -0.528734
 N   -5.993435    0.059639    0.008322
 N   -7.323285   -0.018739    0.084768
 C   -8.044691    1.106299    0.477939
 N   -9.400564    0.872534    0.579374
 N   -7.560918    2.233554    0.776481
 H    8.184706    0.911847    0.190993
 H    2.334100    2.344674   -0.428032
 H    4.957515    3.668576   -0.414620
 H    7.371930    3.210623   -0.172519
 H    0.465147    1.237343   -0.411671
 H   -1.660327    1.929524   -0.636427
 H   -4.067445    1.417131   -0.633722
 H   -3.176923   -2.692742    0.109524
 H   -0.793692   -2.191170    0.093085
 H   -5.911931   -2.875285    0.406166
 H   -6.675294   -2.314278   -1.087613
 H   -5.014380   -2.891982   -1.119044
 H   -7.811986   -0.907338   -0.005265
 H   -9.921792    1.721736    0.733322
 H   -9.810165    0.259675   -0.108622
 H   -6.547290    2.250680    0.749098
 H    3.832430   -1.546429    0.195080
