23 
2w87_ligand_dft.xyz
 C    0.912484    1.182662    0.228946
 C    1.509755   -0.097336    0.812514
 C    0.437122   -1.183595    0.913040
 C   -0.265266   -1.370215   -0.442918
 C   -0.768790   -0.005223   -0.959181
 C   -1.977630    0.555838   -0.214437
 O    1.987198    2.028484   -0.038057
 O    2.539543   -0.572814   -0.036145
 O   -0.468644   -0.739693    1.905921
 O    0.580800   -1.975994   -1.381167
 O    0.275841    0.935899   -1.013119
 O   -2.117278    1.698138    0.139988
 O   -2.935465   -0.381431   -0.050133
 H    0.198886    1.633671    0.928017
 H    1.898647    0.121107    1.815708
 H    0.918888   -2.130563    1.191032
 H   -1.127625   -2.033781   -0.318203
 H   -1.084421   -0.159050   -1.996294
 H    1.648381    2.773651   -0.551004
 H    2.978579    0.221834   -0.379175
 H   -1.175821   -1.391622    1.982001
 H    1.446308   -1.540455   -1.289341
 H   -3.683839    0.071717    0.371172
