56 
2w8f_ligand_xtb.xyz
 C   46.043243   37.947965   53.469596
 N   45.876953   36.949422   54.543432
 C   46.804266   35.848058   54.237278
 C   46.088397   37.577480   55.889037
 C   44.855780   38.475967   56.058571
 C   43.754917   37.776266   55.241160
 C   44.440468   36.531722   54.661702
 C   46.131814   36.510459   56.976400
 C   44.858198   35.642044   57.026825
 C   44.300872   35.348068   55.611857
 O   45.216509   34.454190   57.679466
 C   44.208687   33.868428   58.521675
 C   44.827626   32.746502   59.315877
 C   44.799157   32.793777   60.702296
 C   45.345832   31.768638   61.453618
 C   45.933078   30.689378   60.817990
 C   45.963753   30.639230   59.435624
 C   45.414399   31.659609   58.673679
 C   45.396308   31.584536   57.177146
 C   43.983660   31.288633   56.675168
 C   42.908072   32.320266   56.910500
 C   41.710775   32.080855   56.232542
 C   40.608299   32.898817   56.362770
 C   40.676732   33.998166   57.201484
 C   41.852355   34.252203   57.877663
 C   42.978814   33.437552   57.745309
 H   45.389330   38.801060   53.611539
 H   47.073659   38.298882   53.453034
 H   45.814834   37.491785   52.507894
 H   46.552513   35.425277   53.266028
 H   47.821792   36.233721   54.200590
 H   46.758897   35.061542   54.981833
 H   47.024276   38.140492   55.882626
 H   44.060546   36.262162   53.673742
 H   44.589667   38.556799   57.109476
 H   45.044388   39.487094   55.700650
 H   46.993576   35.852042   56.869092
 H   46.255083   37.008085   57.939017
 H   42.911316   37.484947   55.862065
 H   43.363274   38.421052   54.455736
 H   43.241491   35.098642   55.691891
 H   44.789966   34.457656   55.216546
 H   44.086054   36.167650   57.606275
 H   43.892776   34.648657   59.232619
 H   44.341208   33.636318   61.200648
 H   45.314426   31.815142   62.531232
 H   46.364158   29.886949   61.396836
 H   46.419640   29.794778   58.939126
 H   45.759271   32.521423   56.756105
 H   46.053945   30.780255   56.841803
 H   44.028088   31.092850   55.599112
 H   43.643720   30.361665   57.149774
 H   41.650440   31.213811   55.590346
 H   39.700061   32.676482   55.824367
 H   39.823078   34.645049   57.333242
 H   41.897561   35.103503   58.544092
