63 
2w8g_ligand_dft.xyz
 C   -2.951733   -1.226700   -0.707904
 C   -3.009401   -2.089188   -1.801498
 C   -3.811365   -3.227007   -1.775894
 C   -4.555365   -3.510017   -0.637496
 C   -4.500112   -2.651818    0.458670
 C   -3.706050   -1.507073    0.441047
 C   -3.704697   -0.547364    1.603824
 C   -4.354757    0.792886    1.245289
 C   -3.621765    1.720893    0.290236
 C   -4.021110    3.063676    0.317791
 C   -3.472949    4.021469   -0.522834
 C   -2.487563    3.651519   -1.431869
 C   -2.078684    2.327284   -1.472776
 C   -2.625783    1.351364   -0.628763
 C   -2.023957   -0.033953   -0.759756
 O   -1.010304   -0.121641    0.261248
 C   -0.048631   -1.136191    0.080125
 C    0.521982   -1.460758    1.466943
 C    1.066888   -0.674031   -0.878377
 C    2.050132    0.303183   -0.227393
 C    1.402406    1.515290    0.460797
 C    1.064997    1.035084    1.896261
 C    1.542100   -0.426002    1.952548
 N    2.678722   -0.425719    0.947894
 C    3.965604    0.177295    1.458525
 C    5.062813    0.027966    0.443819
 C    5.434710    1.103407   -0.364978
 C    6.423086    0.942863   -1.331250
 C    7.041692   -0.293539   -1.494552
 C    6.679743   -1.369236   -0.686502
 C    5.695728   -1.207646    0.282416
 H   -2.425016   -1.864657   -2.691559
 H   -3.850470   -3.886154   -2.637247
 H   -5.183363   -4.394759   -0.600497
 H   -5.091080   -2.873129    1.343835
 H   -4.266699   -0.986377    2.434435
 H   -2.683931   -0.374122    1.959503
 H   -5.349470    0.591458    0.825281
 H   -4.528699    1.347144    2.174585
 H   -4.792885    3.359658    1.024171
 H   -3.816012    5.049949   -0.469048
 H   -2.052433    4.381655   -2.106848
 H   -1.317532    2.030683   -2.192303
 H   -1.524356   -0.062878   -1.738076
 H   -0.524814   -2.037715   -0.326114
 H    0.993825   -2.452202    1.455255
 H   -0.302437   -1.510606    2.182517
 H    0.628381   -0.185879   -1.753479
 H    1.620058   -1.542777   -1.260293
 H    2.846126    0.566739   -0.925420
 H    2.096550    2.359878    0.478256
 H    0.506872    1.827962   -0.076182
 H    1.581776    1.636070    2.648760
 H   -0.004675    1.091422    2.092697
 H    1.949155   -0.714047    2.924574
 H    2.900472   -1.384938    0.666730
 H    3.763411    1.222406    1.696534
 H    4.194196   -0.350731    2.388525
 H    4.959506    2.072559   -0.231763
 H    6.713727    1.783956   -1.952038
 H    7.814393   -0.417236   -2.246269
 H    7.172383   -2.328844   -0.803164
 H    5.436665   -2.043249    0.930727
