14 
2w97_ligand_xtb.xyz
 C   -1.448533    0.256632    0.200509
 O   -1.921539   -0.994694   -0.236955
 C    0.012985    0.421861   -0.246919
 O    0.475322    1.715106    0.070660
 C    0.914935   -0.592653    0.455413
 O    2.082299   -0.762543   -0.314464
 H   -1.495283    0.339555    1.295447
 H   -2.045330    1.073336   -0.233377
 H   -2.836787   -1.100178    0.043192
 H    0.078920    0.227727   -1.325154
 H    0.115429    2.347844   -0.559165
 H    0.368749   -1.540764    0.544394
 H    1.151685   -0.205516    1.454500
 H    2.697638   -1.319997    0.172221
