18 
2wa4_ligand_xtb.xyz
 C   -2.199156   -0.488640    0.093002
 O   -3.130651   -1.463000    0.233427
 C   -0.859654   -0.859803    0.050036
 C    0.129056    0.105122   -0.080710
 C    1.535214   -0.361317   -0.127847
 O    1.889909   -1.465648   -0.510844
 N    2.468344    0.546278    0.246550
 C   -0.218449    1.450468   -0.189787
 C   -1.551601    1.813195   -0.156679
 C   -2.540532    0.855908   -0.008919
 O    3.790547    0.094876    0.305994
 H   -4.016654   -1.080257    0.235931
 H   -0.590296   -1.901600    0.117281
 H    2.312850    1.347304    0.835005
 H    0.539912    2.204563   -0.331819
 H   -1.828854    2.852519   -0.248827
 H   -3.581291    1.150542    0.019361
 H    3.718217   -0.816439   -0.055977
