31 
2waj_ligand_xtb.xyz
Cl   -2.115504   -2.792677    1.042123
 C   -2.196770   -1.169319    0.468737
 C   -3.446267   -0.702081   -0.027581
 O   -4.448631   -1.606583   -0.028764
 C   -5.708890   -1.214288   -0.517809
 C   -1.094559   -0.367102    0.502067
 C   -1.168843    0.964676    0.041058
 C   -2.423900    1.462043   -0.397889
 C   -3.541453    0.603715   -0.440207
 C   -0.067163    1.864829    0.028996
 N   -0.196125    3.136597   -0.272053
 C   -1.389330    3.604535   -0.647661
 C   -2.506585    2.821117   -0.762540
 C    1.303158    1.425698    0.345116
 C    1.843065    0.290963   -0.253669
 C    3.144707   -0.071707    0.037698
Br    3.879059   -1.626262   -0.789648
 C    3.926745    0.664963    0.910470
 C    3.388695    1.802430    1.488854
 C    2.091073    2.186141    1.205058
 H   -6.134620   -0.402166    0.079631
 H   -5.650829   -0.905559   -1.566115
 H   -6.343142   -2.094889   -0.434341
 H   -0.170322   -0.749547    0.904302
 H   -4.475665    1.009429   -0.795404
 H   -1.410592    4.661049   -0.878903
 H   -3.442951    3.230594   -1.109214
 H    1.263307   -0.283915   -0.960038
 H    4.938911    0.358911    1.124959
 H    3.992582    2.391489    2.162296
 H    1.669631    3.076099    1.644718
