51 
2wb5_ligand_dft.xyz
 C   -6.246100   -2.358798   -0.070589
 C   -4.735685   -2.484135    0.096968
 C   -4.072130   -1.145524    0.374896
 O   -4.682100   -0.230024    0.929340
 N   -2.783073   -1.047370   -0.019622
 C   -1.859751    0.010283    0.379650
 C   -2.257340    1.431830   -0.050096
 O   -3.239036    2.012183    0.764155
 C   -1.043008    2.345481    0.113849
 O   -1.415766    3.685893   -0.111324
 C    0.103145    2.007912   -0.837226
 C    1.375250    2.789098   -0.465478
 O    1.237602    4.157383   -0.732139
 N    0.318571    0.566442   -0.770057
 C    1.367677   -0.149007   -1.302502
 C   -0.535477   -0.348994   -0.238476
 N   -0.099164   -1.579628   -0.388995
 C    1.098982   -1.467050   -1.055685
 C    1.991922   -2.643087   -1.279807
 C    2.802993   -2.986358   -0.006179
 C    3.644961   -1.817706    0.444006
 C    3.159777   -0.908138    1.386940
 C    3.889341    0.227374    1.725649
 C    5.120982    0.471781    1.123598
 C    5.618570   -0.430115    0.186900
 C    4.884083   -1.564352   -0.147764
 H   -6.698986   -3.346033   -0.198989
 H   -6.687975   -1.878976    0.805235
 H   -6.494370   -1.750893   -0.945766
 H   -4.502680   -3.137330    0.948345
 H   -4.279806   -2.949006   -0.784557
 H   -2.314042   -1.876510   -0.367475
 H   -1.776388    0.022528    1.476941
 H   -2.564697    1.412239   -1.108912
 H   -3.941541    1.339350    0.902380
 H   -0.681879    2.222862    1.150410
 H   -2.263845    3.796377    0.347784
 H   -0.189731    2.284658   -1.856938
 H    2.223875    2.439471   -1.059900
 H    1.613647    2.581908    0.591818
 H    0.380910    4.439376   -0.374696
 H    2.217084    0.325023   -1.768167
 H    2.686825   -2.427037   -2.099221
 H    1.393859   -3.512894   -1.572009
 H    2.101775   -3.273704    0.784641
 H    3.436756   -3.856317   -0.214039
 H    2.189422   -1.086255    1.844313
 H    3.495633    0.924435    2.460230
 H    5.690505    1.358693    1.385162
 H    6.581108   -0.251346   -0.283723
 H    5.275456   -2.263194   -0.884334
