50 
2wbg_ligand_xtb.xyz
 O    1.103808    7.735822   13.892931
 C    1.922347    6.855891   13.174851
 C    1.183905    6.398260   11.918511
 C    1.004039    7.447081   10.814842
 O    1.245151    6.755128    9.598832
 C    2.266063    5.610861   14.008280
 O    2.962489    6.041857   15.151600
 C    3.102748    4.623920   13.188820
 O    3.371620    3.508327   13.999322
 C    2.367850    4.204498   11.898136
 O    3.229558    3.428422   11.143512
 N    1.971413    5.411969   11.219620
 C    1.826889    5.555517    9.868734
 N    2.200325    4.683544    9.034026
 C    2.097438    4.935475    7.614801
 C    3.306295    5.722223    7.104396
 C    3.263239    5.907545    5.590990
 C    4.467096    6.694829    5.078354
 C    4.425350    6.869122    3.561573
 C    5.555096    7.744521    3.018317
 C    6.936488    7.105810    3.146257
 C    8.013111    7.963859    2.492616
 H    1.486607    7.817555   14.776673
 H    2.866448    7.350666   12.893738
 H    0.211536    5.983285   12.232393
 H    1.330670    5.110329   14.309619
 H    0.000214    7.870694   10.785526
 H    1.735971    8.256081   10.916073
 H    3.352517    5.257524   15.557295
 H    4.044311    5.111947   12.889301
 H    3.746282    2.826118   13.428248
 H    2.063611    3.955029    7.131931
 H    1.178377    5.483119    7.375503
 H    3.320500    6.697657    7.595802
 H    4.216370    5.189253    7.388349
 H    3.240518    4.927660    5.108148
 H    2.344008    6.431508    5.318222
 H    4.483188    7.678582    5.553466
 H    5.380162    6.170971    5.365498
 H    4.468840    5.887285    3.084122
 H    3.469682    7.324564    3.289443
 H    5.362169    7.946126    1.961424
 H    5.551526    8.703666    3.541711
 H    7.183024    6.967098    4.199997
 H    6.921893    6.120722    2.674051
 H    7.805781    8.096187    1.432732
 H    8.051284    8.946666    2.957767
 H    8.990443    7.497740    2.595220
 H    1.462347    3.619682   12.179875
 H    2.994404    3.567803   10.196554
