34 
2wd1_ligand_xtb.xyz
 O    4.730288    1.794164   -1.110244
 C    3.998705    1.432009   -0.214927
 N    3.884702    2.119210    0.951914
 C    3.138947    0.217541   -0.306873
 C    1.887937    0.149284    0.299796
 C    1.197646   -1.034233    0.136644
 C    3.607027   -0.881960   -1.045933
 N    2.964752   -2.019484   -1.184483
 C    1.775910   -2.108187   -0.597825
 C    0.837744   -3.183227   -0.548393
 C   -0.228320   -2.746363    0.166522
 N   -0.034748   -1.444955    0.586646
 S   -1.111449   -0.480603    1.446869
 O   -2.256262   -1.252469    1.792484
 O   -0.353339    0.146467    2.485287
 C   -1.616003    0.869700    0.343482
 C   -2.591946    0.740930   -0.634800
 N   -3.110768   -0.555345   -1.002769
 O   -2.332772   -1.480152   -0.939077
 O   -4.253595   -0.612691   -1.381103
 C   -1.128549    2.128681    0.642012
 C   -1.574337    3.241168   -0.055962
 C   -2.548214    3.104547   -1.032985
 C   -3.067963    1.854036   -1.317224
 H    4.502491    2.901207    1.096993
 H    3.416727    1.728979    1.750441
 H    1.475621    0.972850    0.861689
 H    4.569167   -0.812657   -1.534366
 H    0.963746   -4.149409   -0.991626
 H   -1.142502   -3.235852    0.433792
 H   -0.418743    2.221379    1.448112
 H   -1.172610    4.214902    0.177001
 H   -2.908226    3.969497   -1.567557
 H   -3.836123    1.716677   -2.063517
