17 
2wd7_ligand_xtb.xyz
Cl   -3.465752   -0.563514   -0.000308
 C   -1.813013   -0.042856   -0.001054
 C   -1.554596    1.326340    0.002551
 C   -0.253047    1.795833    0.002234
 C    0.759047    0.857139    0.000451
 C    0.495134   -0.534235   -0.001980
 C   -0.813389   -0.996781   -0.003877
 N    2.133776    0.959091   -0.007902
 C    2.615190   -0.326798   -0.002466
 N    1.677675   -1.231577   -0.006955
 N    3.950659   -0.590759    0.076223
 H   -2.380251    2.019739    0.005903
 H   -0.046028    2.855153    0.005812
 H   -1.032435   -2.050993   -0.006510
 H    4.576880    0.077051   -0.344219
 H    4.179887   -1.556735   -0.094515
 H    2.672997    1.806380    0.034063
