17 
2weh_ligand_dft.xyz
 C   -2.952474   -0.916301   -0.000165
Cl   -0.579617    2.292420    0.000190
 C   -2.060575   -1.981877    0.000262
 C   -0.691815   -1.738802    0.000363
 C   -0.207004   -0.432563   -0.000083
 C   -1.110405    0.636650   -0.000231
 C   -2.479266    0.390931   -0.000333
 S    1.559993   -0.118122    0.000205
 N    2.206698   -1.662500   -0.002351
 O    1.908670    0.493387   -1.269982
 O    1.909520    0.488415    1.272471
 H   -4.022786   -1.096192   -0.000283
 H   -2.424319   -3.003962    0.000557
 H    0.017630   -2.557222    0.000756
 H   -3.165534    1.230376   -0.000459
 H    2.748982   -1.810063   -0.847444
 H    2.756450   -1.809257    0.838033
