43 
2wei_ligand_xtb.xyz
 C   -3.961941   -0.700841    1.577052
 C   -3.661862   -0.930074    0.093550
 C   -4.612519   -0.100103   -0.772823
 C   -3.764407   -2.411239   -0.257548
 N   -2.301534   -0.484575   -0.168868
 N   -1.353163   -1.308642   -0.641243
 C   -1.807591    0.756792    0.004531
 N   -2.444360    1.845661    0.455946
 C   -1.675445    2.909016    0.507028
 N   -0.393603    3.016742    0.185140
 C    0.252603    1.940661   -0.262785
 N    1.543770    2.101690   -0.623113
 C   -0.444457    0.721180   -0.384815
 C   -0.240491   -0.625790   -0.784951
 C    1.001312   -1.272204   -1.303420
 C    2.165179   -1.062475   -0.372835
 C    3.385444   -0.595930   -0.848911
 C    2.024852   -1.311893    0.986771
 C    3.085508   -1.094033    1.846784
 C    4.293836   -0.626283    1.361258
 C    4.459098   -0.375606    0.004911
 C    5.773326    0.113076   -0.523824
 H   -3.276027   -1.276132    2.195472
 H   -3.850576    0.353954    1.814413
 H   -4.978692   -1.009451    1.803878
 H   -4.503155    0.953827   -0.530860
 H   -4.386830   -0.245154   -1.827196
 H   -5.640636   -0.400701   -0.590887
 H   -3.522814   -2.568775   -1.304879
 H   -3.067908   -2.991240    0.341217
 H   -4.775160   -2.762014   -0.068090
 H   -2.143021    3.817838    0.864417
 H    1.965289    2.981862   -0.378136
 H    2.137862    1.293312   -0.722444
 H    1.238594   -0.870422   -2.293043
 H    0.793981   -2.339933   -1.410637
 H    3.506256   -0.410348   -1.908789
 H    1.080585   -1.675339    1.364240
 H    2.969901   -1.288244    2.902940
 H    5.118269   -0.455457    2.038232
 H    6.488865   -0.708543   -0.559236
 H    5.667050    0.514438   -1.528737
 H    6.185730    0.884863    0.123245
