80 
2weq_ligand_xtb.xyz
 O   39.118467  -51.445640   68.107353
 O   37.661097  -47.221910   63.415607
 O   38.217528  -44.530953   63.585887
 O   37.881125  -44.423737   61.346009
 O   45.177070  -43.776699   64.294269
 O   45.399029  -46.480988   63.865650
 O   42.658138  -44.723575   68.704603
 O   40.159217  -44.636788   69.125297
 O   42.171696  -49.450321   68.167704
 N   39.465909  -49.252588   68.470747
 N   36.531028  -43.333285   62.800713
 C   39.602227  -50.410400   67.713626
 C   40.230638  -50.243753   66.378891
 C   39.910811  -49.157367   65.652013
 C   40.391166  -48.851990   64.328121
 C   40.013703  -47.807888   63.582351
 C   38.928563  -46.819967   63.908913
 C   39.333283  -45.409448   63.407518
 C   40.503027  -44.831575   64.173265
 C   41.592758  -44.438775   63.522509
 C   42.788074  -43.728051   64.080737
 C   44.088210  -44.459963   63.715777
 C   44.121607  -45.936233   64.177838
 C   43.921925  -46.032813   65.693925
 C   44.270245  -47.400854   66.286148
 C   44.012057  -47.431724   67.810859
 C   42.585074  -47.129359   68.201352
 C   42.071413  -45.919160   68.551341
 C   40.601302  -45.736046   68.857922
 C   39.772175  -46.920734   68.816439
 C   40.253267  -48.127197   68.456648
 C   41.724030  -48.318511   68.223887
 C   41.066695  -51.401278   65.950943
 C   37.587100  -47.587902   62.052871
 C   37.569573  -44.134733   62.474355
 C   40.270839  -44.693569   65.647910
 C   42.830104  -42.307107   63.507529
 C   45.553133  -46.929068   62.543341
 C   43.511752  -48.516597   65.579799
 C   44.019761  -44.517731   69.000490
 H   45.922020  -44.394653   64.288102
 H   38.729900  -49.292198   69.166806
 H   36.278196  -43.211146   63.764200
 H   35.906739  -43.030346   62.075914
 H   39.220545  -48.440213   66.074672
 H   41.143458  -49.515930   63.925021
 H   40.471712  -47.668741   62.611770
 H   38.752524  -46.753946   64.985913
 H   39.560480  -45.449187   62.335236
 H   41.631184  -44.573821   62.447878
 H   42.739373  -43.654757   65.166981
 H   44.192830  -44.444448   62.616086
 H   43.333760  -46.496474   63.655661
 H   44.554283  -45.269438   66.150609
 H   42.878556  -45.801412   65.903304
 H   45.341813  -47.572222   66.144643
 H   44.229514  -48.445045   68.156551
 H   44.713533  -46.758503   68.293302
 H   38.728868  -46.781857   69.064030
 H   41.247726  -51.414760   64.881731
 H   42.018336  -51.363070   66.481147
 H   40.563448  -52.319798   66.248951
 H   36.542518  -47.843430   61.883598
 H   37.863678  -46.766345   61.386499
 H   38.209730  -48.463058   61.839851
 H   40.901088  -43.930546   66.092700
 H   39.231812  -44.428969   65.828741
 H   40.470709  -45.640826   66.152482
 H   43.724321  -41.801170   63.859632
 H   42.847566  -42.334303   62.420249
 H   41.952904  -41.750800   63.827217
 H   46.524400  -47.419258   62.500284
 H   44.770496  -47.648492   62.274829
 H   45.535043  -46.106648   61.819886
 H   43.643173  -49.457198   66.107033
 H   42.450334  -48.285998   65.541843
 H   43.879669  -48.642190   64.565682
 H   44.075349  -43.483109   69.340701
 H   44.357046  -45.176637   69.804073
 H   44.658557  -44.633781   68.122033
