35 
2wev_ligand_dft.xyz
 N    2.882470   -3.692186   -0.256101
 C    2.911684   -2.336452   -0.125812
 N    4.023933   -1.666134    0.042262
 C    3.773724   -0.319172    0.088385
 C    4.951313    0.586756    0.297432
 S    1.462584   -1.383916   -0.235854
 C    2.454593    0.049392   -0.043561
 C    1.784510    1.336139   -0.021343
 N    0.437364    1.275901   -0.016851
 C    2.435654    2.575685   -0.016540
 C    1.626648    3.702888    0.005829
 N    0.298665    3.661478    0.018455
 C   -0.227935    2.424599    0.001877
 N   -1.604974    2.423847    0.002878
 C   -2.538466    1.389804   -0.012139
 C   -3.890615    1.753475   -0.121745
 C   -2.211503    0.034066    0.087200
 C   -3.241897   -0.894994    0.064453
 N   -2.889458   -2.320923    0.165350
 O   -3.802176   -3.132577    0.143016
 O   -1.708415   -2.616453    0.266305
 C   -4.582023   -0.557189   -0.045067
 C   -4.892602    0.794834   -0.136405
 H    3.730954   -4.162961    0.023232
 H    2.022526   -4.178786   -0.054432
 H    5.831687   -0.024144    0.503777
 H    5.156040    1.190683   -0.594065
 H    4.792102    1.268519    1.139340
 H    3.510714    2.671382   -0.045938
 H    2.070755    4.696230    0.010270
 H   -1.975781    3.363227   -0.008097
 H   -4.155069    2.805116   -0.199042
 H   -1.185217   -0.285467    0.177513
 H   -5.341372   -1.327640   -0.057929
 H   -5.928449    1.105871   -0.222880
