46 
2wey_ligand_xtb.xyz
 C   -4.006907    0.429699    2.797269
 O   -2.894237    0.907267    2.076146
 C   -2.718273    0.605621    0.758368
 C   -3.404757   -0.367707    0.007475
 O   -4.366292   -1.126785    0.635806
 C   -5.097571   -2.053464   -0.124364
 C   -3.073307   -0.524341   -1.331755
 C   -2.083263    0.236744   -1.929248
 C   -1.725364    1.355190    0.136875
 C   -1.388531    1.184707   -1.196085
 C   -0.298537    2.019345   -1.813284
 C    0.920440    2.118296   -0.934161
 N    1.267943    3.329270   -0.573407
 C    2.338323    3.500654    0.210654
 C    3.107192    2.468027    0.674668
 C    2.763996    1.151475    0.310344
 C    1.636175    0.963409   -0.525422
 C    1.277345   -0.349698   -0.900998
 C    1.987008   -1.430297   -0.456702
 O    1.701415   -2.727785   -0.744743
 C    0.560716   -2.995760   -1.520984
 C    3.131983   -1.239473    0.384157
 C    3.498505    0.027659    0.747368
 O    3.763875   -2.382343    0.751492
 C    4.895520   -2.280513    1.579338
 H   -4.947485    0.686712    2.304769
 H   -3.962309   -0.650916    2.947489
 H   -3.955288    0.933059    3.762896
 H   -5.640769   -1.568879   -0.942483
 H   -4.455773   -2.843072   -0.529853
 H   -5.812611   -2.495434    0.568407
 H   -3.587821   -1.259276   -1.930040
 H   -1.858335    0.079616   -2.974493
 H   -1.211978    2.090194    0.736715
 H   -0.661049    3.037915   -1.971379
 H   -0.018838    1.603822   -2.784808
 H    2.559026    4.530042    0.461181
 H    3.961510    2.647626    1.309954
 H    0.418987   -0.485909   -1.534354
 H   -0.347454   -2.602790   -1.051066
 H    0.653128   -2.578583   -2.529472
 H    0.497737   -4.080965   -1.585283
 H    4.354248    0.201874    1.380793
 H    5.695186   -1.707544    1.098219
 H    4.648877   -1.820316    2.541876
 H    5.233174   -3.302350    1.744108
