80 
2wez_ligand_dft.xyz
 C    3.012360   -0.036987    1.196103
 C    1.655097    0.262469    1.215297
 C    0.804081   -0.629186    0.579797
 C    1.301946   -1.805418   -0.014305
 C    2.658343   -2.082542   -0.075855
 C    3.557899   -1.176175    0.542402
 C   -0.631117   -0.282301    0.516518
 N   -1.408039   -0.962648   -0.363440
 O   -1.107454    0.652927    1.195512
 C   -2.869500   -1.068078   -0.343680
 C   -3.427167   -1.298840    1.075496
 C   -3.621681    0.032094   -1.137276
 O   -3.043178    0.243965   -2.412529
 C   -4.920439   -1.536113    1.073285
 C   -3.695947    1.431625   -0.528718
 N   -2.368439    2.082187   -0.653385
 C   -2.289512    3.554943   -0.404099
 C   -5.455352   -2.685726    0.483645
 C   -6.830039   -2.890675    0.442378
 C   -7.694023   -1.947808    0.995251
 C   -7.173577   -0.806510    1.596397
 C   -5.795977   -0.604582    1.634041
 N    4.049522    0.687794    1.737107
 C    4.195682   -5.310795   -1.028776
 C    3.238381   -5.074644   -2.195443
 C    2.404276   -3.886342   -1.748055
 N    3.094746   -3.253386   -0.725051
 C    4.375093   -3.906676   -0.442439
 O    1.329125   -3.550127   -2.209009
 C    5.219653    0.036185    1.451235
 C    4.977262   -1.091362    0.716712
 C    3.485521    1.431851    4.035679
 C    3.905651    1.833150    2.624871
 C    1.478255    3.833227   -0.701735
 C    1.611902    4.763011   -1.736399
 C    0.471874    5.323464   -2.305306
 C   -0.798393    4.960403   -1.873385
 C   -0.927431    4.038172   -0.834154
 C    0.205723    3.488440   -0.241647
 O    2.511321    3.211582   -0.088550
 C    3.808933    3.360269   -0.636843
 H    1.268881    1.154558    1.691920
 H    0.630902   -2.539839   -0.431264
 H   -0.927751   -1.590422   -0.991797
 H   -3.071722   -1.984997   -0.911646
 H   -2.904542   -2.168661    1.488908
 H   -3.172642   -0.451787    1.716985
 H   -4.658845   -0.313390   -1.226655
 H   -3.108429   -0.556548   -2.946579
 H   -3.977442    1.412381    0.524586
 H   -4.419920    2.026283   -1.089807
 H   -1.752855    1.594425    0.049275
 H   -2.009197    1.865794   -1.590701
 H   -2.476537    3.702506    0.663171
 H   -3.087460    4.038949   -0.972152
 H   -4.788684   -3.438006    0.066598
 H   -7.228504   -3.791850   -0.013226
 H   -8.766920   -2.108639    0.965809
 H   -7.839379   -0.074918    2.043762
 H   -5.396841    0.279439    2.127254
 H    3.731874   -5.967234   -0.286207
 H    5.147918   -5.753489   -1.326388
 H    2.590409   -5.918740   -2.436633
 H    3.771221   -4.791451   -3.111574
 H    4.570187   -3.910356    0.632414
 H    5.193751   -3.379378   -0.947312
 H    6.161386    0.437064    1.801470
 H    5.739457   -1.760843    0.353507
 H    3.401687    2.319710    4.669300
 H    4.221915    0.756536    4.480992
 H    2.516809    0.923457    4.026772
 H    4.870797    2.347820    2.643444
 H    3.183373    2.520993    2.174950
 H    2.588932    5.055654   -2.102581
 H    0.581740    6.048255   -3.105449
 H   -1.678850    5.391857   -2.340174
 H    0.126914    2.767545    0.567128
 H    3.822802    3.085984   -1.697833
 H    4.445679    2.671190   -0.081673
 H    4.180179    4.384495   -0.514544
