18 
2wi3_ligand_dft.xyz
 N    2.577685   -1.870202   -0.000180
 C    1.617161   -0.926308    0.000195
 N    2.017649    0.357984    0.000395
 C    1.025974    1.243328    0.000157
 C    1.405669    2.694596   -0.000392
 N    0.343724   -1.348116   -0.000474
 C   -0.545410   -0.361913   -0.000361
 N   -0.280553    0.947250   -0.000055
 S   -2.222820   -0.896678   -0.000377
 C   -3.099805    0.688926    0.000851
 H    3.544329   -1.592315    0.002257
 H    2.318499   -2.842232    0.001817
 H    2.015168    2.918905    0.880337
 H    2.014670    2.918360   -0.881609
 H    0.513122    3.321232   -0.000359
 H   -2.853253    1.269293    0.890669
 H   -2.854015    1.270205   -0.888611
 H   -4.164474    0.443229    0.001040
