34 
2wi4_ligand_dft.xyz
Cl   -2.558511    4.481249   -0.474416
 C   -2.112286    2.794940   -0.415453
 C   -1.257555    2.275512   -1.380547
 C   -0.913102    0.933380   -1.312843
 C   -2.615396    1.999061    0.604203
 C   -2.259752    0.654424    0.645599
Cl   -2.870675   -0.296333    1.974798
 C   -1.409176    0.095552   -0.310763
 C   -1.039782   -1.347682   -0.311784
 N   -2.033493   -2.221154   -0.437964
 C    0.297267   -1.760191   -0.214117
 C    0.521725   -3.143772   -0.240883
 N   -0.449783   -4.030526   -0.358095
 C   -1.695739   -3.518996   -0.455645
 N   -2.702920   -4.408302   -0.604220
 N    1.292011   -0.778384   -0.064113
 N    2.466261   -1.210243   -0.071628
 C    3.454550   -0.200490    0.085898
 C    3.172776    1.162333    0.235273
 C    4.218561    2.062446    0.377092
 C    5.541479    1.615657    0.372040
 C    5.818908    0.260104    0.223588
 C    4.775060   -0.647991    0.080159
 H   -0.868986    2.910040   -2.168644
 H   -0.242866    0.516570   -2.057036
 H   -3.269811    2.414759    1.360854
 H    1.536088   -3.523081   -0.151357
 H   -3.651492   -4.078128   -0.538017
 H   -2.502284   -5.387792   -0.489201
 H    2.139341    1.491382    0.237886
 H    4.005113    3.120775    0.494155
 H    6.353825    2.327461    0.484679
 H    6.846475   -0.090161    0.219424
 H    4.961008   -1.710869   -0.037979
