49 
2wj2_ligand_dft.xyz
 O    1.699282    3.504353   -0.587509
 C    1.446863    2.132134   -0.345223
 C    0.072621    1.933466    0.223163
 O   -0.833519    1.242521   -0.493833
 C   -1.959121    1.228250    0.279777
 C   -3.132071    0.507927   -0.197054
 C   -3.176043   -0.055289   -1.476317
 C   -4.320221   -0.744845   -1.854066
 C   -5.375141   -0.846777   -0.953436
 C   -5.232137   -0.247069    0.294896
 N   -4.142644    0.414646    0.679305
 C   -1.677494    1.920640    1.413227
 N   -0.370870    2.365025    1.362780
 C    2.492293    1.503009    0.580311
 C    3.911483    1.525771    0.008594
 C    4.080382    0.767130   -1.319434
 C    3.434309   -0.623225   -1.355390
 C    3.953115   -1.594687   -0.292632
 C    3.064782   -2.841127   -0.138820
 C    1.674420   -2.498686    0.351264
 C    0.558081   -2.619083   -0.478035
 C    1.485080   -2.000327    1.644525
 C    0.222490   -1.625092    2.092240
 C   -0.883226   -1.755999    1.255169
 C   -0.710444   -2.256221   -0.031365
 H    1.567677    3.962820    0.253876
 H    1.470698    1.652203   -1.327084
 H   -2.328939    0.047545   -2.145098
 H   -4.387557   -1.196193   -2.839366
 H   -6.287078   -1.376429   -1.206924
 H   -6.033186   -0.304182    1.028563
 H   -2.328882    2.118259    2.250597
 H    2.460920    2.040327    1.537016
 H    2.182383    0.475394    0.803489
 H    4.220869    2.565991   -0.141046
 H    4.588890    1.108493    0.763475
 H    3.656891    1.368284   -2.133994
 H    5.152960    0.680715   -1.536378
 H    3.587838   -1.066009   -2.348385
 H    2.347779   -0.521229   -1.241017
 H    4.012240   -1.092156    0.680724
 H    4.977398   -1.901596   -0.539835
 H    2.996817   -3.362957   -1.101442
 H    3.541121   -3.536334    0.563507
 H    0.685603   -3.001860   -1.488081
 H    2.341130   -1.899863    2.308690
 H    0.099677   -1.229067    3.095927
 H   -1.870266   -1.466102    1.602581
 H   -1.566605   -2.358147   -0.692016
