31 
2wky_ligand_xtb.xyz
 O   14.528455    5.559491   24.826697
 C   13.456618    6.334004   25.020531
 O   12.944879    6.455377   26.096551
 C   12.976797    7.076568   23.775461
 N   11.627778    7.553808   23.975662
 C   14.006700    8.201485   23.477889
 C   13.792316    8.740385   22.092149
 C   14.153680    7.846904   21.000810
 C   13.277508    9.960469   21.917670
 C   12.971067   10.636910   20.618486
 C   12.153124    9.764526   19.658747
 C   13.031087    8.836579   18.830506
 C   13.852839    7.916553   19.657788
 O   14.422977    6.890610   19.005721
 N   15.110007    6.121547   19.883758
 C   14.960112    6.661588   21.062078
 O   15.534693    6.090144   22.139753
 H   14.857066    5.618564   23.911935
 H   12.966618    6.372004   22.930462
 H   11.471301    7.712169   24.967155
 H   11.467714    8.419494   23.472963
 H   15.023681    7.818866   23.573131
 H   13.873374    8.994360   24.216692
 H   13.060829   10.543676   22.802768
 H   13.904542   10.927947   20.128458
 H   12.416442   11.551904   20.830819
 H   11.597435   10.406236   18.973410
 H   11.431640    9.177646   20.229252
 H   13.700010    9.422850   18.192989
 H   12.414597    8.226241   18.165178
 H   16.061115    5.344094   21.818531
