24 
2wmr_ligand_xtb.xyz
 O    1.519148    2.552688    0.031762
 C    1.710334    1.355235    0.025730
 C    0.733502    0.292376    0.015904
 C   -0.685607    0.391012    0.010168
 C   -1.462554    1.666730    0.043829
 C   -2.910957    1.420856   -0.373128
 C   -3.481787    0.217367    0.373844
 C   -2.753390   -1.062431   -0.042946
 C   -1.282747   -0.830269   -0.014607
 S   -0.136284   -2.147205   -0.037089
 C    1.176961   -1.026594   -0.007524
 N    2.471827   -1.413924   -0.011922
 C    3.336315   -0.464354    0.004376
 N    3.022460    0.854959    0.022347
 H   -0.982587    2.401599   -0.604176
 H   -1.426755    2.070168    1.060421
 H   -2.954016    1.229684   -1.447431
 H   -3.508174    2.309582   -0.164728
 H   -4.547880    0.113045    0.166820
 H   -3.359264    0.370995    1.447733
 H   -3.054657   -1.347794   -1.056548
 H   -3.018272   -1.890322    0.618322
 H    4.384796   -0.725503    0.002674
 H    3.753750    1.555515    0.029398
