38 
2wo8_ligand_dft.xyz
 C    5.815823    0.157447   -0.418792
 C    3.519307    1.574739    0.240611
 C    4.591653   -0.497124   -0.338963
 C    5.896653    1.524278   -0.167272
 C    4.743323    2.230240    0.163676
 C    3.424447    0.200978   -0.009366
 C    2.118181   -0.499763    0.073194
 O   -3.360748   -0.449016    1.392444
 C    1.207013   -0.208759    1.094060
 C    0.541697   -2.130587   -0.785177
 C   -2.807274   -1.799008   -0.482975
 C   -3.060674   -0.380647    0.013338
 C   -0.366185   -1.842537    0.235179
 C    1.763057   -1.472478   -0.866953
 C   -0.012759   -0.869090    1.173433
 C   -1.707657   -2.532155    0.303082
 C   -4.206961    0.277748   -0.762982
 C   -4.460244    1.692579   -0.311027
 O   -5.177201    2.397785   -1.197579
 O   -4.085222    2.172890    0.739024
 H    6.711504   -0.403640   -0.669450
 H    2.619616    2.136828    0.476071
 H    4.540360   -1.568701   -0.511415
 H    6.852531    2.035828   -0.228838
 H    4.795217    3.298297    0.354546
 H   -3.485044    0.468743    1.680292
 H    1.468890    0.526348    1.850219
 H    0.287470   -2.881525   -1.530189
 H   -3.740580   -2.371053   -0.404201
 H   -2.537004   -1.754802   -1.545991
 H   -2.149272    0.216500   -0.145442
 H    2.444509   -1.703123   -1.681439
 H   -0.713849   -0.628077    1.968250
 H   -2.027599   -2.619091    1.345414
 H   -1.618224   -3.549257   -0.095850
 H   -5.133250   -0.288839   -0.600900
 H   -4.015413    0.279001   -1.840984
 H   -5.310915    3.278132   -0.809612
