38 
2wo8_ligand_xtb.xyz
 C   47.602254   39.255002   30.783994
 C   48.436957   41.873989   30.477867
 C   48.121305   39.676903   29.574202
 C   47.494516   40.140978   31.842831
 C   47.912303   41.451806   31.685153
 C   48.547157   40.992300   29.405191
 C   49.101534   41.441388   28.119585
 O   51.611729   42.062581   21.466383
 C   48.518440   41.051529   26.916621
 C   50.740281   42.688668   26.866579
 C   51.778887   41.706138   23.880517
 C   52.476868   42.123170   22.580065
 C   50.153342   42.304942   25.667762
 C   50.220973   42.268602   28.075532
 C   49.036933   41.479793   25.710085
 C   50.742224   42.733459   24.353886
 C   53.648403   41.181852   22.266610
 C   54.764423   41.307478   23.267595
 O   55.225391   40.409313   23.917678
 O   55.219762   42.564904   23.364184
 H   47.281854   38.229979   30.902628
 H   48.218477   38.977236   28.756668
 H   47.086795   39.811253   32.787044
 H   48.746315   42.902010   30.355357
 H   47.827059   42.148479   32.506657
 H   47.638372   40.425119   26.929508
 H   50.698961   42.567491   28.997099
 H   50.830641   42.594412   21.651384
 H   52.869472   43.147535   22.689542
 H   48.565000   41.172987   24.787065
 H   51.613309   43.326115   26.851696
 H   51.291886   40.741256   23.724505
 H   52.533295   41.578229   24.658986
 H   51.226374   43.707154   24.463362
 H   49.943375   42.826393   23.613321
 H   53.299096   40.150116   22.244606
 H   54.033165   41.446064   21.279948
 H   55.946873   42.610378   24.005303
