43 
2wo9_ligand_xtb.xyz
 C   46.926025   39.531924   34.315209
 C   48.359734   39.930526   34.057428
 O   49.190603   39.904842   34.939044
 C   48.707587   40.354823   32.679020
 C   50.033064   40.710831   32.420432
 C   50.426731   41.118144   31.164622
 C   47.785346   40.417161   31.634587
 C   48.182109   40.821030   30.376229
 C   49.505397   41.179225   30.119194
 C   49.917726   41.612401   28.778211
 C   50.797414   42.680231   28.614376
 C   51.178346   43.091408   27.352340
 C   49.437768   40.967546   27.640553
 C   49.829012   41.377108   26.380949
 C   50.699455   42.447385   26.218462
 C   51.152227   42.868005   24.849813
 C   52.422942   42.102269   24.458008
 C   52.985654   42.541161   23.100211
 O   52.167445   42.131612   22.025788
 C   54.364758   41.911653   22.855837
 C   55.404361   42.444484   23.804065
 O   55.546227   43.773647   23.702385
 O   56.052251   41.788925   24.573522
 H   46.261911   40.368277   34.108063
 H   46.647972   38.697016   33.675784
 H   46.819149   39.238557   35.356424
 H   50.742575   40.655923   33.232807
 H   46.751477   40.154618   31.796737
 H   51.459968   41.372441   30.979889
 H   47.453336   40.881588   29.580899
 H   51.165162   43.206155   29.483152
 H   48.771536   40.123893   27.746310
 H   51.854183   43.927875   27.243934
 H   49.451677   40.859502   25.510255
 H   50.356929   42.665575   24.127724
 H   51.362427   43.940403   24.841119
 H   53.184955   42.262553   25.222819
 H   52.207203   41.032516   24.419319
 H   53.093974   43.638280   23.087399
 H   51.277367   42.471213   22.165511
 H   54.300745   40.829266   22.961278
 H   54.664369   42.152956   21.834676
 H   56.230905   44.087049   24.314614
