26 
2woq_ligand_xtb.xyz
 O  -22.483211   22.786203   16.828587
 C  -22.906736   23.116654   17.917418
 C  -22.520792   24.397534   18.618732
 N  -23.812810   22.365090   18.580596
 C  -24.124001   21.016788   18.137512
 C  -23.252156   19.986945   18.852291
 C  -23.952325   20.917581   16.607540
 C  -24.912836   21.786767   15.821296
 C  -24.326598   22.158851   14.464275
 C  -25.227731   23.080655   13.695931
 O  -24.789885   23.275148   12.443845
 O  -26.223893   23.608979   14.115184
 O  -23.253765   20.080630   16.102090
 H  -21.991899   24.169942   19.542052
 H  -21.871685   24.979327   17.971401
 H  -23.409250   24.977705   18.857092
 H  -24.069440   22.609693   19.524576
 H  -25.184670   20.832180   18.353557
 H  -23.518796   18.988198   18.520002
 H  -22.208383   20.160619   18.603355
 H  -23.383744   20.052725   19.930314
 H  -25.829358   21.205512   15.679808
 H  -25.175245   22.686789   16.376027
 H  -23.369143   22.663024   14.619159
 H  -24.124123   21.267924   13.869006
 H  -25.376525   23.886535   11.971354
