57 
2wpa_ligand_dft.xyz
 O   -3.393801   -1.814491    0.531377
 C   -2.407736   -1.081228    0.413341
 C   -2.658925    0.441292    0.378319
 C   -2.944910    0.826022   -1.079888
 C   -3.368258    2.276865   -1.214294
 N   -4.574106    2.547403   -0.344997
 C   -5.097150    3.927382   -0.525487
 C   -4.281214    2.232536    1.103622
 C   -3.861670    0.781114    1.256323
 N   -1.143392   -1.470314    0.236585
 C    0.001845   -0.513912    0.118809
 C   -0.750930   -2.925921    0.116961
 C   -1.466976   -3.588418   -1.063941
 C   -1.030768   -3.669116    1.426296
 C    0.718980   -2.759154   -0.145759
 N    1.714864   -3.609585   -0.390820
 N    2.825954   -2.839957   -0.571766
 C    2.476415   -1.550871   -0.434792
 C    1.121467   -1.435413   -0.154662
 N    3.482412   -0.574843   -0.578896
 C    3.320953    0.762002   -0.579190
 O    2.237214    1.331510   -0.429534
 C    4.599023    1.574083   -0.750500
 C    4.800469    2.549672    0.417746
 C    4.978857    1.797551    1.738536
 C    5.983342    3.480810    0.148967
 H   -1.787002    1.001436    0.729184
 H   -3.726556    0.164605   -1.477799
 H   -2.055908    0.673480   -1.698530
 H   -3.648461    2.539992   -2.237612
 H   -2.587190    2.963015   -0.872599
 H   -5.299411    1.887260   -0.642635
 H   -5.990814    4.055932    0.086608
 H   -4.325816    4.631394   -0.209877
 H   -5.335834    4.086235   -1.577904
 H   -5.188487    2.466780    1.666806
 H   -3.490181    2.927016    1.404034
 H   -3.627013    0.607564    2.310772
 H   -4.684098    0.100330    1.009062
 H    0.114052    0.057783    1.050781
 H   -0.171620    0.209945   -0.687495
 H   -2.540767   -3.689281   -0.884334
 H   -1.299319   -3.006368   -1.976078
 H   -1.025806   -4.577984   -1.216731
 H   -0.535509   -3.159904    2.258907
 H   -2.103931   -3.740335    1.626270
 H   -0.606154   -4.674783    1.349682
 H    4.400974   -0.968859   -0.723283
 H    4.504270    2.141461   -1.684789
 H    5.481587    0.927916   -0.850282
 H    3.884392    3.149147    0.484744
 H    4.112833    1.164121    1.955333
 H    5.866907    1.153430    1.702683
 H    5.106478    2.495863    2.573642
 H    6.917295    2.910791    0.062913
 H    5.847031    4.041833   -0.782890
 H    6.109731    4.203318    0.963507
