40 
2wtd_ligand_xtb.xyz
 N   -6.418256   -2.254247   -0.333399
 C   -6.183379   -0.920674   -0.435853
 O   -7.071208   -0.129082   -0.674530
 C   -4.766902   -0.506005   -0.227963
 C   -3.896370   -1.187340    0.617995
 C   -2.601350   -0.739829    0.790481
 C   -2.141754    0.395486    0.123921
 C   -0.757917    0.851636    0.311246
 C    0.295772   -0.043306    0.237991
 C    1.615066    0.391199    0.382866
 C    2.742163   -0.539102    0.306372
 C    2.644912   -1.863024    0.762612
 C    3.700722   -2.747763    0.692993
 C    4.929651   -2.374044    0.153886
 C    5.034818   -1.079692   -0.293418
 O    6.115587   -0.463471   -0.869370
 C    5.698766    0.849464   -1.168387
 O    4.368799    1.027908   -0.737057
 C    3.974337   -0.178247   -0.212264
 C    1.803222    1.754745    0.598966
 N    0.816371    2.620564    0.710493
 C   -0.439838    2.204262    0.577008
 N   -1.396507    3.170762    0.684154
 C   -3.018239    1.075384   -0.722135
 C   -4.314510    0.633088   -0.888521
 H   -7.351382   -2.586023   -0.512757
 H   -5.673921   -2.924500   -0.272239
 H   -4.235862   -2.050876    1.172244
 H   -1.938148   -1.262818    1.464496
 H    0.089591   -1.081224    0.017929
 H    1.713672   -2.188099    1.200120
 H    3.576440   -3.753734    1.063093
 H    5.758966   -3.057126    0.087820
 H    5.761023    1.018591   -2.256356
 H    6.352772    1.571267   -0.653395
 H    2.795271    2.168316    0.706786
 H   -2.338570    2.895086    0.904246
 H   -1.073195    4.050797    1.050192
 H   -2.668473    1.941318   -1.264231
 H   -4.999877    1.159201   -1.535809
