49 
2wtv_ligand_dft.xyz
 C    2.230073   -2.456228   -1.628959
 C    3.025435   -0.793338   -0.190294
 C    5.291944   -0.537188    0.905958
 C    5.539498    0.430334    3.077648
 C    4.164168    0.628393    3.152934
 C    3.383839    0.232227    2.080063
 C    2.184637    0.274239   -0.817631
 C    2.027565    2.583253   -1.508859
 C    0.686338    2.417853   -1.843693
 O   -6.818919    2.870106    0.635363
 C   -7.005197    1.709541    0.896987
 O   -8.164622    1.327349    1.482713
 C   -6.011733    0.630984    0.612312
 C   -4.674343    0.994682    0.450353
 C   -3.691938    0.054895    0.179957
 C   -4.043470   -1.295797    0.040170
 N   -3.138543   -2.322567   -0.223292
 C   -1.803682   -2.305464   -0.550497
 N   -1.275484   -3.532111   -0.714444
 C    0.005485   -3.562288   -1.049988
 C    0.783650   -2.420042   -1.230950
 N    3.071693   -2.023006   -0.520010
 C    3.909378   -0.359676    0.932535
 F    5.852256   -1.068683   -0.183998
 C    6.115353   -0.150721    1.953148
 F    2.057281    0.410355    2.142464
 C    2.765866    1.536167   -0.983899
Cl    2.786343    4.136933   -1.736954
 C    0.101138    1.177091   -1.657978
 C    0.833359    0.089398   -1.168257
 C    0.133801   -1.205446   -1.006747
 N   -1.162682   -1.147549   -0.678181
 C   -5.390442   -1.664333    0.181784
 C   -6.357229   -0.715697    0.465981
 H    2.390998   -1.818707   -2.511400
 H    2.521399   -3.475239   -1.897467
 H    6.170639    0.734292    3.906172
 H    3.693279    1.074991    4.020586
 H    0.114362    3.249305   -2.239958
 H   -8.095090    0.414737    1.790914
 H   -4.408787    2.042264    0.547476
 H   -2.659134    0.352768    0.073966
 H   -3.505676   -3.263335   -0.196606
 H    0.442635   -4.549616   -1.192186
 H    7.184648   -0.306794    1.872350
 H    3.799318    1.697021   -0.696604
 H   -0.945954    1.029866   -1.899654
 H   -5.680255   -2.704038    0.053209
 H   -7.393563   -1.040473    0.525652
