49 
2wtv_ligand_xtb.xyz
 C    2.235302   -2.466548   -1.642337
 C    2.991582   -0.755503   -0.232934
 C    5.221632   -0.630562    0.919078
 C    5.505020    0.510545    2.997810
 C    4.160737    0.841065    2.998696
 C    3.367676    0.430345    1.944201
 C    2.139578    0.294423   -0.833481
 C    1.917719    2.591191   -1.518895
 C    0.580588    2.386435   -1.835487
 O   -6.534252    2.806756    1.215713
 C   -6.873261    1.700158    0.892785
 O   -8.181196    1.413575    0.726455
 C   -5.909011    0.597901    0.642448
 C   -4.572945    0.941680    0.431486
 C   -3.616153   -0.016867    0.182954
 C   -3.974619   -1.366364    0.150668
 N   -3.076517   -2.384637   -0.096630
 C   -1.760674   -2.347325   -0.445395
 N   -1.204022   -3.558335   -0.585486
 C    0.059536   -3.591167   -0.954565
 C    0.803764   -2.442670   -1.202327
 N    3.055724   -1.974360   -0.569142
 C    3.865303   -0.313518    0.876306
 F    5.766688   -1.313652   -0.097058
 C    6.042773   -0.224038    1.955661
 F    2.058874    0.744182    1.963412
 C    2.686822    1.564741   -1.005714
Cl    2.625179    4.148141   -1.752021
 C    0.031736    1.136359   -1.648802
 C    0.797008    0.071789   -1.171477
 C    0.143650   -1.227448   -0.985226
 N   -1.136900   -1.192282   -0.625482
 C   -5.306402   -1.718055    0.393556
 C   -6.260256   -0.752226    0.631122
 H    2.350711   -1.847900   -2.544250
 H    2.557235   -3.488054   -1.856936
 H    6.135715    0.827717    3.812971
 H    3.718776    1.409178    3.801154
 H   -0.015839    3.199740   -2.217088
 H   -8.322280    0.510353    0.415240
 H   -4.306352    1.986900    0.465549
 H   -2.587561    0.256038    0.022217
 H   -3.431411   -3.329837   -0.024040
 H    0.494816   -4.575926   -1.068089
 H    7.087862   -0.487907    1.933153
 H    3.720373    1.744199   -0.748959
 H   -1.006459    0.956698   -1.880765
 H   -5.588015   -2.761614    0.396225
 H   -7.272712   -1.074154    0.839828
