27 
2ww2_ligand_xtb.xyz
 C   31.093853   66.995187    6.147546
 O   31.468655   68.259311    5.646005
 C   31.321438   67.025800    7.656303
 N   30.873110   65.793115    8.285524
 C   29.464691   65.535427    8.095176
 C   29.192593   65.411018    6.598159
 C   29.616410   66.685384    5.873979
 C   31.324132   65.875728    9.668512
 C   32.630685   66.712649    9.624642
 O   33.745103   66.035397   10.121720
 C   32.780322   67.039334    8.113589
 O   33.523217   66.016997    7.497963
 H   31.722483   66.207592    5.703403
 H   31.354374   68.260329    4.689614
 H   30.807403   67.917771    8.057497
 H   29.214197   64.601903    8.605544
 H   28.842888   66.342003    8.524238
 H   29.759974   64.564836    6.206169
 H   28.131705   65.221102    6.431098
 H   29.019968   67.529898    6.227556
 H   29.453828   66.581519    4.798295
 H   30.578701   66.364046   10.312685
 H   31.518997   64.874456   10.060027
 H   32.515725   67.629085   10.211136
 H   34.201731   65.652874    9.352969
 H   33.302614   67.974297    7.916088
 H   32.947205   65.237942    7.483560
