42 
2wwj_ligand_dft.xyz
 C   -5.063620    0.039016    1.384949
 C   -5.999370    1.061847    1.262001
 C   -6.260860    1.619582    0.013666
 C   -5.585639    1.146484   -1.108332
 C   -4.656839    0.117816   -0.985900
 C   -4.390217   -0.442757    0.262403
 C   -3.408529   -1.586843    0.405664
 O   -2.429333   -1.636284   -0.613383
 C   -1.405854   -0.739273   -0.583570
 C   -0.413017   -0.930468   -1.547715
 C    0.678909   -0.078253   -1.595601
 C   -1.297619    0.318534    0.320060
 C   -0.188696    1.157500    0.260533
 C    0.813774    0.977315   -0.688365
 C    2.056958    1.827913   -0.672885
 C    3.102002    1.274769    0.335831
 C    4.336293    2.155735    0.296713
 O    5.307023    1.645847   -0.482800
 O    4.415771    3.228043    0.839922
 N    3.404851   -0.112555    0.073116
 C    2.812063   -1.113018    0.739306
 O    2.131831   -1.030824    1.754408
 C    3.047066   -2.494277    0.101758
 O    2.452230   -3.452239    0.793665
 O    3.683919   -2.656868   -0.907839
 H   -4.854935   -0.387536    2.363906
 H   -6.516460    1.429668    2.143305
 H   -6.986154    2.421845   -0.083507
 H   -5.780674    1.581927   -2.083899
 H   -4.125774   -0.249451   -1.858554
 H   -3.933985   -2.542614    0.317938
 H   -2.929452   -1.563222    1.394190
 H   -0.514672   -1.754430   -2.246095
 H    1.447171   -0.245955   -2.346756
 H   -2.068208    0.509308    1.057135
 H   -0.108347    1.969019    0.979843
 H    1.833691    2.861143   -0.387712
 H    2.515236    1.855113   -1.669032
 H    2.686131    1.330365    1.344041
 H    6.032166    2.291396   -0.486680
 H    3.909969   -0.370753   -0.766079
 H    2.007996   -2.999077    1.541263
