60 
2wxg_ligand_dft.xyz
 C    3.695463   -1.980610    1.444724
 C    3.912613   -2.265800   -0.017343
 C    4.485039   -3.458572   -0.459135
 C    4.672464   -3.715252   -1.814742
 C    4.289932   -2.775167   -2.765228
 C    3.715762   -1.578879   -2.348745
 C    3.529727   -1.339139   -0.993710
 N    2.900134   -0.109161   -0.586684
 C    3.750839    0.967069   -0.249112
 O    4.957452    0.814888   -0.317344
 C    3.047073    2.186027    0.166320
 C    3.749484    3.371090    0.500561
 C    5.252051    3.477921    0.446403
 C    3.006495    4.476946    0.891539
 C    1.609767    4.439223    0.962723
 C    0.925521    3.286625    0.640479
 C    1.639001    2.149149    0.237918
 N    0.900358    1.018455   -0.073017
 C    1.530380   -0.029819   -0.456989
 C    0.733639   -1.280486   -0.797459
 N   -0.589517   -1.208145   -0.251038
 N   -1.631466   -0.734431   -0.972201
 C   -0.906199   -1.348134    1.057453
 N   -0.075494   -1.745384    2.033241
 C   -0.679442   -1.748911    3.212532
 N   -1.937573   -1.395183    3.510512
 C   -2.738636   -0.994346    2.516065
 N   -3.994923   -0.622385    2.853005
 C   -2.250166   -0.983732    1.186998
 C   -2.646529   -0.611256   -0.138708
 C   -3.950872   -0.134554   -0.631452
 C   -5.134872   -0.705961   -0.162231
 C   -3.988499    0.887507   -1.584907
 C   -5.224010    1.312541   -2.036321
 F   -5.281337    2.294844   -2.946124
 C   -6.420712    0.777854   -1.579241
 C   -6.365106   -0.245349   -0.634661
 O   -7.479873   -0.838267   -0.137998
 H    2.630909   -1.852775    1.680385
 H    4.078927   -2.800014    2.058378
 H    4.217177   -1.063360    1.737836
 H    4.789541   -4.198850    0.275654
 H    5.120993   -4.653381   -2.127305
 H    4.438276   -2.967664   -3.822874
 H    3.413712   -0.822326   -3.066717
 H    5.727485    2.760740    1.120037
 H    5.633921    3.253927   -0.552708
 H    5.564148    4.488364    0.726550
 H    3.527537    5.394714    1.149249
 H    1.064914    5.325510    1.274638
 H   -0.156027    3.221780    0.686003
 H    1.225941   -2.170113   -0.399580
 H    0.648211   -1.396495   -1.880842
 H   -0.076054   -2.067967    4.059199
 H   -4.190285   -0.532078    3.838321
 H   -4.571373   -0.117579    2.198316
 H   -5.120187   -1.538473    0.533841
 H   -3.076153    1.335429   -1.959042
 H   -7.361811    1.158254   -1.964414
 H   -8.260251   -0.466472   -0.566179
