60 
2wxh_ligand_xtb.xyz
 C    3.442228   -1.638410    1.857799
 C    3.649560   -2.357688    0.564495
 C    4.132920   -3.658853    0.518935
 C    4.326010   -4.312541   -0.685344
 C    4.039543   -3.673211   -1.878968
 C    3.554927   -2.377779   -1.860191
 C    3.358815   -1.733509   -0.648929
 N    2.862301   -0.391442   -0.650550
 C    3.819438    0.629297   -0.514397
 O    4.991013    0.325151   -0.417885
 C    3.262771    1.977133   -0.511140
 C    4.075252    3.120486   -0.376387
 C    5.556647    3.017076   -0.224949
 C    3.468892    4.364627   -0.387577
 C    2.092351    4.506843   -0.524293
 C    1.290047    3.398530   -0.654234
 C    1.867315    2.126360   -0.649197
 N    1.033047    1.049188   -0.776646
 C    1.531877   -0.129919   -0.763466
 C    0.573820   -1.295656   -0.852390
 N   -0.623233   -0.970676   -0.135227
 N   -1.821484   -0.913383   -0.723450
 C   -0.688751   -0.564826    1.147453
 N    0.315084   -0.484742    2.025602
 C   -0.066586   -0.015998    3.194377
 N   -1.270785    0.400810    3.552813
 C   -2.275470    0.325978    2.680165
 N   -3.478337    0.782547    3.090825
 C   -2.039803   -0.232416    1.406588
 C   -2.698569   -0.494179    0.167962
 C   -4.110426   -0.374463   -0.166023
 C   -4.483213    0.033598   -1.446023
 C   -5.816115    0.145174   -1.770005
 F   -6.159673    0.550799   -3.007269
 C   -6.825845   -0.148980   -0.847863
 O   -8.121529   -0.014540   -1.218261
 C   -6.440484   -0.575624    0.417410
 C   -5.104493   -0.689210    0.756033
 H    2.426046   -1.245360    1.930017
 H    3.626508   -2.301566    2.698818
 H    4.132028   -0.797141    1.922783
 H    4.364514   -4.163632    1.445503
 H    4.706195   -5.323160   -0.692219
 H    4.196004   -4.176466   -2.820603
 H    3.332590   -1.857129   -2.780308
 H    5.809017    2.423202    0.651435
 H    5.991550    2.505900   -1.081773
 H    6.001875    4.004734   -0.130562
 H    4.082840    5.248030   -0.287525
 H    1.655963    5.495113   -0.527510
 H    0.219943    3.474886   -0.760695
 H    1.031998   -2.197253   -0.433035
 H    0.288674   -1.480712   -1.891443
 H    0.700689    0.060792    3.953585
 H   -3.491089    1.282608    3.963924
 H   -4.195292    0.968933    2.411100
 H   -3.728579    0.260673   -2.180676
 H   -8.703606   -0.271480   -0.493155
 H   -7.203569   -0.829075    1.141212
 H   -4.835219   -1.061114    1.733116
