60 
2wxh_ligand_dft.xyz
 C    3.850649   -1.903112    1.298689
 C    4.029697   -2.127222   -0.179132
 C    4.647596   -3.272305   -0.681659
 C    4.799709   -3.473413   -2.050980
 C    4.334790   -2.524031   -2.954342
 C    3.713962   -1.374747   -2.476869
 C    3.564055   -1.190452   -1.108750
 N    2.885976   -0.010310   -0.637345
 C    3.690679    1.098282   -0.291661
 O    4.900275    1.013962   -0.407834
 C    2.939484    2.262522    0.192128
 C    3.590019    3.472472    0.541877
 C    5.081491    3.662928    0.435866
 C    2.804797    4.522314    0.999140
 C    1.415924    4.405768    1.120804
 C    0.782278    3.228867    0.783309
 C    1.539248    2.146314    0.314239
 N    0.850398    0.988264   -0.010008
 C    1.519878   -0.010250   -0.455115
 C    0.778049   -1.289923   -0.812040
 N   -0.526226   -1.307415   -0.218294
 N   -1.616981   -0.859158   -0.885549
 C   -0.787224   -1.503545    1.094550
 N    0.093401   -1.895317    2.028084
 C   -0.466424   -1.962438    3.226767
 N   -1.726670   -1.669320    3.580489
 C   -2.576575   -1.271505    2.627789
 N   -3.839588   -0.961818    3.018540
 C   -2.139794   -1.202328    1.284831
 C   -2.604077   -0.806776   -0.012286
 C   -3.947556   -0.377159   -0.433552
 C   -4.085071    0.674950   -1.347780
 C   -5.340599    1.071125   -1.755344
 F   -5.473748    2.080545   -2.622948
 C   -6.501143    0.451450   -1.276628
 O   -7.690156    0.917794   -1.727824
 C   -6.360198   -0.597849   -0.373747
 C   -5.095676   -1.013205    0.039448
 H    2.790055   -1.842389    1.575517
 H    4.300008   -2.720023    1.869475
 H    4.332277   -0.968728    1.605913
 H    5.016591   -4.019182    0.015982
 H    5.285362   -4.375225   -2.411309
 H    4.455171   -2.672952   -4.022514
 H    3.347258   -0.612017   -3.157219
 H    5.619872    2.955291    1.071265
 H    5.436674    3.486154   -0.582331
 H    5.349373    4.681090    0.733240
 H    3.285654    5.458215    1.269467
 H    0.837014    5.250015    1.483799
 H   -0.291729    3.103651    0.866065
 H    1.331399   -2.164446   -0.463781
 H    0.659769   -1.373677   -1.895340
 H    0.179557   -2.283163    4.040683
 H   -3.978128   -0.870212    4.014176
 H   -4.417632   -0.398676    2.413674
 H   -3.210649    1.182957   -1.738892
 H   -8.401300    0.394829   -1.338896
 H   -7.246423   -1.107221   -0.002077
 H   -5.007361   -1.858112    0.716175
