51 
2wxo_ligand_xtb.xyz
 C    4.946358    3.294863   -0.015574
 O    5.706064    2.124312    0.174454
 C    5.057579    0.930784    0.201957
 C    3.682022    0.790074    0.046692
 C    5.857437   -0.188458    0.400392
 C    5.291738   -1.457716    0.445833
 O    6.161974   -2.484985    0.645085
 C    5.658519   -3.796919    0.699707
 C    3.919128   -1.605621    0.292854
 C    3.121902   -0.478557    0.095239
 N    1.753670   -0.699934   -0.060173
 C    0.727896    0.187119   -0.195975
 N    0.937896    1.477459   -0.168618
 C   -0.121230    2.318840   -0.241268
 C    0.084076    3.707698   -0.212842
 C   -0.993900    4.554211   -0.241440
 C   -2.299862    4.050605   -0.297448
 C   -2.527604    2.698541   -0.336144
 C   -1.440895    1.813406   -0.318292
 N   -1.648823    0.473123   -0.398306
 C   -0.621615   -0.320313   -0.365350
 N   -0.912940   -1.663594   -0.462003
 S   -2.396937   -2.071330   -1.212459
 O   -2.425863   -3.499695   -1.111452
 O   -2.457675   -1.487563   -2.514919
 C   -3.613334   -1.352528   -0.130953
 C   -4.545697   -0.479150   -0.656045
 C   -5.499944    0.073220    0.178971
 C   -5.484905   -0.273550    1.521080
 F   -6.405300    0.265918    2.339545
 C   -4.559118   -1.158132    2.049888
 C   -3.612958   -1.709192    1.202672
 H    4.429051    3.285284   -0.979856
 H    4.215129    3.432430    0.786918
 H    5.662564    4.115013    0.002575
 H    3.030088    1.629483   -0.106022
 H    6.921036   -0.074724    0.519756
 H    4.954164   -3.924777    1.528476
 H    5.172656   -4.082331   -0.239265
 H    6.523460   -4.437618    0.863580
 H    3.455759   -2.579918    0.324228
 H    1.488236   -1.671419    0.009455
 H    1.095551    4.080314   -0.162449
 H   -0.840403    5.623013   -0.217253
 H   -3.131719    4.739025   -0.312526
 H   -3.523567    2.287527   -0.383778
 H   -0.183012   -2.306605   -0.726674
 H   -4.494334   -0.237159   -1.704971
 H   -6.245465    0.761121   -0.187802
 H   -4.590587   -1.401898    3.099932
 H   -2.878112   -2.410020    1.563753
