51 
2wxo_ligand_dft.xyz
 C    5.463858    2.677286    0.132053
 O    5.940970    1.365678    0.336597
 C    5.053654    0.343135    0.267246
 C    3.694564    0.529665   -0.005767
 C    5.580736   -0.923902    0.490641
 C    4.736863   -2.030285    0.442832
 O    5.330297   -3.228521    0.671761
 C    4.530727   -4.387745    0.637563
 C    3.376752   -1.875379    0.175790
 C    2.867022   -0.590121   -0.045519
 N    1.494967   -0.514412   -0.355615
 C    0.652480    0.575997   -0.348822
 N    1.038694    1.762433    0.022784
 C    0.099335    2.758372    0.053756
 C    0.474067    4.055382    0.462088
 C   -0.471625    5.051893    0.539475
 C   -1.818365    4.790732    0.211323
 C   -2.202984    3.533642   -0.194832
 C   -1.247861    2.501672   -0.281163
 N   -1.627370    1.262339   -0.729208
 C   -0.717383    0.348008   -0.793705
 N   -1.037670   -0.942829   -1.244367
 S   -2.590471   -1.396952   -1.781863
 O   -2.377599   -2.786377   -2.152982
 O   -3.129439   -0.450547   -2.735574
 C   -3.533112   -1.315316   -0.285063
 C   -4.328731   -0.200240   -0.037840
 C   -5.071475   -0.146558    1.133946
 C   -4.994509   -1.211675    2.021008
 F   -5.707144   -1.160372    3.150006
 C   -4.209164   -2.332119    1.779844
 C   -3.469683   -2.383558    0.606785
 H    5.041132    2.800545   -0.872963
 H    4.706483    2.951219    0.877441
 H    6.330722    3.330231    0.240889
 H    3.270071    1.508280   -0.158208
 H    6.635241   -1.050393    0.703080
 H    3.744441   -4.358812    1.403244
 H    4.071173   -4.532751   -0.348858
 H    5.201899   -5.221838    0.845438
 H    2.712625   -2.731753    0.132635
 H    1.012975   -1.398744   -0.276875
 H    1.513810    4.232413    0.718085
 H   -0.181556    6.048616    0.857475
 H   -2.551600    5.588506    0.276031
 H   -3.229468    3.308685   -0.466048
 H   -0.345723   -1.389290   -1.841126
 H   -4.352071    0.610030   -0.756308
 H   -5.703895    0.702150    1.367189
 H   -4.191980   -3.141918    2.499992
 H   -2.857620   -3.248493    0.375205
