62 
2wxp_ligand_dft.xyz
 O   -3.812028    4.743068   -0.071671
 C   -1.950376    1.273835    0.046987
 C    1.671281    1.112366    1.525031
 C    1.084871   -0.108744    1.565751
 N   -1.023181   -1.186806    0.999069
 C    3.083247    1.412625    1.878274
 C   -3.171133   -2.134119    0.442518
 N   -2.714172    0.194283    0.044401
 C    5.460958    1.015462    1.179053
 C    6.339438    0.077027    0.320291
 C    4.888757    0.807892   -1.481179
 C    3.716407    1.191262   -0.555249
 N   -2.531691    2.430010   -0.391686
 C    6.162641   -2.965793   -1.202165
 C   -1.837372    3.580951   -0.922363
 C   -2.425968    4.858986   -0.305435
 N    4.023051    0.784957    0.863639
 O    4.342434   -1.997427    0.437857
 S    4.861910   -1.789648   -0.922419
 O    3.957959   -1.766081   -2.052904
 N    5.678889   -0.298896   -0.934368
 S    0.647952    2.337568    0.819785
 C   -0.250111   -0.109408    1.017539
 C   -0.617663    1.161875    0.540750
 C   -2.264819   -1.002059    0.503366
 C   -2.732199   -3.377336    0.917663
 C   -3.548484   -4.512279    0.883176
 C   -4.838878   -4.443691    0.367235
 C   -5.313010   -3.224870   -0.116444
 N   -6.531613   -2.952787   -0.657761
 C   -4.490999   -2.042992   -0.087487
 C   -5.346150   -1.090743   -0.653394
 N   -6.530372   -1.658393   -0.975324
 C   -4.432556    3.843333   -0.966373
 C   -3.960850    2.407988   -0.708806
 H    1.540322   -1.011592    1.960779
 H    3.361609    0.977040    2.842320
 H    3.305815    2.483161    1.896776
 H    5.665613    2.070301    0.977739
 H    5.612784    0.831812    2.244207
 H    6.582137   -0.823106    0.887006
 H    7.278570    0.583351    0.079716
 H    5.580576    1.644892   -1.611952
 H    4.505310    0.534196   -2.463440
 H    2.795543    0.676790   -0.833133
 H    3.528517    2.267599   -0.558033
 H    6.916581   -2.877145   -0.418791
 H    5.699398   -3.954239   -1.165361
 H    6.588300   -2.773969   -2.187159
 H   -1.939277    3.597886   -2.018016
 H   -0.767148    3.535255   -0.723041
 H   -1.965448    5.053953    0.668579
 H   -2.212269    5.712891   -0.969100
 H    3.862538   -0.239721    0.917438
 H   -1.728348   -3.450467    1.322591
 H   -3.164629   -5.454987    1.265436
 H   -5.480437   -5.321240    0.335479
 H   -5.176551   -0.042911   -0.844273
 H   -4.249885    4.145936   -2.009685
 H   -5.507186    3.912619   -0.789139
 H   -4.491110    1.971916    0.139851
 H   -4.164608    1.770609   -1.579131
