62 
2wxp_ligand_xtb.xyz
 O   -3.479778    4.216937    0.315111
 C   -1.915387    1.272277   -0.177986
 C    1.470310    1.125921    1.814713
 C    0.711395   -0.023344    2.001944
 N   -1.409183   -0.998310    1.347556
 C    2.724473    1.421924    2.298927
 C   -3.506420   -1.878280    0.632404
 N   -2.766878    0.255639   -0.117710
 C    5.453763    1.050108    0.998296
 C    6.415379    0.232528    0.103085
 C    4.707653    0.581969   -1.567568
 C    3.603335    0.836407   -0.515745
 N   -2.291194    2.310901   -0.969572
 C    6.530884   -2.848019   -1.472957
 C   -1.591906    3.564268   -1.072410
 C   -2.147613    4.541135   -0.015085
 N    4.094139    0.580128    0.829680
 O    5.024269   -2.179127    0.593532
 S    5.150296   -1.896288   -0.812273
 O    4.005351   -2.085939   -1.644298
 N    5.715066   -0.317464   -1.041532
 S    0.649742    2.241056    0.710503
 C   -0.508008   -0.016661    1.304378
 C   -0.700030    1.164162    0.534294
 C   -2.500630   -0.826531    0.619996
 C   -3.510575   -2.826544    1.649618
 C   -4.494138   -3.809857    1.739327
 C   -5.513570   -3.902515    0.812385
 C   -5.521309   -2.985645   -0.233593
 N   -6.380792   -2.825456   -1.263293
 C   -4.516297   -1.962511   -0.339432
 C   -4.859395   -1.309368   -1.542824
 N   -5.959411   -1.875481   -2.026233
 C   -4.220336    3.795408   -0.807064
 C   -3.688529    2.444342   -1.336599
 H    1.022411   -0.839983    2.625041
 H    3.141796    0.810446    3.078728
 H    3.131073    2.409321    2.173512
 H    5.479697    2.107901    0.723191
 H    5.739612    0.951905    2.045957
 H    6.824331   -0.609564    0.661093
 H    7.238678    0.857988   -0.255708
 H    5.210824    1.509395   -1.851600
 H    4.285791    0.115045   -2.455367
 H    2.751917    0.182867   -0.703793
 H    3.268576    1.877699   -0.567311
 H    7.419015   -2.606861   -0.905041
 H    6.288212   -3.898844   -1.375636
 H    6.641135   -2.573862   -2.513002
 H   -1.777632    3.952709   -2.080033
 H   -0.518168    3.434847   -0.955630
 H   -1.585534    4.469055    0.918780
 H   -2.086479    5.574620   -0.390724
 H    4.048395   -0.414634    1.048903
 H   -2.734612   -2.770517    2.397585
 H   -4.452431   -4.515766    2.556795
 H   -6.271989   -4.667516    0.879220
 H   -4.367158   -0.505656   -2.050587
 H   -4.184014    4.566567   -1.591351
 H   -5.250554    3.692667   -0.465319
 H   -4.223172    1.606716   -0.888583
 H   -3.789585    2.395438   -2.426476
