27 
2wyi_ligand_xtb.xyz
 C   31.094000   66.995505    6.147654
 O   31.468843   68.259773    5.646485
 C   31.321462   67.025689    7.656442
 N   30.872981   65.792892    8.285325
 C   29.464549   65.535337    8.094806
 C   29.192665   65.411269    6.597724
 C   29.616572   66.685819    5.873898
 C   31.324077   65.874837    9.668351
 C   32.630311   66.712224    9.624977
 O   33.744998   66.035251   10.121870
 C   32.780272   67.039348    8.114001
 O   33.523787   66.017393    7.498487
 H   31.722617   66.208024    5.703273
 H   31.354320   68.261170    4.690122
 H   30.807354   67.917608    8.057767
 H   29.213914   64.601704    8.604896
 H   28.842790   66.341896    8.523941
 H   29.760125   64.565180    6.205641
 H   28.131800   65.221434    6.430495
 H   29.020147   67.530270    6.227660
 H   29.454096   66.582193    4.798177
 H   30.578531   66.362588   10.312839
 H   31.519232   64.873373   10.059227
 H   32.515037   67.628492   10.211672
 H   34.201272   65.652882    9.352808
 H   33.302234   67.974677    7.917111
 H   32.948014   65.238171    7.483349
