54 
2wyn_ligand_dft.xyz
 O   -1.804202    3.729060   -0.120082
 C   -1.174313    3.158250    1.011257
 C   -1.154836    1.650525    0.800196
 C   -2.595106    1.099952    0.668075
 C   -3.073202    0.039132    1.650419
 O   -4.481284    0.026894    1.529364
 C   -2.448526   -1.272927    1.132733
 O   -1.164654   -1.376797    1.664116
 C   -2.509753   -1.119116   -0.399939
 C   -3.724162   -1.789072   -1.031059
 O   -3.862369   -1.211240   -2.315343
 N   -2.624918    0.380079   -0.664461
 C   -1.544611    0.993395   -1.498317
 C   -0.420911    1.254746   -0.501048
 C    1.188977   -0.402752   -1.185494
 C    1.666881   -1.759041   -0.671603
 C    2.570713   -1.577585    0.532288
 C    3.713737   -0.631612    0.198017
 C    3.144662    0.689145   -0.343561
 C    4.221125    1.604559   -0.912243
 O    0.315022    0.087357   -0.204394
 O    0.533547   -2.549642   -0.337046
 O    3.016175   -2.866109    0.885958
 O    4.429073   -0.455316    1.393795
 O    2.255111    0.457777   -1.440450
 O    5.160432    1.850161    0.119866
 H   -1.856511    4.685279   -0.008539
 H   -1.719253    3.394979    1.936514
 H   -0.143757    3.521782    1.124901
 H   -0.636030    1.171525    1.633017
 H   -3.315864    1.917194    0.611193
 H   -2.738586    0.246784    2.672299
 H   -4.853057   -0.531849    2.223424
 H   -3.071309   -2.130287    1.435242
 H   -0.544078   -1.733231    0.999600
 H   -1.596872   -1.471904   -0.879326
 H   -3.539224   -2.869111   -1.077184
 H   -4.612994   -1.605950   -0.413423
 H   -4.649199   -1.566925   -2.745428
 H   -3.517735    0.512047   -1.149024
 H   -1.311436    0.330858   -2.331416
 H   -1.927226    1.944324   -1.872981
 H    0.242269    2.046037   -0.865048
 H    0.680465   -0.514977   -2.150771
 H    2.233663   -2.244534   -1.476205
 H    1.989945   -1.128288    1.352019
 H    4.339229   -1.094697   -0.583962
 H    2.617681    1.198157    0.475062
 H    4.686458    1.103284   -1.772275
 H    3.758959    2.535497   -1.266018
 H    0.888827   -3.357988    0.065095
 H    3.640526   -2.763671    1.617403
 H    5.082232    0.245656    1.236636
 H    5.908465    2.336697   -0.244182
