26 
2wzs_ligand_xtb.xyz
 C   27.290549   45.689125   -1.815935
 N   26.913802   46.860646   -2.397306
 C   27.905729   46.887127    0.213692
 C   27.398524   48.196865   -0.427142
 C   26.416888   47.948072   -1.604558
 C   26.190967   49.223286   -2.421832
 C   27.637102   45.453150   -3.891855
 C   27.138597   46.714572   -3.737009
 N   27.728153   44.825961   -2.689747
 O   29.285173   46.768518   -0.016064
 O   27.857030   44.472068    0.144139
 O   26.761917   48.958420    0.572945
 C   27.200899   45.617178   -0.329566
 O   27.429401   49.743607   -2.840168
 H   26.141354   45.625867   -0.021311
 H   25.447891   47.658530   -1.167899
 H   26.949724   47.488082   -4.449885
 H   27.717759   46.969134    1.297829
 H   28.282606   48.710270   -0.822955
 H   29.474397   45.830585   -0.177511
 H   26.810629   49.890086    0.337841
 H   25.546321   48.984767   -3.278498
 H   25.656882   49.948845   -1.789468
 H   27.283060   50.465151   -3.459762
 H   27.937070   44.953911   -4.790575
 H   27.722574   44.402177    1.096599
