67 
2x6d_ligand_dft.xyz
 C    0.295219   37.891019   83.389859
 C   -0.671196   38.945893   83.909015
 O   -0.082807   39.725113   84.928812
 C    0.333811   38.908636   86.001197
 C    1.330633   37.853145   85.539885
 N    0.730895   37.039204   84.491066
 C    1.620639   35.981012   84.045775
 C    0.917009   34.956098   83.183533
 C   -0.363973   34.508937   83.521516
 C   -1.005168   33.548258   82.756401
 C    1.537903   34.415991   82.059940
 C    0.903378   33.444986   81.292565
 C   -0.377633   33.004166   81.629513
 C   -1.087811   31.989605   80.842133
 N   -0.685596   31.591991   79.588828
 N   -2.168624   31.361960   81.241428
 C   -2.495689   30.506556   80.208044
 C   -1.580207   30.643220   79.155596
 N   -1.585355   30.037192   77.973346
 C   -2.595829   29.181647   77.847442
 C   -3.567240   28.932291   78.826654
Br   -4.779326   27.521401   78.435141
 C   -3.584159   29.613230   80.064056
 N   -4.507749   29.449437   81.059643
 C   -5.935421   29.301035   80.855048
 C   -6.442954   27.986759   81.481672
 C   -4.134457   29.561242   82.463515
 C   -5.045235   28.631947   83.298299
 N   -5.480253   27.526869   82.469454
 C   -5.901951   26.333312   83.167374
 C   -5.909411   25.119576   82.256712
 C   -6.791830   24.065123   82.483238
 C   -6.780749   22.932639   81.674411
 C   -5.881434   22.868739   80.617164
Cl   -5.869145   21.456097   79.582046
 C   -5.000145   23.913497   80.361500
 C   -5.013796   25.029200   81.189917
 H   -0.202965   37.275218   82.633955
 H    1.157186   38.392219   82.907762
 H   -0.952453   39.636610   83.110128
 H   -1.580345   38.450344   84.286644
 H    0.789578   39.571137   86.741536
 H   -0.535634   38.408755   86.458445
 H    2.252595   38.355735   85.188505
 H    1.599040   37.208118   86.384786
 H    2.498651   36.382022   83.502239
 H    2.011629   35.480503   84.941550
 H   -0.856760   34.943982   84.385706
 H    2.532607   34.753463   81.779809
 H   -2.000469   33.202432   83.014663
 H    1.428836   33.028177   80.437440
 H    0.063600   31.969486   79.031379
 H   -2.646741   28.625861   76.915166
 H   -6.431225   30.161193   81.328812
 H   -6.172769   29.343465   79.792995
 H   -3.093695   29.248519   82.563006
 H   -4.202982   30.595141   82.825083
 H   -7.438554   28.158949   81.935675
 H   -6.556358   27.215059   80.716388
 H   -4.475590   28.249551   84.150499
 H   -5.901228   29.197222   83.714725
 H   -5.190318   26.155875   83.984138
 H   -6.898857   26.443856   83.638116
 H   -7.505290   24.124181   83.301839
 H   -4.353515   25.866073   80.985585
 H   -7.468871   22.114029   81.855134
 H   -4.313449   23.857805   79.523555
