69 
2x6e_ligand_xtb.xyz
 C    7.152829    4.177207   -2.650263
 C    6.485208    3.420429   -1.572184
 C    6.736130    3.315595   -0.224154
 C    5.748542    2.420297    0.228874
 C    5.505669    1.863648    1.594550
 N    4.304631    1.005787    1.557551
 C    4.281182   -0.045356    2.593759
 C    2.987027   -0.866386    2.401656
 N    2.426560   -0.512614    1.116744
 C    1.885114   -1.484833    0.284859
 C    2.702766   -2.459789   -0.293356
Br    4.586607   -2.349614   -0.014615
 C    2.203352   -3.468815   -1.112306
 N    0.929777   -3.569029   -1.435042
 C    0.148278   -2.625241   -0.943697
 N   -1.191864   -2.475000   -1.110453
 C   -1.565070   -1.360005   -0.401549
 C   -2.929273   -0.878572   -0.335939
 C   -3.203636    0.330034    0.305014
 C   -4.492397    0.814266    0.390911
 C   -5.556357    0.103131   -0.164771
 N   -6.875345    0.578022   -0.145008
 C   -7.158906    1.959932    0.152772
 C   -8.435657    2.363191   -0.589946
 N   -9.591719    1.495989   -0.226429
 C  -10.120527    1.774967    1.122555
 C   -9.227942    0.064315   -0.427008
 C   -7.938689   -0.285131    0.314175
 C   -5.282382   -1.104847   -0.809370
 C   -3.995438   -1.588772   -0.892029
 N   -0.549162   -0.794137    0.210214
 C    0.541006   -1.556680   -0.095363
 C    1.888631    0.825027    1.120582
 C    3.031775    1.762876    1.576983
 N    4.980863    2.036604   -0.768785
 O    5.433477    2.653232   -1.875972
 H    7.490371    5.142165   -2.282459
 H    8.023121    3.626329   -3.006557
 H    6.469986    4.314299   -3.484358
 H    7.503022    3.796405    0.343011
 H    5.376184    2.661105    2.331598
 H    6.367413    1.259316    1.893384
 H    4.319603    0.526251    0.637035
 H    4.317004    0.421655    3.579012
 H    5.159612   -0.678565    2.463305
 H    2.267201   -0.642268    3.200839
 H    3.205512   -1.931961    2.441207
 H    2.859285   -4.216441   -1.533405
 H   -2.384209    0.876966    0.742051
 H   -4.663054    1.744157    0.910112
 H   -6.350407    2.584876   -0.228023
 H   -7.260881    2.150529    1.232512
 H   -8.260523    2.254322   -1.662403
 H   -8.687041    3.402690   -0.375105
 H  -10.348928    1.710883   -0.883644
 H   -9.368083    1.575046    1.880383
 H  -10.421015    2.818697    1.195149
 H  -10.988991    1.148512    1.318188
 H   -9.075066   -0.096902   -1.496203
 H  -10.049673   -0.566538   -0.085527
 H   -8.084590   -0.194319    1.402274
 H   -7.690654   -1.325244    0.107379
 H   -6.080742   -1.666398   -1.269799
 H   -3.832425   -2.527870   -1.397264
 H    1.019811    0.924819    1.784428
 H    1.566452    1.067623    0.108208
 H    3.119960    2.610159    0.898299
 H    2.869196    2.130891    2.591553
 H   -1.770096   -3.072817   -1.675963
