18 
2x6f_ligand_dft.xyz
 N    1.177076    1.715287   -0.000097
 C    0.664354    0.491371   -0.000053
 N    1.323381   -0.714252   -0.000014
 C    2.779614   -0.743901    0.000092
 C    0.557960   -1.825354   -0.000002
 N   -0.750073   -1.857945   -0.000039
 C   -1.439140   -0.682223   -0.000067
 N   -2.780569   -0.748556    0.000112
 C   -0.742339    0.525027   -0.000106
 N   -1.137398    1.834298    0.000141
 C    0.032628    2.467573   -0.000019
 H    3.152487   -0.226936   -0.886296
 H    3.152412   -0.228148    0.887224
 H    3.118817   -1.781043   -0.000597
 H    1.096283   -2.769040    0.000008
 H   -3.238715   -1.644710   -0.000132
 H   -3.318576    0.103073   -0.000069
 H    0.091907    3.550019    0.000080
