42 
2x6k_ligand_xtb.xyz
 N    3.970722    2.492514    0.055053
 C    3.881881    3.799120   -0.137602
 C    2.684877    4.494872   -0.293257
 C    1.481046    3.812567   -0.250841
 C    1.546046    2.441793   -0.050129
 C    2.822186    1.849742    0.095387
 O    2.742943    0.515317    0.284593
 C    1.403905    0.210274    0.265598
 C    0.616752    1.352814    0.061889
 N   -0.712472    1.334432   -0.003018
 C    0.742384   -1.024057    0.419744
 N    1.340118   -2.201058    0.704570
 C    2.747761   -2.455901    0.496226
 C    2.920732   -3.252499   -0.805434
 O    2.174651   -4.447329   -0.773599
 C    0.800524   -4.192956   -0.578095
 C    0.563009   -3.422621    0.725656
 N   -0.590144   -1.006531    0.336796
 C   -1.253929    0.130388    0.135312
 C   -2.714594    0.034148    0.050422
 C   -3.348939   -1.204837    0.024826
 C   -4.727193   -1.271106   -0.062429
 C   -5.486674   -0.117607   -0.121929
 C   -4.857942    1.124856   -0.096732
 O   -5.634079    2.240713   -0.156603
 C   -3.476020    1.197360   -0.012597
 H    4.830226    4.317281   -0.168692
 H    2.705750    5.562250   -0.446197
 H    0.531586    4.311680   -0.366939
 H    3.111377   -3.057944    1.336072
 H    3.309396   -1.526249    0.450800
 H    3.962120   -3.545818   -0.944869
 H    2.600192   -2.630588   -1.656331
 H    0.312097   -5.167815   -0.550198
 H    0.400979   -3.607596   -1.420409
 H   -0.487688   -3.162320    0.838991
 H    0.898155   -4.026392    1.574673
 H   -2.750805   -2.100141    0.068411
 H   -5.219304   -2.232211   -0.085284
 H   -6.562342   -0.154188   -0.188809
 H   -5.072849    3.025362   -0.132144
 H   -2.969444    2.151492    0.005901
