92 
2x6x_ligand_dft.xyz
 C   -0.629627    1.643676   -2.055813
 C   -2.053998    1.942390   -1.578931
 C   -2.073825    3.323424   -0.902581
 C   -1.029937    4.243551   -1.538110
 C    0.372917    3.666597   -1.296915
 C    1.399271    4.090581   -2.335241
 O   -2.943358    1.988244   -2.685217
 O   -3.349581    3.920282   -0.968412
 O   -1.091208    5.527056   -0.965756
 O    0.315423    2.236335   -1.195843
 C    2.499125   -1.683726    0.180018
 C    3.953823   -1.778976   -0.301025
 C    4.304013   -0.593653   -1.198611
 C    3.287589   -0.424595   -2.316268
 C    1.909548   -0.288461   -1.675796
 C    0.787463   -0.130573   -2.685561
 O    4.861627   -1.883965    0.764392
 O    5.576820   -0.757932   -1.783666
 O    3.549478    0.736766   -3.071347
 O    1.640380   -1.469436   -0.914697
 O   -0.430798    0.270357   -2.074603
 C    0.784338    1.788034    2.719851
 C    0.072106    0.861465    1.719955
 C    0.253429   -0.592382    2.201287
 C    1.757166   -0.850041    2.336306
 C    2.357855    0.121407    3.349845
 C    3.862226   -0.007955    3.567927
 O    0.054247    1.714629    3.916095
 O   -1.245476    1.318050    1.547975
 O   -0.229613   -1.627015    1.357535
 O    2.429981   -0.640738    1.108077
 O    2.140722    1.461877    2.922934
 O    4.630560    0.389231    2.447384
 C   -1.494687   -1.427406    0.825977
 C   -1.930224   -2.639855    0.002443
 C   -3.339162   -2.305680   -0.538347
 C   -4.274277   -1.817855    0.580786
 C   -3.629286   -0.715104    1.404705
 C   -4.400085   -0.272160    2.637888
 C   -0.905274   -3.896818   -1.878591
 C    0.358332   -4.066362   -2.695703
 N   -0.919592   -2.853442   -1.024523
 O   -4.020741   -3.379680   -1.126277
 O   -5.480223   -1.346346    0.029553
 O   -2.395363   -1.229905    1.882414
 O   -3.583841    0.553666    3.455682
 O   -1.850187   -4.676855   -2.020252
 H   -0.510542    2.050843   -3.075538
 H   -2.363525    1.181847   -0.856544
 H   -1.824135    3.192387    0.153672
 H   -1.229957    4.304916   -2.622991
 H    0.681971    4.003952   -0.302793
 H    1.494714    5.180780   -2.338197
 H    2.372026    3.641109   -2.117327
 H    1.097639    3.772706   -3.339752
 H   -3.266884    1.096697   -2.854449
 H   -3.749508    3.585947   -1.787570
 H   -2.038418    5.723252   -0.899358
 H    2.169493   -2.624071    0.629793
 H    4.052810   -2.696591   -0.891694
 H    4.280002    0.326832   -0.590432
 H    3.308496   -1.323740   -2.955464
 H    1.907522    0.584916   -1.019161
 H    0.592160   -1.089171   -3.177102
 H    1.097898    0.598464   -3.442859
 H    4.770202   -1.074254    1.310432
 H    6.168893   -1.032104   -1.068700
 H    4.493542    0.717141   -3.280134
 H    0.793904    2.806128    2.318514
 H    0.545773    0.978228    0.745069
 H   -0.211990   -0.701688    3.189399
 H    1.912495   -1.882028    2.680265
 H    1.861832   -0.048545    4.315603
 H    4.115872   -1.050162    3.784116
 H    4.135965    0.601155    4.439607
 H    0.309481    2.454801    4.479560
 H   -1.758317    1.212322    2.366480
 H    4.146945    1.119052    2.033490
 H   -1.490309   -0.542085    0.177445
 H   -1.992341   -3.517471    0.658655
 H   -3.214378   -1.476615   -1.260381
 H   -4.453943   -2.678613    1.245783
 H   -3.437852    0.167562    0.777831
 H   -5.269271    0.316756    2.341870
 H   -4.751442   -1.150147    3.198279
 H    1.168740   -3.408860   -2.373387
 H    0.676931   -5.108980   -2.620318
 H    0.127716   -3.872132   -3.747683
 H   -0.069734   -2.299912   -0.934115
 H   -3.360235   -3.972492   -1.546050
 H   -5.774648   -2.041920   -0.576330
 H   -2.902162   -0.026244    3.819404
