72 
2x7o_ligand_xtb.xyz
 C    8.551330    0.441062    0.179804
 C    9.140156    0.748558   -1.191567
 C    9.065506   -0.481795   -2.091224
 C    7.622468   -0.971559   -2.175379
 C    7.075556   -1.241968   -0.780480
 N    7.147742   -0.013453    0.046815
 C    6.463653   -0.190610    1.367579
 C    4.987763   -0.377484    1.174067
 C    4.190222    0.702971    0.804469
 C    2.834856    0.559396    0.602523
 C    4.387621   -1.626118    1.328092
 C    3.036039   -1.780111    1.133224
 C    2.222757   -0.690462    0.774202
 N    0.895179   -0.950649    0.607263
 C   -0.188838   -0.158290    0.370651
 C   -0.085743    1.317299    0.355309
 C   -0.092738    2.006024   -0.854379
 C   -0.034901    3.388488   -0.863573
 C    0.019932    4.090230    0.330074
 C    0.019532    3.407712    1.535669
 C   -0.031673    2.024913    1.552066
 C   -1.394538   -0.775112    0.180065
 C   -2.718245   -0.236051   -0.051471
 C   -3.234081    1.047222   -0.148529
 C   -1.543937   -2.240824    0.186295
 O   -0.666293   -3.082993    0.368466
 N   -2.856025   -2.508420   -0.045563
 C   -3.586473   -1.338738   -0.192794
 C   -4.934762   -1.188407   -0.430997
 C   -5.434289    0.108607   -0.533714
 C   -4.587113    1.204405   -0.400333
 O   -7.134560    0.784200   -2.022974
 C   -9.908920   -1.176603   -0.474121
 C   -9.206065    0.170645   -0.343291
 C   -6.866298    0.339552   -0.922034
 N   -7.803692    0.029376   -0.000298
 C   -7.500281   -0.436251    1.329680
 H    8.576509    1.328405    0.815660
 H    9.117923   -0.353893    0.669489
 H   10.175507    1.063636   -1.067075
 H    8.596399    1.577780   -1.649853
 H    9.700361   -1.272378   -1.688472
 H    9.433994   -0.236457   -3.085765
 H    7.568401   -1.889828   -2.758746
 H    7.002897   -0.225668   -2.678319
 H    7.664885   -2.015758   -0.283948
 H    6.033541   -1.566000   -0.822853
 H    6.627971    0.714549   -0.458985
 H    6.661587    0.703438    1.964027
 H    6.907691   -1.053272    1.866752
 H    4.631661    1.683785    0.685716
 H    2.252852    1.416638    0.313561
 H    4.985029   -2.478197    1.617655
 H    2.579400   -2.749601    1.260328
 H    0.626438   -1.949556    0.640525
 H   -0.149292    1.453460   -1.780407
 H   -0.043152    3.918419   -1.803877
 H    0.055325    5.168833    0.320543
 H    0.052940    3.953086    2.466497
 H   -0.037749    1.488605    2.489384
 H   -2.603064    1.913571   -0.037198
 H   -3.238814   -3.438356   -0.104683
 H   -5.583390   -2.042952   -0.548668
 H   -5.001902    2.195613   -0.499911
 H   -9.402237   -1.792773   -1.212864
 H   -9.926207   -1.705787    0.475898
 H  -10.933775   -1.021601   -0.799051
 H   -9.698167    0.780010    0.422233
 H   -9.241230    0.701382   -1.296979
 H   -8.192597    0.025494    2.035797
 H   -7.602072   -1.522495    1.407675
 H   -6.484243   -0.159976    1.605148
