49 
2x81_ligand_xtb.xyz
 C    2.231311   -2.432988   -1.685977
 C    2.995604   -0.748478   -0.250252
 C    3.374205    0.398858    1.946140
 C    5.509765    0.451808    3.004924
 C    6.046477   -0.266416    1.950906
 C    5.225859   -0.650792    0.905478
 C    2.142547    0.311822   -0.831017
 C    1.922596    2.618013   -1.484114
 C    0.584010    2.420029   -1.798868
 O   -8.203141    1.375354    0.730563
 C   -6.897013    1.677276    0.882925
 O   -6.567264    2.791957    1.187586
 C   -5.922884    0.581869    0.640879
 C   -4.590334    0.936627    0.425215
 C   -3.624840   -0.014420    0.181448
 C   -3.971186   -1.367199    0.156961
 N   -3.065645   -2.378567   -0.090601
 C   -1.753313   -2.333183   -0.451355
 N   -1.195732   -3.541732   -0.608555
 C    0.063852   -3.568803   -0.991078
 C    0.803508   -2.416412   -1.233805
 N    3.057905   -1.961168   -0.608338
 C    3.870823   -0.327648    0.865872
 F    2.066382    0.716502    1.969263
 C    4.166872    0.787853    3.009085
 F    5.770387   -1.317777   -0.121520
 C    2.691650    1.583288   -0.987679
Cl    2.632114    4.176669   -1.699084
 C    0.033227    1.168622   -1.627029
 C    0.798171    0.096356   -1.166918
 C    0.144502   -1.204687   -0.994737
 N   -1.133097   -1.174992   -0.623820
 C   -5.298899   -1.729835    0.406031
 C   -6.261164   -0.771637    0.640192
 H    2.340498   -1.797454   -2.576793
 H    2.551249   -3.450394   -1.921800
 H    6.140100    0.751729    3.826856
 H    7.090402   -0.534646    1.926081
 H   -0.012012    3.239596   -2.167525
 H   -8.337998    0.466417    0.433614
 H   -4.333853    1.984607    0.451405
 H   -2.598881    0.266615    0.017712
 H   -3.414168   -3.326299   -0.019546
 H    0.499551   -4.551527   -1.119427
 H    3.725480    1.343496    3.820531
 H    3.726530    1.757086   -0.732339
 H   -1.006043    0.994254   -1.858243
 H   -5.570667   -2.775956    0.415588
 H   -7.269905   -1.102252    0.853269
