25 
2x8d_ligand_dft.xyz
 C    2.986020   -1.498110   -0.005990
 C    1.940955   -2.432488    0.001352
 C    2.707173   -0.149000   -0.007143
 C    0.619564   -2.027048    0.007945
 C    1.374556    0.313090   -0.001437
 C    0.342415   -0.656591    0.005865
 C   -0.260182    2.123885    0.018846
 C    1.053033    1.721489   -0.000630
 C   -1.256085    1.141193    0.035872
 C   -2.199199   -0.930854   -0.027582
 C    2.143500    2.749308   -0.011588
 N   -2.600023    1.298516    0.093216
 N   -3.172827    0.044780   -0.118195
 N   -0.972348   -0.175173    0.003307
 O   -2.331757   -2.117763    0.016594
 H    4.015631   -1.838086   -0.010370
 H    2.166215   -3.493557    0.002501
 H    3.521851    0.565675   -0.011317
 H   -0.185860   -2.748615    0.014899
 H   -0.542069    3.169910    0.038707
 H    2.786697    2.638007    0.867625
 H    2.773437    2.633364   -0.899715
 H    1.735591    3.761255   -0.010792
 H   -3.042623    2.072408   -0.390595
 H   -4.068936   -0.124367    0.324943
