34 
2x8e_ligand_dft.xyz
 C   -1.122332    1.972410    0.131039
 C    0.187954    2.387392    0.145995
 C   -3.833126    0.892861   -0.672856
 C   -3.278356   -0.982292    0.703034
 C   -0.430576   -0.338345   -0.019579
 C   -5.147233    0.435853   -0.666441
 C   -4.620104   -1.345620    0.649831
 C   -1.450842    0.603322    0.046485
 C   -2.866493    0.167731    0.026625
 C    1.246236    1.456813    0.079399
 C    0.897638    0.086741    0.000646
 C    3.620672    0.911944   -0.001704
 C    2.629584    1.861329    0.085647
 C    3.245874   -0.431997   -0.088075
 C    1.893997   -2.265474   -0.096100
 C    2.997020    3.311584    0.175076
 N   -5.547025   -0.659616   -0.019905
 N    4.035613   -1.525848   -0.214075
 N    3.220574   -2.645542   -0.046115
 N    1.957151   -0.826799   -0.059167
 O    0.920232   -2.956590   -0.155062
 H   -1.917441    2.706430    0.206649
 H    0.408666    3.446117    0.216913
 H   -3.572775    1.780993   -1.240252
 H   -2.579952   -1.574480    1.286159
 H   -0.660315   -1.391615   -0.109892
 H   -5.915892    0.977175   -1.212103
 H   -4.966907   -2.231447    1.175825
 H    4.671265    1.176105   -0.021154
 H    2.576975    3.868212   -0.669206
 H    2.599150    3.753957    1.094347
 H    4.079471    3.448379    0.169929
 H    4.931205   -1.560815    0.260941
 H    3.501015   -3.487166   -0.536956
