36 
2x8i_ligand_dft.xyz
 C    4.783788   -1.527103   -0.903997
 C    3.392039   -1.508253   -0.839667
 C    0.526156   -1.642058    0.127804
 C   -0.852043   -1.645109    0.183160
 C    5.538049   -0.559786   -0.259092
 C    0.574856    0.734053   -0.197735
 C    3.504369    0.483315    0.526982
 C    1.268341   -0.457409   -0.063241
 C    2.748182   -0.497619   -0.124827
 C   -0.831605    0.784258   -0.147032
 C   -1.531259   -0.430822    0.045929
 C    4.896230    0.449507    0.463872
 C   -2.930131    2.026752   -0.231014
 C   -1.557403    2.023634   -0.296925
 C   -3.588724    0.810775   -0.021754
 C   -3.873596   -1.433462    0.233069
 C   -0.823543    3.311839   -0.515109
 N   -4.917880    0.578037    0.116524
 N   -5.096438   -0.805948    0.095949
 N   -2.927469   -0.357460    0.082970
 O   -3.644332   -2.589964    0.430224
 O    5.683696    1.357560    1.084429
 H    5.285189   -2.306177   -1.468948
 H    2.814425   -2.257996   -1.371591
 H    1.056837   -2.580127    0.254643
 H   -1.398844   -2.564971    0.339483
 H    6.621799   -0.567641   -0.295890
 H    1.133759    1.646887   -0.370296
 H    3.008156    1.251298    1.117386
 H   -3.508337    2.938889   -0.319017
 H   -0.145256    3.514459    0.320283
 H   -0.218855    3.260470   -1.426579
 H   -1.513500    4.152045   -0.607642
 H   -5.580960    1.110331   -0.436758
 H   -5.883341   -1.166347    0.623895
 H    5.144293    1.990630    1.573165
