60 
2x91_ligand_xtb.xyz
 O   43.678953   35.354953   48.444852
 O   42.820934   37.382414   48.114324
 C   42.715536   36.188680   48.063079
 C   41.454883   35.457033   47.583457
 C   40.497845   35.311579   48.775532
 C   39.917400   36.657683   49.221655
 C   39.080818   36.474253   50.455971
 C   37.736400   36.139593   50.356785
 C   36.973981   35.936475   51.493253
 C   37.549059   36.062745   52.746148
 C   38.888931   36.393419   52.855538
 C   39.648901   36.595976   51.717283
 H   43.366374   34.443061   48.241443
 H   40.964113   36.060917   46.805461
 H   39.680747   34.646875   48.483971
 H   41.028502   34.844099   49.609183
 H   40.732088   37.355125   49.420534
 H   39.308336   37.067986   48.413620
 H   37.282735   36.042647   49.380371
 H   35.928372   35.680074   51.401609
 H   36.954427   35.905988   53.634110
 H   39.342771   36.495253   53.830630
 H   40.693809   36.857722   51.805083
 N   41.876289   34.141914   47.111299
 N   43.655981   28.011998   45.045393
 C   41.260215   34.178933   44.748731
 C   42.413513   34.162951   45.754580
 O   40.126769   33.873950   45.085790
 C   43.316850   32.938849   45.524768
 C   42.545454   31.622094   45.458873
 C   43.485808   30.438985   45.254082
 C   42.720354   29.121419   45.160927
 H   41.077722   33.509442   47.110898
 H   43.154076   27.131895   44.998000
 H   44.195796   28.103164   44.190411
 H   43.013181   35.073989   45.642683
 H   43.869240   33.074057   44.594321
 H   44.042898   32.896477   46.339824
 H   41.981985   31.478217   46.381974
 H   41.834997   31.655629   44.630953
 H   44.196558   30.372155   46.079436
 H   44.054628   30.583262   44.332514
 H   42.008233   29.182036   44.321030
 H   42.143978   28.968484   46.078095
 O   38.943983   32.705822   41.773333
 O   40.996886   32.130398   42.366256
 N   41.520563   34.568722   43.487513
 C   40.454297   34.464838   42.507251
 C   40.997683   35.150119   41.238339
 C   42.307634   35.805628   41.689665
 C   42.766858   34.924634   42.849922
 C   40.168738   32.982055   42.232682
 H   38.347951   33.466035   41.793023
 H   39.556453   34.949906   42.909061
 H   41.191806   34.404601   40.465884
 H   40.293086   35.880701   40.845171
 H   43.045324   35.853268   40.892566
 H   42.113907   36.816715   42.049290
 H   43.432418   35.445939   43.536659
 H   43.264977   34.024168   42.471910
