54 
2xch_ligand_xtb.xyz
 O    5.629947   -0.859759    0.233834
 C    4.961890   -0.137239   -0.474216
 N    5.478544    0.863686   -1.223980
 C    3.488989   -0.246893   -0.553461
 C    2.690847   -1.333721   -0.107772
 C    2.985431   -2.594253    0.450068
 N    2.718012    0.711560   -1.043890
 N    1.452368    0.307652   -0.939481
 C    0.382032    1.140558   -1.398354
 C    0.020594    2.233384   -0.376940
 C   -0.238050    1.620857    1.002165
 C   -0.543401    2.701507    2.024710
 N    0.613003    3.637847    2.092052
 C    0.840619    4.311190    0.784854
 C    1.147165    3.266340   -0.277188
 C    1.367996   -0.925762   -0.368927
 C    0.263377   -1.743201   -0.022961
 N   -1.013328   -1.330276   -0.159689
 C   -1.955202   -2.188932    0.196966
 N   -1.738637   -3.441226    0.668745
 C   -0.509201   -3.833562    0.820868
 C    0.598393   -3.014617    0.511955
 C    1.941200   -3.418838    0.731865
 N   -3.277604   -1.895580    0.155533
 C   -3.985466   -0.763580   -0.220800
 C   -3.384095    0.353717   -0.789985
 C   -4.147274    1.453245   -1.138874
 C   -5.514751    1.457233   -0.927734
 C   -6.120221    0.342947   -0.367597
 C   -5.366552   -0.758686   -0.015916
 H    6.479421    0.954111   -1.282472
 H    4.897476    1.366471   -1.870778
 H    4.012340   -2.865390    0.629307
 H   -0.474794    0.490677   -1.574327
 H    0.686082    1.608582   -2.337890
 H   -0.892243    2.723204   -0.727495
 H    0.637220    1.053175    1.325531
 H   -1.071952    0.921044    0.942969
 H   -0.710820    2.267945    3.011737
 H   -1.429425    3.269342    1.735131
 H    1.453441    3.090647    2.320020
 H    0.469953    4.333367    2.831575
 H    1.667432    5.016357    0.884343
 H   -0.064705    4.865124    0.528390
 H    1.272837    3.770391   -1.234953
 H    2.088442    2.756777   -0.058054
 H   -0.366313   -4.834046    1.209328
 H    2.107081   -4.402568    1.143791
 H   -3.839647   -2.674870    0.477249
 H   -2.325932    0.332186   -0.973538
 H   -3.669667    2.309787   -1.593426
 H   -6.106967    2.314935   -1.205706
 H   -7.187298    0.331563   -0.207898
 H   -5.843957   -1.626534    0.415104
