44 
2xct_ligand_xtb.xyz
 O   -4.901495   -2.276071   -0.219811
 C   -4.650246   -0.961580   -0.347473
 O   -5.552737   -0.185860   -0.585697
 C   -3.252074   -0.537034   -0.173629
 C   -2.987171    0.783273   -0.328368
 N   -1.730654    1.323450   -0.180210
 C   -0.612722    0.486544    0.019705
 C    0.648894    0.992198    0.046844
 C    1.801101    0.161852    0.277814
 N    3.073457    0.807113    0.215821
 C    4.120314    0.455271    1.137847
 C    5.249456   -0.350239    0.442146
 N    4.637174   -1.064751   -0.700864
 C    4.203518   -0.131974   -1.772269
 C    3.574530    1.117409   -1.091981
 C    1.533529   -1.171032    0.476830
 F    2.618728   -2.060411    0.711104
 C    0.280045   -1.731266    0.472379
 C   -0.864852   -0.917254    0.201848
 C   -2.144887   -1.418795    0.129376
 O   -2.385982   -2.803012    0.336961
 C   -1.555743    2.728888   -0.297311
 C   -2.523639    3.651230    0.380304
 C   -1.129316    3.523704    0.908465
 H   -4.057042   -2.741695   -0.035491
 H   -3.779622    1.467857   -0.582867
 H    0.839444    2.043509   -0.084144
 H    3.686538   -0.118456    1.956974
 H    4.561856    1.367341    1.563681
 H    5.689085   -1.073946    1.127999
 H    6.034750    0.307124    0.065041
 H    3.790241   -1.532004   -0.301857
 H    5.253609   -1.788153   -1.074047
 H    3.467437   -0.643253   -2.393096
 H    5.063706    0.143064   -2.384819
 H    4.326915    1.908195   -1.003287
 H    2.753039    1.488905   -1.703455
 H    0.179313   -2.790251    0.640633
 H   -1.949481   -3.062593    1.155600
 H   -1.157462    3.049754   -1.260706
 H   -3.320124    3.208681    0.957275
 H   -2.805633    4.557953   -0.133010
 H   -0.438894    4.342306    0.769616
 H   -0.988768    2.981040    1.830023
