46 
2xd6_ligand_xtb.xyz
 C   -0.174256   -1.249163   -1.589569
 C    1.026443   -1.130884   -0.713109
 C    1.353631   -2.198795    0.137144
 C    2.460720   -2.114841    0.968508
 C    3.250769   -0.974583    0.983243
 C    2.919494    0.082255    0.129419
 C    1.833752    0.015258   -0.734370
 C    1.522872    1.181961   -1.626776
 C    0.715678    2.219317   -0.845500
 C   -0.751884    1.900041   -0.713287
 C   -1.493535    2.952685    0.105408
 C   -3.001108    2.717216    0.183808
 C   -3.427064    1.671271    1.222044
 C   -3.116538    0.238362    0.863639
 C   -3.708161   -0.351566   -0.169535
 C   -3.569310   -1.777878   -0.613952
 C   -2.427389   -1.960691   -1.614496
 O   -1.192245   -1.788362   -0.926386
 O   -0.237821   -0.886715   -2.740132
 O    0.600488   -3.320091    0.109549
 O    4.305760   -0.918418    1.808600
Cl    3.935443    1.498545    0.192982
 O    1.228860    3.202333   -0.379914
 C   -2.177522   -0.462324    1.811833
 O   -2.818753   -0.560995    3.073503
 H    2.728885   -2.933143    1.620019
 H    0.957802    0.844265   -2.492199
 H    2.453154    1.648201   -1.955285
 H   -0.857433    0.909979   -0.266665
 H   -1.170943    1.839979   -1.721533
 H   -1.306847    3.926328   -0.353151
 H   -1.071748    2.987756    1.111620
 H   -3.376418    2.432878   -0.800805
 H   -3.477701    3.660973    0.457691
 H   -4.507664    1.756770    1.359715
 H   -2.960277    1.906018    2.178692
 H   -4.363273    0.248661   -0.788262
 H   -4.493697   -2.091621   -1.101018
 H   -3.389688   -2.434839    0.236667
 H   -2.486991   -1.232186   -2.430535
 H   -2.442895   -2.970339   -2.039523
 H    0.974355   -3.979383    0.708266
 H    4.751530   -0.062918    1.682443
 H   -1.254892    0.132982    1.909184
 H   -1.900550   -1.454233    1.438376
 H   -2.217111   -0.979242    3.697115
