51 
2xdw_ligand_xtb.xyz
 C   -2.278580   -2.185201    0.952092
 C   -3.431205   -1.973527    0.214073
 C   -3.389451   -2.028650   -1.169037
 C   -2.192150   -2.295094   -1.813139
 C   -1.041295   -2.511844   -1.077368
 C   -1.078950   -2.464490    0.310907
 C    0.190411   -2.648054    1.097330
 O    0.975678   -1.456805    0.980075
 C    2.200780   -1.580750    0.384764
 O    2.707459   -2.634695    0.094348
 N    2.772130   -0.370599    0.244383
 C    2.002283    0.855592    0.358595
 C    0.790857    0.743797   -0.587875
 O    0.901238    0.102514   -1.617069
 C    2.972631    1.933807   -0.140584
 C    3.820553    1.177237   -1.163146
 C    4.001940   -0.187650   -0.505533
 C   -1.354365    1.347040    1.998411
 N   -0.356588    1.378061   -0.261681
 O   -0.519623    0.435151    2.658842
 C   -0.597062    2.169067    0.932962
 C   -1.311939    3.479031    0.569560
 C   -2.166140    2.476326   -1.524615
 C   -1.510254    1.161909   -1.123174
 C   -2.560960    3.248134   -0.271846
 H   -2.310783   -2.136984    2.031477
 H   -4.362664   -1.763123    0.720231
 H   -4.288757   -1.861840   -1.743833
 H   -2.155252   -2.333808   -2.891394
 H   -0.104602   -2.708205   -1.576611
 H   -0.016683   -2.798744    2.161532
 H    0.782706   -3.486120    0.714308
 H    1.705946    0.992606    1.400138
 H    2.449752    2.784466   -0.575699
 H    3.593528    2.284283    0.685358
 H    3.259192    1.064198   -2.090232
 H    4.767774    1.669350   -1.372061
 H    4.851729   -0.189145    0.187024
 H    4.126265   -1.003905   -1.217955
 H   -2.210900    0.831110    1.546729
 H   -1.725055    2.020924    2.775017
 H   -0.176692   -0.212493    2.024709
 H    0.363731    2.446040    1.374329
 H   -0.617296    4.100898   -0.000490
 H   -1.558819    4.010064    1.489677
 H   -3.039413    2.263262   -2.141738
 H   -1.466335    3.070267   -2.115818
 H   -1.151545    0.619468   -1.999158
 H   -2.239618    0.528492   -0.606955
 H   -3.298243    2.679916    0.297517
 H   -3.007398    4.207384   -0.538836
