89 
2xe4_ligand_xtb.xyz
 C    5.587474   -1.411904   -1.380181
 C    6.857888   -1.261590   -0.852475
 C    7.248762   -2.012633    0.241602
 C    6.364028   -2.916934    0.804710
 C    5.095288   -3.065694    0.276368
 C    4.693431   -2.312723   -0.820136
 C    3.308170   -2.481055   -1.379986
 C    2.233843   -1.921642   -0.439496
 C    2.269696   -0.390880   -0.345957
 O    3.407414    0.127506    0.015168
 O    1.276795    0.262594   -0.600490
 N    0.910074   -2.314178   -0.888819
 C   -0.135805   -1.962263   -0.056276
 O   -0.029840   -2.051645    1.158772
 N   -1.277764   -1.611996   -0.703144
 C   -2.446034   -1.059990   -0.026844
 C   -2.093214    0.289920    0.618517
 O   -2.464769    1.346116    0.111923
 C   -3.067150   -2.040145    0.975853
 C   -3.322693   -3.425326    0.378079
 C   -4.415499   -3.462153   -0.697608
 N   -5.701937   -3.026632   -0.208467
 C   -6.184887   -1.740145   -0.370110
 N   -7.100054   -1.369568    0.602130
 N   -5.901751   -0.898346   -1.273469
 N   -1.358620    0.224991    1.727151
 C   -0.970870    1.380130    2.516084
 C    0.256554    2.071957    1.883243
 O    1.359641    2.075313    2.416177
 C   -0.792581    0.954272    3.984715
 C    0.335049   -0.056428    4.190572
 C   -0.570390    2.185222    4.861435
 N   -0.065393    2.668159    0.735452
 C    0.738100    3.295234   -0.308729
 C    2.136319    3.753666    0.142229
 O    2.998259    2.720539    0.549118
 C   -0.023026    4.522534   -0.840353
 C   -1.426942    4.276864   -1.404826
 C   -1.461267    3.482078   -2.709598
 N   -1.075251    2.111303   -2.484363
 C   -0.671888    1.277259   -3.493870
 N   -0.301670    0.007776   -3.024438
 N   -0.556145    1.512481   -4.734605
 H    5.289114   -0.821284   -2.234322
 H    7.543267   -0.555017   -1.296641
 H    8.239624   -1.895247    0.654467
 H    6.664263   -3.508374    1.657208
 H    4.409848   -3.776650    0.715554
 H    3.092635   -3.542900   -1.521107
 H    3.231851   -1.983306   -2.349821
 H    2.373034   -2.312650    0.574262
 H    3.339817    1.127275    0.089583
 H    0.749605   -2.133036   -1.871086
 H   -1.182212   -1.321152   -1.671384
 H   -3.178981   -0.831673   -0.806370
 H   -2.400815   -2.164837    1.828479
 H   -4.003357   -1.603422    1.330256
 H   -2.395960   -3.807410   -0.051583
 H   -3.614115   -4.097436    1.189372
 H   -4.516753   -4.491341   -1.062015
 H   -4.134953   -2.837363   -1.546925
 H   -5.972777   -3.471968    0.657224
 H   -7.590693   -0.524604    0.349978
 H   -7.707352   -2.101220    0.939079
 H   -5.195324   -1.190549   -1.937607
 H   -0.881987   -0.655866    1.921643
 H   -1.802804    2.096372    2.460773
 H   -1.739155    0.482705    4.278878
 H    0.208946   -0.941470    3.571730
 H    1.291788    0.396987    3.952319
 H    0.350410   -0.372610    5.231128
 H    0.368028    2.665316    4.599058
 H   -0.526462    1.894344    5.907880
 H   -1.378933    2.902881    4.737188
 H   -1.017221    2.489984    0.417234
 H    0.859863    2.559581   -1.112454
 H    2.031597    4.488416    0.951547
 H    2.621160    4.240318   -0.708220
 H    2.599668    2.396547    1.399277
 H    0.587027    4.980272   -1.621491
 H   -0.107100    5.242627   -0.022108
 H   -2.063261    3.773482   -0.676226
 H   -1.873689    5.253908   -1.601724
 H   -0.759535    3.919392   -3.428494
 H   -2.474879    3.550971   -3.135642
 H   -1.507378    1.677418   -1.679282
 H    0.170304   -0.487719   -3.771426
 H    0.277792    0.099359   -2.192996
 H   -0.908509    2.413859   -5.034301
