82 
2xej_ligand_dft.xyz
 C    2.797679    4.188585   -0.353621
 O    1.535441    3.976707   -0.966791
 C    0.444597    4.278226   -0.111678
 C   -0.821792    4.273514   -0.963941
 O   -1.973533    4.236714   -0.154434
 C   -2.372388    2.925650    0.165084
 C   -3.484293    3.002372    1.190943
 O   -4.003853    1.704873    1.343639
 C   -4.832381    1.587414    2.477490
 C   -5.496492    0.232973    2.484966
 O   -4.515801   -0.760641    2.689432
 C   -5.032505   -2.063678    2.835750
 C   -5.283863   -2.760832    1.511793
 O   -6.362380   -2.125862    0.859399
 C   -6.538322   -2.519468   -0.482878
 C   -5.427799   -2.053177   -1.376789
 C   -4.608636   -0.951671   -1.272811
 N   -5.078476   -2.743677   -2.493667
 N   -4.097154   -2.129488   -3.084090
 N   -3.802545   -1.043535   -2.356364
 C   -2.646680   -0.241735   -2.724014
 C   -1.345269   -0.793963   -2.142286
 C   -1.266780   -0.661397   -0.621383
 C   -0.039050   -1.323082    0.005107
 C    1.317222   -0.814021   -0.509741
 C    1.406004    0.702035   -0.364135
 O    1.183543    1.363141   -1.476835
 O    1.632279    1.241487    0.714293
 N    2.391761   -1.431792    0.240255
 C    3.582384   -1.726700   -0.405784
 O    3.681368   -1.845098   -1.616693
 N    4.641434   -1.907506    0.445004
 C    5.985607   -2.020893   -0.061962
 C    6.855904   -2.508781    1.078781
 O    6.550942   -2.465631    2.248356
 O    8.044395   -2.954701    0.648577
 C    6.540245   -0.682695   -0.609310
 C    6.330793    0.491030    0.360443
 C    4.907414    1.002493    0.292568
 O    4.371995    1.343449   -0.740924
 O    4.289626    1.039258    1.480039
 H    2.949014    5.259247   -0.167279
 H    3.553432    3.813068   -1.042783
 H    2.868821    3.635567    0.589747
 H    0.588975    5.263294    0.351091
 H    0.384196    3.527893    0.688708
 H   -0.796887    3.414419   -1.651398
 H   -0.874290    5.182800   -1.568631
 H   -1.539565    2.336100    0.575896
 H   -2.741319    2.405067   -0.733168
 H   -3.082598    3.383416    2.142070
 H   -4.260242    3.704683    0.848782
 H   -5.617124    2.361426    2.459962
 H   -4.240946    1.722274    3.396086
 H   -6.237893    0.212332    3.301132
 H   -6.032477    0.073955    1.543487
 H   -4.280672   -2.634188    3.391723
 H   -5.960471   -2.051129    3.428506
 H   -4.371122   -2.709622    0.902460
 H   -5.515779   -3.824333    1.689153
 H   -7.493626   -2.083019   -0.790140
 H   -6.626624   -3.612189   -0.574871
 H   -4.518515   -0.162526   -0.538468
 H   -2.827854    0.781596   -2.381381
 H   -2.609911   -0.237074   -3.815176
 H   -1.250168   -1.844571   -2.442217
 H   -0.518813   -0.246238   -2.608564
 H   -1.288959    0.402750   -0.356625
 H   -2.156778   -1.101559   -0.157265
 H   -0.071873   -1.171227    1.091126
 H   -0.059800   -2.404461   -0.169062
 H    1.467981   -1.076253   -1.557564
 H    1.349707    2.335967   -1.322310
 H    2.462940   -1.102496    1.194588
 H    4.554134   -1.766163    1.441753
 H    6.011943   -2.759669   -0.867944
 H    8.551231   -3.205166    1.437852
 H    7.604151   -0.807132   -0.831818
 H    6.023205   -0.465285   -1.547490
 H    6.976658    1.320189    0.052432
 H    6.587806    0.229204    1.390979
 H    3.353189    1.288284    1.308671
