21 
2xel_ligand_xtb.xyz
Cl   -3.910126    2.132540   -0.938789
 C   -2.734838    1.016847   -0.424039
 C   -2.882049   -0.228283    0.143938
Cl   -4.348577   -1.014338    0.515859
 C   -1.576940   -0.731045    0.364748
Cl   -1.231791   -2.208499    1.129141
 C   -0.674874    0.222014   -0.072821
 C    0.779686    0.248299   -0.055116
 C    1.448202    1.415209    0.310382
 C    2.829740    1.452043    0.348177
Cl    3.635562    2.906627    0.807349
 C    1.520900   -0.890458   -0.413737
 C    2.915257   -0.821890   -0.347321
 N   -1.407801    1.284872   -0.535443
Cl    3.823611   -2.241103   -0.776569
 C    3.579363    0.329721    0.029355
 O    0.887499   -1.990232   -0.844209
 H    0.882124    2.287917    0.594097
 H    4.655952    0.354974    0.069450
 H    1.543172   -2.681913   -1.033539
 H   -1.020845    2.113176   -0.958494
