31 
2xf0_ligand_dft.xyz
 C   15.510593   -4.082056    8.646993
 C   16.488908   -5.021696    8.952286
 C   17.369494   -5.460896    7.967268
 C   17.266255   -4.955558    6.673955
 C   16.279342   -4.027257    6.362498
 C   10.467614   -5.567296    9.539903
 N    9.413680   -6.146754   10.095045
 N    8.408890   -5.284092    9.867983
 C    8.788451   -4.181310    9.190024
 C   10.141442   -4.321279    8.949804
 C   10.986639   -3.360515    8.240181
 C   12.319168   -3.584247    8.045557
 C   12.441191   -1.497089    6.868194
 N   13.297356   -0.729828    6.205945
 C   14.474534   -1.390353    6.285507
 C   14.377055   -2.574322    7.002549
 C   15.388700   -3.580160    7.344899
 N   13.054526   -2.637040    7.374284
 C   11.056684   -1.346698    7.124940
 N   10.353202   -2.225295    7.783439
 H   14.853462   -3.714389    9.430512
 H   16.571853   -5.401404    9.966170
 H   18.135154   -6.192135    8.207564
 H   17.949810   -5.293511    5.900976
 H   16.183227   -3.650075    5.348558
 H   11.426470   -6.066816    9.582386
 H    7.487759   -5.512911   10.204674
 H    8.106978   -3.388111    8.924686
 H   12.844559   -4.470535    8.374835
 H   10.557816   -0.455521    6.752311
 H   15.378189   -0.989851    5.844073
