86 
2xfi_ligand_dft.xyz
 C   -0.028467    0.368105   -2.899553
 C   -1.073229    0.629245   -1.821123
 N   -2.430235    0.236381   -2.310670
 C   -3.376337   -0.375755   -1.332216
 C   -3.716551   -1.833798   -1.797499
 O   -3.027486   -2.151413   -2.987462
 C   -3.482670   -2.909653   -0.703218
 C   -4.680352   -3.073373    0.256255
 C   -5.019382   -1.831136    1.048372
 C   -5.940749   -0.901635    0.556229
 C   -6.198853    0.280615    1.243230
 C   -5.540752    0.550679    2.440525
 C   -4.644317   -0.378895    2.958528
 C   -4.394340   -1.563507    2.270577
 N   -2.273150   -2.693569    0.082738
 C   -1.021859   -2.663094   -0.427104
 O   -0.797592   -2.709924   -1.642061
 C    0.082067   -2.499921    0.563466
 C    0.016192   -3.029844    1.853679
 C    1.064727   -2.819528    2.742583
 C    2.159340   -2.052175    2.361481
 C    2.227789   -1.532248    1.071012
 C    1.207483   -1.782905    0.160274
 N    3.378238   -0.751509    0.710620
 C    4.580900   -1.463721    0.339138
 C    4.679737   -2.106135   -0.893946
 C    5.845265   -2.795457   -1.210664
 C    6.898845   -2.845586   -0.300540
 C    6.792622   -2.203299    0.930465
 C    5.631788   -1.507307    1.252508
 S    3.072000    0.708736   -0.055323
 C    4.491531    1.677700    0.396161
 O    3.044375    0.581925   -1.508444
 O    1.879580    1.251852    0.600156
 C   -1.219341    2.133604   -1.504299
 O   -2.191410    2.730374   -1.975888
 N   -0.248483    2.673693   -0.777113
 C   -0.217060    4.088645   -0.409712
 C   -0.852690    4.305196    0.968074
 C   -0.780345    5.777888    1.381598
 C    0.660944    6.293787    1.346228
 C    1.292973    6.072079   -0.030776
 C    1.225908    4.598954   -0.445162
 H   -0.266165    0.922975   -3.813048
 H    0.021241   -0.702236   -3.121813
 H    0.957402    0.686043   -2.551197
 H   -0.845754    0.057709   -0.918188
 H   -2.810684    1.146700   -2.645511
 H   -2.370693   -0.452908   -3.082831
 H   -2.917449   -0.355232   -0.343090
 H   -4.271067    0.243816   -1.290720
 H   -4.777027   -1.863470   -2.060307
 H   -2.169764   -2.552846   -2.716725
 H   -3.366330   -3.854760   -1.246116
 H   -5.541487   -3.385530   -0.342749
 H   -4.453654   -3.905309    0.932558
 H   -6.472412   -1.111457   -0.369518
 H   -6.923594    0.986836    0.850067
 H   -5.742881    1.471778    2.977445
 H   -4.152472   -0.191983    3.907942
 H   -3.734015   -2.306226    2.717355
 H   -2.388268   -2.468726    1.060587
 H   -0.829392   -3.640696    2.157242
 H    1.023893   -3.245825    3.739147
 H    2.967557   -1.853126    3.057146
 H    1.273939   -1.417350   -0.859898
 H    3.856188   -2.055868   -1.598405
 H    5.931105   -3.294063   -2.170508
 H    7.805736   -3.386224   -0.551698
 H    7.611928   -2.243273    1.640801
 H    5.529347   -0.999643    2.206896
 H    4.524890    1.771210    1.481671
 H    5.391513    1.198110    0.009483
 H    4.353543    2.653075   -0.075387
 H    0.474635    2.077108   -0.376521
 H   -0.808716    4.619017   -1.162972
 H   -0.315577    3.686302    1.700793
 H   -1.891825    3.958130    0.944312
 H   -1.397234    6.376351    0.697431
 H   -1.208697    5.904394    2.381490
 H    0.688901    7.357338    1.605488
 H    1.253446    5.765651    2.106496
 H    0.763274    6.680547   -0.776086
 H    2.334651    6.410428   -0.033557
 H    1.642857    4.455779   -1.448792
 H    1.827873    3.995033    0.249593
