87 
2xfj_ligand_dft.xyz
 C   -1.596531    1.553390   -1.148122
 C   -0.635343    0.637852   -1.567129
 C    0.684308    0.832809   -1.173493
 C    1.066819    1.944331   -0.431658
 C    0.107498    2.898287   -0.047975
 C   -1.234947    2.673525   -0.401594
 C    1.632888   -0.263733   -1.524784
 N    2.599504   -0.512268   -0.616129
 O    1.463511   -0.972279   -2.524224
 C    3.678915   -1.474187   -0.792929
 C    4.676784   -1.307670    0.375883
 C    3.181684   -2.937647   -0.872805
 O    2.686486   -3.294665   -2.140639
 C    4.974181    0.142804    0.678315
 C    2.125662   -3.239879    0.238218
 N    0.942569   -3.918731   -0.376100
 C   -0.290575   -3.077619   -0.518282
 C   -0.807455   -2.926914    0.921840
 N   -1.597050   -1.877032    1.158412
 O   -0.446830   -3.763137    1.751425
 C   -2.166793   -1.638836    2.489636
 C   -1.294389   -3.770623   -1.430212
 C   -3.572628   -2.241637    2.621868
 C   -4.615073   -1.474014    1.804155
 C   -4.623536    0.010644    2.184656
 C   -3.234292    0.635527    2.026252
 C   -2.170183   -0.138742    2.810085
 C    4.395473    0.763795    1.788299
 C    4.579255    2.126564    2.019460
 C    5.348886    2.881514    1.140679
 C    5.938505    2.268310    0.035453
 C    5.750103    0.910507   -0.194625
 N    0.493208    3.983315    0.701478
 C   -0.340366    5.153389    0.923194
 C   -0.586517    6.002841   -0.324266
 N   -2.951797    1.343555   -1.486097
 C   -3.921758    2.435384   -1.595506
 C   -5.123001    1.762622   -2.271413
 C   -5.026216    0.311697   -1.794909
 C   -3.552947    0.113367   -1.509344
 O   -3.000989   -0.958058   -1.279401
 H   -0.895134   -0.208420   -2.186020
 H    2.109767    2.111761   -0.169280
 H   -1.998000    3.373833   -0.085477
 H    2.686689    0.130829    0.159801
 H    4.190534   -1.262857   -1.739694
 H    4.269602   -1.787781    1.275230
 H    5.591806   -1.848838    0.115043
 H    4.050593   -3.580549   -0.701846
 H    2.265227   -2.489046   -2.525980
 H    1.771171   -2.327791    0.719937
 H    2.522065   -3.899504    1.009594
 H    1.258397   -4.226634   -1.312247
 H    0.659687   -4.698867    0.229431
 H    0.013641   -2.123326   -0.948022
 H   -1.932599   -1.336325    0.361140
 H   -1.496486   -2.154657    3.180943
 H   -0.871426   -3.921124   -2.428440
 H   -1.602208   -4.736348   -1.015887
 H   -2.177264   -3.134616   -1.529358
 H   -3.540905   -3.296992    2.331185
 H   -3.849152   -2.212062    3.683981
 H   -4.391773   -1.583125    0.734398
 H   -5.605186   -1.913143    1.965467
 H   -5.354464    0.559168    1.577593
 H   -4.949125    0.114102    3.228697
 H   -3.241910    1.680762    2.356328
 H   -2.961196    0.654401    0.965499
 H   -2.370180   -0.033963    3.883801
 H   -1.175417    0.282637    2.625417
 H    3.804107    0.174921    2.486823
 H    4.132096    2.589862    2.893714
 H    5.504866    3.940432    1.321541
 H    6.550209    2.851171   -0.645896
 H    6.210439    0.441642   -1.060920
 H    1.488246    4.149767    0.728549
 H    0.155403    5.751475    1.692838
 H   -1.289431    4.828808    1.365098
 H   -1.074217    5.422549   -1.114096
 H   -1.226266    6.857542   -0.083316
 H    0.357313    6.386089   -0.724513
 H   -3.498622    3.257130   -2.178217
 H   -4.182710    2.812213   -0.597375
 H   -6.064964    2.244472   -2.005414
 H   -5.009136    1.812531   -3.357936
 H   -5.381926   -0.431548   -2.510757
 H   -5.565062    0.146707   -0.853281
