40 
2xht_ligand_dft.xyz
 C   -2.280957   -2.361669   -0.897341
 C   -2.998959   -1.161050   -0.261536
 C   -4.154822   -0.759986   -1.199593
 C   -3.556185   -1.621863    1.100427
 C   -2.049139    0.029604   -0.060210
 C   -0.706100   -0.030170   -0.427851
 C    0.183067    1.035005   -0.259621
 C   -0.289088    2.230027    0.270334
 C   -1.614941    2.325864    0.661458
 C   -2.484681    1.246235    0.504726
 O   -3.785899    1.359294    0.894675
 C    1.604052    0.977253   -0.729944
 O    2.113720    1.943968   -1.281557
 N    2.282964   -0.212145   -0.570308
 C    3.631455   -0.305359   -1.120079
 C    4.665290   -0.133666   -0.013368
 O    4.460391   -1.079759    1.019403
 C    3.177016   -0.944854    1.585731
 C    2.073650   -1.132615    0.543743
 H   -1.883643   -2.125180   -1.890651
 H   -1.459495   -2.728888   -0.271347
 H   -2.994979   -3.183375   -1.016234
 H   -4.743026    0.060976   -0.785739
 H   -3.766719   -0.450486   -2.176386
 H   -4.821965   -1.616021   -1.355118
 H   -2.740799   -1.929693    1.765029
 H   -4.123082   -0.830224    1.593470
 H   -4.220382   -2.482522    0.958594
 H   -0.324467   -0.935399   -0.885652
 H    0.382087    3.076918    0.366308
 H   -1.988556    3.254365    1.089290
 H   -3.932261    2.247715    1.240984
 H    3.746440    0.463059   -1.884321
 H    3.746532   -1.296628   -1.575811
 H    4.601404    0.890243    0.388248
 H    5.676396   -0.301733   -0.392764
 H    3.066557    0.050884    2.048209
 H    3.096574   -1.704763    2.367996
 H    2.097661   -2.161416    0.162398
 H    1.101340   -0.957377    1.004237
