43 
2xhx_ligand_xtb.xyz
 C   -4.763222   -0.804732   -1.156276
 C   -3.407003   -1.286189   -0.623798
 C   -3.615865   -2.333983    0.478177
 C   -2.646252   -0.100955   -0.045756
 C   -1.403588    0.280934   -0.529037
 C   -0.699886    1.364912   -0.016159
 C    0.613306    1.775993   -0.597573
 O    0.805046    2.885204   -1.063935
 N    1.581287    0.831253   -0.586159
 C    2.921107    1.160801   -1.055392
 C    3.791008    0.162140   -0.363973
 C    5.167282    0.054130   -0.359537
 C    5.749127   -0.975160    0.366483
 C    4.966403   -1.874639    1.071932
 C    3.583025   -1.766378    1.066073
 C    3.005637   -0.742131    0.343186
 C    1.553402   -0.413861    0.162749
 C   -1.259599    2.118601    1.002666
 C   -2.487337    1.751390    1.514663
 C   -2.660790   -1.958619   -1.780242
 C   -3.179427    0.656514    1.010940
 O   -4.388043    0.328401    1.553942
 H   -4.617551   -0.041690   -1.918240
 H   -5.305911   -1.637287   -1.598476
 H   -5.366532   -0.388210   -0.356885
 H   -4.139788   -3.197910    0.075423
 H   -2.655896   -2.663638    0.871500
 H   -4.203974   -1.924594    1.292564
 H   -0.962505   -0.257805   -1.350762
 H    3.156661    2.199067   -0.798402
 H    2.978760    1.068355   -2.147643
 H    5.776863    0.755711   -0.908606
 H    6.824111   -1.075336    0.382377
 H    5.436970   -2.668324    1.632702
 H    2.972575   -2.467602    1.615215
 H    1.045449   -1.207701   -0.401117
 H    1.027275   -0.288854    1.115329
 H   -0.735694    2.978753    1.389754
 H   -2.929587    2.325568    2.319555
 H   -2.496677   -1.264414   -2.601146
 H   -1.705036   -2.363505   -1.454229
 H   -3.260479   -2.784791   -2.156837
 H   -4.608041    0.963994    2.246230
