12 
2xix_ligand_xtb.xyz
 N   -0.642440    1.136706   -0.000104
 N    0.723285    1.192323    0.006396
 N    2.359992   -0.512893   -0.082965
 C   -1.030888   -0.156345    0.001300
 N    0.020593   -0.946171   -0.002588
 N   -2.335446   -0.557283    0.079457
 C    1.069789   -0.076913   -0.002537
 H    3.045611    0.158114    0.223058
 H    2.495005   -1.455181    0.245642
 H   -3.011094    0.056945   -0.347723
 H   -2.460614   -1.531767   -0.145765
 H   -1.184204    1.982671    0.030846
