19 
2xj0_ligand_xtb.xyz
 O   -4.242650   -1.119311    0.003727
 C   -3.454657   -0.210571    0.000504
 O   -3.892065    1.064360   -0.001469
 C   -1.996891   -0.441909   -0.001261
 C   -1.035442    0.491799   -0.000507
 C    0.386594    0.242470   -0.000876
 C    0.981309   -1.028696   -0.002223
 N    2.280618   -1.209257   -0.001642
 C    3.051701   -0.112916    0.000321
 N    4.379597   -0.295213    0.001401
 N    2.600405    1.148258    0.001156
 C    1.297459    1.308677    0.000567
 H   -3.169472    1.704312   -0.004641
 H   -1.749189   -1.492574   -0.002278
 H   -1.284330    1.550341    0.001114
 H    0.389284   -1.933725   -0.003788
 H    4.745671   -1.229514    0.001312
 H    4.986454    0.503874    0.003350
 H    0.954516    2.337246    0.001315
