19 
2xj0_ligand_dft.xyz
 O   -4.269201   -0.995402    0.450552
 C   -3.470716   -0.198132    0.031456
 O   -3.878032    1.030345   -0.370237
 C   -2.016484   -0.494104   -0.055663
 C   -1.052106    0.434940    0.017457
 C    0.389559    0.213442    0.007768
 C    1.008391   -1.030336   -0.181231
 N    2.319158   -1.202218   -0.186491
 C    3.060746   -0.092054    0.002086
 N    4.401926   -0.248388   -0.018504
 N    2.594955    1.155276    0.193953
 C    1.276997    1.279191    0.191332
 H   -3.167504    1.469104   -0.855600
 H   -1.792294   -1.555658   -0.082758
 H   -1.338853    1.482405    0.129353
 H    0.416596   -1.930358   -0.338435
 H    4.785596   -1.177582   -0.060344
 H    4.989709    0.533947    0.215597
 H    0.894019    2.288223    0.347731
