48 
2xj1_ligand_dft.xyz
 C    0.269611   -2.332608   -1.173298
 C   -1.187504   -2.684645   -0.857841
 C   -1.529163   -2.271011    0.569633
 N   -2.992578   -2.528311    0.821214
 C   -0.643502   -2.985863    1.579932
 C    0.812647   -2.582256    1.324198
 C    1.256498   -2.878555   -0.121778
 N    2.612690   -2.416274   -0.377720
 C    3.027102   -1.111701   -0.315015
 N    2.125541   -0.162270   -0.092252
 C    4.390887   -0.770567   -0.495885
 N    4.791979    0.482148   -0.479111
 C    3.870161    1.436945   -0.279704
 C    2.535345    1.117579   -0.074922
 C    1.466490    2.129376    0.140350
 C    0.141732    1.742178   -0.037604
 C    1.728291    3.449317    0.526975
 C    0.684062    4.347378    0.723421
 C   -0.634455    3.945259    0.545048
 C   -0.917986    2.631499    0.152244
 C   -2.308179    2.205705   -0.025185
 C   -2.711686    1.044345   -0.569849
 C   -4.106894    0.572779   -0.577342
 O   -4.395679   -0.612160   -0.457130
 O   -5.094039    1.451497   -0.698208
 H    0.378250   -1.247061   -1.223362
 H    0.537967   -2.727664   -2.157060
 H   -1.346463   -3.768546   -0.957674
 H   -1.856443   -2.192393   -1.573932
 H   -1.415403   -1.188093    0.690301
 H   -3.570218   -1.832888    0.268517
 H   -3.259522   -3.477866    0.548451
 H   -3.230861   -2.413118    1.809645
 H   -0.768736   -4.072920    1.474999
 H   -0.924574   -2.718827    2.605874
 H    1.470624   -3.112855    2.018280
 H    0.929263   -1.511468    1.516497
 H    1.292297   -3.968730   -0.240033
 H    3.332619   -3.114800   -0.468219
 H    5.145303   -1.538063   -0.659683
 H    4.226237    2.461386   -0.305453
 H   -0.043014    0.710874   -0.310925
 H    2.747212    3.778644    0.702453
 H    0.901200    5.364905    1.030402
 H   -1.443374    4.652239    0.708698
 H   -3.056669    2.896410    0.366561
 H   -1.996962    0.325292   -0.957896
 H   -4.755162    2.322897   -0.948932
