63 
2xjx_ligand_dft.xyz
 C    5.017369    3.523779   -1.201541
 C    4.066344    3.017049   -0.105931
 C    2.623416    3.425994   -0.414249
 C    4.233580    1.522317    0.099603
 C    3.385615    0.575245   -0.452854
 C    3.566921   -0.803711   -0.301574
 C    2.667354   -1.761423   -1.006062
 O    3.043978   -2.642249   -1.753718
 N    1.306088   -1.567968   -0.807330
 C    0.407958   -2.539988   -1.425993
 C   -0.878785   -2.317359   -0.691983
 C   -2.111406   -2.929919   -0.886910
 C   -3.175102   -2.580160   -0.060826
 C   -3.011449   -1.617677    0.946333
 C   -4.162315   -1.248567    1.820405
 N   -5.006983   -0.060211    1.250305
 C   -4.198756    1.192881    1.119593
 C   -5.021096    2.349162    0.569726
 N   -5.642618    1.999358   -0.753756
 C   -6.438570    3.143570   -1.323500
 C   -6.470939    0.752858   -0.610717
 C   -5.645737   -0.400769   -0.059938
 C   -1.755228   -1.023904    1.150706
 C   -0.699331   -1.378733    0.327066
 C    0.727956   -0.903051    0.358860
 C    4.658734   -1.258310    0.445617
 O    4.798413   -2.589256    0.622550
 C    5.528895   -0.332622    1.021461
 C    5.324734    1.033378    0.841733
 O    6.157130    1.954320    1.380341
 H    6.056221    3.289008   -0.955993
 H    4.778614    3.057073   -2.164092
 H    4.932742    4.609861   -1.315761
 H    4.354759    3.504629    0.832391
 H    2.306667    3.077054   -1.404881
 H    1.925162    3.029592    0.333813
 H    2.538972    4.517349   -0.415069
 H    2.553413    0.911272   -1.065910
 H    0.785457   -3.563482   -1.299994
 H    0.314750   -2.369581   -2.505026
 H   -2.240871   -3.686949   -1.653982
 H   -4.129059   -3.090697   -0.177005
 H   -3.852284   -0.904431    2.810567
 H   -4.886951   -2.058441    1.938401
 H   -5.747791    0.100053    1.941492
 H   -3.344321    0.947006    0.481732
 H   -3.814123    1.461375    2.106348
 H   -4.377446    3.220592    0.428983
 H   -5.841275    2.634278    1.235989
 H   -4.884879    1.802365   -1.418212
 H   -7.254838    3.377889   -0.638648
 H   -5.779573    4.005218   -1.436258
 H   -6.833473    2.844384   -2.295088
 H   -6.863023    0.484371   -1.594429
 H   -7.316163    1.009915    0.035364
 H   -6.292419   -1.269349    0.085282
 H   -4.835560   -0.693693   -0.734590
 H   -1.601282   -0.322121    1.969128
 H    0.795212    0.189228    0.287446
 H    1.229366   -1.194918    1.291640
 H    5.630647   -2.778817    1.072954
 H    6.371314   -0.681302    1.616233
 H    6.889489    1.520250    1.835105
