46 
2xk3_ligand_dft.xyz
 C   -1.573017   -3.187864   -1.762075
 C   -1.562839   -2.243837   -0.561401
 C   -2.758428   -1.283806   -0.525259
 C   -4.103190   -1.927415   -0.286176
 C   -4.941455   -1.217348    0.465551
 S   -4.285829    0.298856    1.093143
 C   -2.587645   -0.222145    0.594210
 C   -1.679564    0.913456    0.200591
 C   -2.071896    2.005001   -0.561600
 N   -1.209996    2.946455   -0.950084
 C    0.064924    2.791228   -0.601594
 N    0.948211    3.741913   -1.071210
 C    0.492851    1.680591    0.175461
 C    1.950697    1.490594    0.547689
 C    2.181522    0.493757    1.697685
 C    2.044789   -0.982956    1.304229
 C    2.825945   -1.345095    0.037151
 C    4.320230   -1.404156    0.290173
 O    4.885676   -1.163449    1.331335
 O    5.002561   -1.780055   -0.813337
 C    2.502283   -0.362967   -1.105123
 C    2.778857    1.083605   -0.693841
 N   -0.395717    0.781466    0.566552
 H   -0.680048   -3.821235   -1.766456
 H   -1.590091   -2.626652   -2.703271
 H   -2.445408   -3.850321   -1.752516
 H   -0.642568   -1.646762   -0.578276
 H   -1.541567   -2.820468    0.372397
 H   -2.800864   -0.758915   -1.495066
 H   -4.384767   -2.864089   -0.756465
 H   -5.967781   -1.473865    0.701250
 H   -2.137973   -0.709130    1.465759
 H   -3.108877    2.139557   -0.857391
 H    0.492203    4.579676   -1.406018
 H    1.782644    3.911290   -0.529932
 H    2.328976    2.464199    0.896222
 H    3.194537    0.658465    2.080137
 H    1.484727    0.711146    2.513578
 H    2.384531   -1.605910    2.137596
 H    0.989742   -1.206464    1.128311
 H    2.542985   -2.353923   -0.291597
 H    5.938378   -1.794266   -0.556801
 H    3.075896   -0.620201   -2.000130
 H    1.440839   -0.476011   -1.358035
 H    3.844936    1.201730   -0.456816
 H    2.565061    1.755779   -1.531581
