54 
2xk4_ligand_dft.xyz
 C   -3.309276   -3.916448   -1.977436
 C   -2.814534   -2.560328   -1.519511
 O   -3.870938   -1.953072   -0.789520
 C   -3.701096   -0.711008   -0.303461
 C   -2.515292    0.011621   -0.409369
 C   -2.400502    1.291500    0.143939
 C   -1.095179    1.992441    0.013523
 N   -0.012306    1.225540    0.026880
 C    1.202258    1.778952   -0.063920
 C    2.373961    0.871264   -0.050879
 C    2.218543   -0.426771    0.450782
 C    3.297104   -1.299030    0.465733
 O    3.227778   -2.586491    0.893763
 C    1.974233   -3.072263    1.318837
 C    4.563712   -0.889442   -0.001423
 O    5.604663   -1.773461   -0.066851
 C    6.121813   -2.214415    1.180526
 C    4.710748    0.410125   -0.496869
 O    5.856711    0.901409   -1.036746
 C    7.103322    0.583084   -0.442450
 C    3.613577    1.276303   -0.527530
 C    1.306312    3.168749   -0.139064
 N    0.242665    3.962134   -0.209808
 C   -0.963466    3.395002   -0.160220
 N   -2.041744    4.248076   -0.259883
 C   -3.481744    1.843734    0.833509
 C   -4.661374    1.115763    0.949490
 C   -4.797276   -0.147901    0.380762
 C   -6.115842   -0.861855    0.449974
 O   -6.671997   -1.370437   -0.483496
 O   -6.696306   -0.858013    1.675820
 H   -3.570205   -4.539593   -1.117747
 H   -4.197514   -3.804280   -2.604410
 H   -2.530083   -4.423034   -2.554975
 H   -2.546872   -1.928826   -2.376949
 H   -1.927476   -2.658996   -0.878347
 H   -1.648045   -0.403086   -0.907439
 H    1.240612   -0.727516    0.803479
 H    1.602686   -2.521617    2.192169
 H    1.229950   -3.015777    0.514498
 H    2.134878   -4.116252    1.590423
 H    6.445572   -1.362526    1.793043
 H    5.383130   -2.800463    1.732983
 H    6.986161   -2.838534    0.945739
 H    7.039396    0.624242    0.652233
 H    7.459001   -0.402454   -0.749273
 H    7.799000    1.351830   -0.785849
 H    3.775317    2.259394   -0.955316
 H    2.272484    3.665611   -0.141123
 H   -2.888468    3.868205   -0.659128
 H   -1.788201    5.162434   -0.609395
 H   -3.399323    2.819421    1.299793
 H   -5.506855    1.556037    1.472600
 H   -6.064750   -0.528415    2.329258
