49 
2xk6_ligand_dft.xyz
 N   -2.670330   -3.561319   -0.842652
 C   -1.459564   -2.908579   -0.689911
 N   -0.442686   -3.370439   -1.412175
 C    0.714382   -2.712257   -1.329341
 C    0.888470   -1.611723   -0.501749
 C    2.202036   -0.873768   -0.420886
 S    3.329371   -1.622770    0.849895
 C    3.365042   -0.127720    1.908572
 C    2.164546    0.712162    1.479144
 C    2.062991    0.620238   -0.048380
 C    3.110416    1.462384   -0.746936
 C    2.835210    1.983835   -2.131510
 C    2.843872    2.927398   -0.955857
 N   -0.140802   -1.168831    0.230269
 C   -1.316558   -1.768306    0.144073
 C   -2.498499   -1.182465    0.893762
 C   -2.113581   -0.196288    2.009792
 C   -1.630422    1.169519    1.511580
 C   -2.570917    1.791100    0.475433
 C   -1.941361    3.020126   -0.138540
 O   -0.760594    3.176345   -0.354241
 O   -2.856760    3.945828   -0.485299
 C   -2.889461    0.791755   -0.656273
 C   -3.474421   -0.502985   -0.093079
 H   -3.292340   -3.565300   -0.047478
 H   -2.572207   -4.465474   -1.285041
 H    1.529924   -3.085517   -1.945401
 H    2.707089   -0.965965   -1.387016
 H    4.307827    0.406246    1.758229
 H    3.304397   -0.433605    2.955664
 H    1.255285    0.297560    1.924199
 H    2.268999    1.753364    1.802641
 H    1.076865    0.977253   -0.367216
 H    4.142826    1.181047   -0.543869
 H    1.871170    1.748874   -2.575369
 H    3.655941    2.030799   -2.840857
 H    3.672138    3.623395   -0.862279
 H    1.884382    3.312333   -0.620670
 H   -3.034042   -2.013829    1.376788
 H   -3.002882   -0.056899    2.639491
 H   -1.338874   -0.639646    2.644189
 H   -1.520974    1.850166    2.364128
 H   -0.647201    1.059954    1.055453
 H   -3.517554    2.090121    0.942126
 H   -2.366087    4.666741   -0.912381
 H   -1.965319    0.574791   -1.206762
 H   -3.592390    1.243614   -1.364535
 H   -3.724574   -1.187175   -0.910645
 H   -4.409860   -0.278340    0.437159
