50 
2xkc_ligand_xtb.xyz
 C   -6.094078    0.558730    1.260217
 C   -4.874836    0.141096    0.485140
 C   -3.754552    0.961170    0.522086
 C   -4.800523   -1.059101   -0.231753
 C   -5.927393   -2.026054   -0.372876
 O   -5.778918   -3.215477   -0.329467
 O   -7.147401   -1.497818   -0.607279
 C   -3.598901   -1.429681   -0.838322
 C   -2.498962   -0.604043   -0.795430
 C   -2.572023    0.618794   -0.126975
 C   -1.383920    1.477172   -0.076995
 N   -0.217168    0.858404   -0.034435
 C   -1.427190    2.893682   -0.096930
 N   -2.574928    3.615810   -0.263304
 N   -0.310835    3.595931    0.087632
 C    0.833292    2.949843    0.207075
 C    0.912394    1.560174    0.077175
 C    2.164431    0.804440    0.098279
 C    3.394580    1.403060   -0.108146
 C    2.111624   -0.568900    0.333715
 C    3.268955   -1.323208    0.373030
 O    3.280975   -2.664109    0.642402
 C    2.053315   -3.311843    0.872646
 C    4.525498   -0.720944    0.146850
 O    5.699516   -1.440595    0.207712
 C    5.776890   -2.646351   -0.527432
 C    4.574739    0.659332   -0.091434
 O    5.685598    1.415622   -0.308553
 C    6.963199    0.839241   -0.464620
 H   -5.791054    1.127635    2.136952
 H   -6.737760    1.208893    0.663057
 H   -6.673671   -0.297787    1.596530
 H   -3.793152    1.867561    1.108859
 H   -7.123848   -0.533669   -0.653966
 H   -3.558383   -2.380936   -1.346854
 H   -1.570580   -0.885016   -1.266338
 H   -3.341518    3.174703   -0.743286
 H   -2.426326    4.594909   -0.452302
 H    1.697058    3.564271    0.413361
 H    3.487509    2.456246   -0.314940
 H    1.144456   -1.010061    0.501084
 H    1.540245   -2.901992    1.747657
 H    1.394215   -3.247881    0.001459
 H    2.305352   -4.355067    1.058636
 H    5.307959   -3.475303    0.005239
 H    5.311354   -2.542175   -1.511771
 H    6.841997   -2.846245   -0.648768
 H    7.274570    0.293665    0.427516
 H    7.002482    0.172657   -1.329979
 H    7.632217    1.683937   -0.631733
