44 
2xke_ligand_xtb.xyz
 C   -2.892700    0.973315    1.007056
 C   -4.282474    0.610922    0.492196
 C   -4.395677   -0.902643    0.312249
 C   -5.728163   -1.280634   -0.317542
 O   -6.433048   -0.520247   -0.912531
 O   -6.066162   -2.577660   -0.189761
 C   -3.260278   -1.382278   -0.605416
 C   -1.909819   -0.949804   -0.040087
 N   -1.885709    0.493766    0.077426
 C   -0.635618    1.089038    0.082691
 N    0.423963    0.308154    0.137971
 C   -0.473665    2.494812   -0.074749
 N   -1.537805    3.347986   -0.271353
 N    0.729559    3.034667   -0.003957
 C    1.782354    2.234216    0.135768
 C    1.652422    0.852807    0.137685
 C    2.781260   -0.079956    0.174544
 C    4.060503    0.307913   -0.198874
 C    2.567410   -1.396117    0.590663
 C    3.617760   -2.286580    0.634009
 C    4.898196   -1.899325    0.267839
 C    5.121855   -0.593744   -0.153426
 O    6.330556   -0.096482   -0.545821
 C    7.443214   -0.955675   -0.541414
 H   -2.740259    0.506995    1.995232
 H   -2.797149    2.051422    1.128894
 H   -4.466141    1.091271   -0.469303
 H   -5.039780    0.962635    1.193648
 H   -4.303618   -1.395223    1.289077
 H   -5.414836   -3.086018    0.311103
 H   -3.394121   -0.936255   -1.592510
 H   -3.275541   -2.468841   -0.716578
 H   -1.101323   -1.247370   -0.708242
 H   -1.738297   -1.428711    0.936277
 H   -2.291473    2.978074   -0.830435
 H   -1.243254    4.279122   -0.530088
 H    2.734394    2.734431    0.229099
 H    4.266232    1.306225   -0.549631
 H    1.571145   -1.693865    0.874870
 H    3.449706   -3.303770    0.957515
 H    5.700803   -2.618427    0.311877
 H    7.663009   -1.326752    0.465238
 H    7.299337   -1.804494   -1.218280
 H    8.280854   -0.354968   -0.892633
