52 
2xkf_ligand_xtb.xyz
 C    1.989882   -3.487965    0.581777
 O    3.197372   -2.844773    0.261074
 C    3.194950   -1.476082    0.123521
 C    2.041881   -0.714207    0.244329
 C    2.057788    0.665297    0.075280
 C    0.805268    1.408193    0.207312
 C    0.723228    2.788865    0.333373
 N   -0.445979    3.422019    0.309746
 C   -1.555457    2.712522    0.246396
 N   -2.746501    3.419513    0.160699
 C   -1.496545    1.291506    0.300530
 N   -2.616972    0.492868    0.325575
 C   -2.384997   -0.937536    0.209870
 C   -3.720237   -1.683280    0.153638
 C   -4.782523   -0.792225   -0.487375
 C   -6.086441   -1.549717   -0.686719
 O   -6.340071   -2.603790   -0.184243
 O   -6.988442   -0.925042   -1.469004
 C   -5.045655    0.428548    0.421237
 C   -3.754250    0.805572    1.163696
 N   -0.326839    0.683537    0.224586
 C    3.261238    1.297193   -0.230204
 C    4.423601    0.556788   -0.341979
 O    5.650606    1.080557   -0.628715
 C    5.756184    2.467816   -0.820769
 C    4.414055   -0.842395   -0.158425
 O    5.634918   -1.427631   -0.317922
 C    5.880975   -2.727012    0.166265
 H    1.588401   -3.142023    1.539682
 H    1.236543   -3.347989   -0.199942
 H    2.238169   -4.546119    0.656800
 H    1.092810   -1.171386    0.462889
 H    1.587431    3.427341    0.433622
 H   -2.574809    4.403038   -0.002831
 H   -3.424051    3.023965   -0.474586
 H   -1.777483   -1.303258    1.048694
 H   -1.808947   -1.093765   -0.705254
 H   -4.058397   -1.966170    1.150642
 H   -3.609032   -2.602148   -0.421563
 H   -4.411851   -0.452136   -1.461714
 H   -6.662818   -0.086340   -1.819522
 H   -5.820401    0.188269    1.151595
 H   -5.398423    1.273506   -0.174598
 H   -3.750569    1.863104    1.422590
 H   -3.686408    0.232913    2.098925
 H    3.280261    2.361299   -0.389649
 H    5.157261    2.806627   -1.673075
 H    5.459597    3.024981    0.074704
 H    6.809112    2.654726   -1.026455
 H    5.592458   -2.828365    1.215343
 H    5.364039   -3.487301   -0.422958
 H    6.958415   -2.864178    0.072387
