34 
2xln_ligand_xtb.xyz
 O    0.437156   -1.388647   -1.137981
 C    0.215494   -0.629923   -0.202749
 N    1.118498   -0.336150    0.739485
 C    2.480481   -0.879871    0.766962
 B    3.355845   -0.393458   -0.516516
 O    4.535195    0.229603   -0.293201
 O    2.946206   -0.624731   -1.774745
 C    3.106133   -0.541345    2.114750
 C   -1.110916    0.045481   -0.023744
 C   -2.276969   -0.727688    0.034042
 O   -2.095126   -2.068669    0.061822
 C   -3.223810   -2.907401    0.027072
 C   -3.516722   -0.095557    0.095926
 C   -3.580497    1.284367    0.095969
 C   -2.437028    2.060392    0.051409
 C   -1.192810    1.441681   -0.003827
 O   -0.002807    2.110149   -0.043511
 C   -0.019451    3.511188   -0.177891
 H    0.913658    0.394958    1.400700
 H    2.368999   -1.971798    0.694437
 H    5.000035    0.463457   -1.098194
 H    2.073024   -1.050212   -1.829044
 H    2.493766   -0.914182    2.934425
 H    3.222389    0.535155    2.214115
 H    4.092241   -0.990673    2.178001
 H   -3.841748   -2.788891    0.923891
 H   -3.833711   -2.725737   -0.863155
 H   -2.831380   -3.922266   -0.007583
 H   -4.429131   -0.667055    0.139600
 H   -4.544642    1.768863    0.136326
 H   -2.524884    3.134246    0.057498
 H    1.024849    3.806844   -0.265101
 H   -0.560349    3.822631   -1.076252
 H   -0.460245    3.995412    0.699930
