34 
2xln_ligand_dft.xyz
 O    0.217408   -1.218692   -1.673810
 C    0.109730   -0.722806   -0.565992
 N    1.095823   -0.756235    0.374018
 C    2.459485   -1.186717    0.073218
 B    3.430045    0.092390   -0.054392
 O    2.919815    1.330880   -0.270675
 O    4.790316   -0.002456    0.040945
 C    2.921013   -2.262427    1.063428
 C   -1.125945    0.027090   -0.131189
 C   -2.343423   -0.645401    0.028646
 O   -2.285915   -1.987688   -0.110942
 C   -3.486795   -2.722460   -0.032319
 C   -3.507614    0.063399    0.338680
 C   -3.439062    1.443903    0.479899
 C   -2.244139    2.136442    0.329586
 C   -1.088292    1.416197    0.023802
 O    0.134792    1.998681   -0.144522
 C    0.244573    3.407562   -0.054177
 H    0.931280   -0.257417    1.236416
 H    2.383965   -1.643596   -0.921500
 H    1.952177    1.311182   -0.335971
 H    5.083702   -0.903138    0.203563
 H    2.204790   -3.088726    1.096046
 H    3.027013   -1.861259    2.078438
 H    3.891289   -2.681644    0.770270
 H   -3.947316   -2.636547    0.960220
 H   -4.204506   -2.398574   -0.795884
 H   -3.212562   -3.761785   -0.213883
 H   -4.455543   -0.443708    0.468635
 H   -4.343560    1.995953    0.716883
 H   -2.224990    3.212868    0.445213
 H    1.297718    3.629077   -0.227920
 H   -0.368499    3.899866   -0.817174
 H   -0.044471    3.764661    0.941027
