15 
2xml_ligand_dft.xyz
 C    2.243487   -0.071164    0.228166
 C    0.814367   -0.196484   -0.334375
 C   -1.357431    0.915844   -0.609241
 C   -2.341284    0.028701    0.172682
 O    2.793705   -0.981746    0.768501
 O    2.809708    1.143745    0.088437
 O    0.461882   -1.185118   -0.956127
 O   -3.293842    0.489921    0.742635
 N    0.012345    0.877206   -0.107649
 O   -2.076875   -1.278546    0.161528
 H   -1.718603    1.941686   -0.550765
 H   -1.338774    0.604146   -1.658585
 H    2.278242    1.701726   -0.497867
 H    0.253446    1.513368    0.641084
 H   -1.272197   -1.468799   -0.363505
