33 
2xn3_ligand_xtb.xyz
 O   -3.756173   -1.204231    1.539237
 C   -2.994722   -1.197323    0.612847
 O   -2.626312   -2.370404    0.024894
 C   -2.413969    0.025376    0.010645
 C   -3.264517    1.114023   -0.170504
 C   -2.823142    2.267658   -0.782982
 C   -1.507315    2.340424   -1.221749
 C   -0.638640    1.291884   -1.015881
 C   -1.060643    0.122001   -0.372025
 N   -0.173317   -0.900531   -0.147270
 C    1.236056   -0.746365   -0.221388
 C    1.921783    0.173479    0.576529
 C    1.199763    1.014845    1.584998
 C    1.921443   -1.567705   -1.108367
 C    3.292320   -1.461726   -1.231720
 C    3.974600   -0.525162   -0.476810
 C    3.307170    0.291746    0.424931
 C    4.076409    1.287832    1.238539
 H   -2.150817   -2.224018   -0.803908
 H   -4.285336    1.018754    0.167276
 H   -3.494419    3.099070   -0.928066
 H   -1.154632    3.229517   -1.723352
 H    0.384840    1.356387   -1.352612
 H   -0.492217   -1.691150    0.394290
 H    1.085474    2.037246    1.223295
 H    0.208127    0.622962    1.794605
 H    1.758812    1.049643    2.517626
 H    1.367139   -2.280787   -1.700286
 H    3.825818   -2.098282   -1.921084
 H    5.045217   -0.429529   -0.584462
 H    3.642551    2.281904    1.144367
 H    4.060130    1.015806    2.294025
 H    5.112836    1.327341    0.913748
