72 
2xn6_ligand_xtb.xyz
 O   -1.581756    5.007459    3.691657
 C   -1.243855    4.384994    2.724871
 C   -2.012340    3.365462    1.965637
 C   -3.275955    2.839479    2.170866
 C   -3.725558    1.869096    1.291870
 O   -0.043440    4.521500    2.134477
 C    0.110973    3.645696    0.986496
 C    0.397002    4.478846   -0.236346
 C   -0.563648    5.358850   -0.725106
 C   -0.317366    6.146184   -1.826269
 C    0.916650    6.064532   -2.472683
 O    1.126205    6.846617   -3.556123
 C    1.884018    5.195719   -1.995237
 C    1.629098    4.407957   -0.877341
 O    2.636346    3.583333   -0.486272
 C    2.420647    2.723101    0.538547
 C    3.460327    1.850279    0.839012
 C    3.320569    0.927211    1.863222
 O    4.358955    0.090646    2.115754
 C    2.133144    0.870172    2.587942
 C    1.110440    1.744771    2.289408
 C    1.233363    2.674962    1.265765
 C   -1.214563    2.937985    0.911392
 C   -1.660948    1.983785    0.027026
 C   -2.932456    1.445678    0.222286
 C   -3.333893    0.337392   -0.689351
 O   -2.502909   -0.343433   -1.266927
 C   -3.977283   -2.542975   -0.048733
 C   -3.030323   -3.258385   -0.768273
 C   -1.720874   -3.313524   -0.335059
 C   -1.316348   -2.631486    0.808305
 C   -2.287339   -1.966339    1.546310
 C   -3.605330   -1.930639    1.140905
 C   -5.327971   -2.272085   -0.636670
 C   -5.193112   -1.009382   -1.537757
 C   -6.565616   -0.634285   -2.066404
 C    0.940502   -2.040178    0.512184
 C    0.664378   -1.056377   -0.429228
 C    1.711750   -0.483173   -1.118395
 C    3.038519   -0.853439   -0.905918
 C    3.276625   -1.848476    0.038744
 C    2.249927   -2.434484    0.749997
 N   -4.662154    0.102302   -0.794035
 O   -0.032391   -2.644940    1.271715
 O    3.993706   -0.243896   -1.621609
 O   -7.186736    0.321359   -1.687430
 O   -7.012430   -1.504447   -2.964037
 I   -0.313439   -4.439923   -1.426599
 I    1.355321    0.991327   -2.571350
 I   -1.661603   -0.941845    3.272189
 I    5.264762   -2.490499    0.367651
 H   -3.877033    3.172437    3.001959
 H   -4.694876    1.423864    1.460253
 H   -1.517119    5.425848   -0.222339
 H   -1.059427    6.829148   -2.204676
 H    2.008066    6.686643   -3.914685
 H    2.847575    5.108199   -2.474598
 H    4.376321    1.905776    0.274692
 H    4.177923   -0.439238    2.902302
 H    2.015014    0.152880    3.387451
 H    0.200332    1.713200    2.869518
 H   -1.059756    1.649398   -0.803381
 H   -3.311341   -3.753043   -1.685015
 H   -4.332342   -1.391640    1.728700
 H   -6.059102   -2.073668    0.148853
 H   -5.672762   -3.102737   -1.251403
 H   -4.514654   -1.241693   -2.366400
 H   -0.354317   -0.761845   -0.637936
 H    2.441920   -3.207822    1.475860
 H   -5.343478    0.759533   -0.441645
 H    4.871571   -0.557564   -1.351830
 H   -7.897952   -1.259065   -3.279381
