48 
2xne_ligand_dft.xyz
 C   -1.589862    3.019114   -0.648187
 C   -1.596101    4.405583   -0.697471
 C   -2.689107    5.086924   -0.169097
 C   -3.707638    3.145824    0.446646
 C   -1.440737   -1.050565    0.053285
 C    1.448017   -0.004213    0.306303
 C    3.797226   -0.622580    0.065661
 C    7.052483    0.847089    1.039323
Cl   -6.473086   -1.786027   -0.042397
 C   -4.800965   -2.153667    0.011650
 C   -4.132766   -3.357088    0.065507
 N   -2.788741   -3.156848    0.094488
 C   -2.641925   -1.842930    0.059893
 N   -3.839676   -1.176579    0.009393
 C   -3.898744    0.206045   -0.044501
 C   -2.714119    0.877786   -0.023449
 C   -2.678136    2.357515   -0.076217
 N   -3.729526    4.476988    0.401863
 N   -1.488823    0.259505    0.017433
 N   -0.288131   -1.760694    0.087611
 C    1.051338   -1.323170    0.077390
 C    2.794818    0.335199    0.289741
 N    5.137862   -0.279061    0.060238
 C    5.601393    0.986056    0.595095
 O    7.924642    0.465181   -0.006607
 C    7.311379   -0.300164   -1.024696
 C    6.144561   -1.143803   -0.524770
 C    3.383541   -1.949299   -0.149171
 C    2.039311   -2.283860   -0.150829
 H   -0.762588    2.440308   -1.046036
 H   -0.770849    4.953165   -1.140787
 H   -2.729812    6.173595   -0.197943
 H   -4.551715    2.678442    0.951236
 H    0.700552    0.757018    0.481878
 H    7.101422    0.111017    1.855980
 H    7.416564    1.804136    1.424764
 H   -4.572186   -4.344053    0.084599
 H   -4.877987    0.654734   -0.128178
 H   -0.432971   -2.762770    0.086919
 H    3.059856    1.376605    0.436936
 H    5.506109    1.808007   -0.133161
 H    5.003036    1.254680    1.473475
 H    8.085782   -0.948531   -1.445288
 H    6.949615    0.360949   -1.826915
 H    5.719516   -1.675120   -1.384425
 H    6.506208   -1.902890    0.187421
 H    4.115187   -2.736522   -0.294197
 H    1.755035   -3.319709   -0.322479
