66 
2xnm_ligand_xtb.xyz
 C   -5.420940    2.325069   -0.916775
 C   -4.296024    1.331911   -0.622764
 O   -3.121366    2.120802   -0.429477
 C   -1.921202    1.500175   -0.397858
 C   -1.685366    0.104798   -0.396030
 C   -0.351734   -0.203983   -0.366558
 N    0.199324   -1.466086   -0.413075
 C   -0.431089   -2.624805   -0.831622
 N    0.343163   -3.652924   -0.870700
 C    1.578923   -3.211072   -0.468397
 C    2.788932   -3.884535   -0.349548
 C    3.892398   -3.164507    0.049518
 C    3.805426   -1.798847    0.357395
 O    4.999653   -1.209680    0.725189
 C    5.012399    0.139768    1.135616
 C    4.974888    1.099514   -0.067648
 C    6.182854    0.850104   -0.958015
 N    7.443669    1.060608   -0.200591
 C    8.626483    0.939529   -1.066729
 C    7.508375    0.127760    0.953034
 C    6.330281    0.352111    1.890784
 C    2.607306   -1.113610    0.269092
 C    1.506774   -1.832355   -0.170544
 S    0.639099    1.218194   -0.338397
 C   -0.756281    2.237335   -0.361596
 C   -0.460449    3.671315   -0.331134
 N   -1.530886    4.491349   -0.355695
 O    0.694729    4.059882   -0.278362
 C   -4.630879    0.525603    0.614962
 C   -4.368272    1.083648    1.860249
 C   -4.688910    0.414785    3.027034
 C   -5.289867   -0.830580    2.968052
 C   -5.560732   -1.404689    1.739620
 C   -5.234127   -0.733872    0.566905
 C   -5.512969   -1.409964   -0.748196
 F   -6.165770   -2.565144   -0.619327
 F   -4.365974   -1.704723   -1.409286
 F   -6.236437   -0.656250   -1.593163
 H   -5.155181    2.932257   -1.777995
 H   -5.574800    2.973113   -0.057750
 H   -6.341507    1.792648   -1.132093
 H   -4.140550    0.685911   -1.494749
 H   -2.457473   -0.639043   -0.404230
 H   -1.465880   -2.640891   -1.110096
 H    2.853052   -4.936283   -0.571339
 H    4.854177   -3.642161    0.146981
 H    4.172473    0.349414    1.808521
 H    4.073643    0.932478   -0.656587
 H    4.950251    2.130364    0.288319
 H    6.169299    1.519003   -1.819948
 H    6.168579   -0.184901   -1.307238
 H    7.410810    2.014137    0.180052
 H    8.674411   -0.066467   -1.480174
 H    9.534875    1.129002   -0.497695
 H    8.570202    1.653601   -1.886423
 H    7.467572   -0.892981    0.568380
 H    8.452915    0.277051    1.478820
 H    6.395694   -0.366714    2.706833
 H    6.351677    1.356055    2.316857
 H    2.509853   -0.077155    0.537744
 H   -1.379031    5.485592   -0.366059
 H   -2.463048    4.123969   -0.436079
 H   -3.901352    2.056261    1.904437
 H   -4.474387    0.869839    3.981640
 H   -5.548768   -1.356770    3.872916
 H   -6.027662   -2.375671    1.685847
