69 
2xnp_ligand_xtb.xyz
 C   -6.382902   -0.577448   -0.347096
 C   -4.864259   -0.385504   -0.312194
 O   -4.659578    1.001982   -0.068523
 C   -3.425610    1.558128   -0.190495
 C   -2.289418    0.817166   -0.496109
 C   -1.053210    1.434784   -0.647564
 N    1.263020   -0.867506   -2.103590
 C    0.083015   -0.376947   -1.889629
 N    0.061900    0.658869   -0.995291
 C    1.369559    0.833875   -0.598195
 C    1.991941    1.663948    0.322512
 C    3.357364    1.545655    0.460884
 C    4.098085    0.616867   -0.284704
 O    5.462798    0.640939   -0.031898
 C    6.338786    0.007435   -0.934047
 C    6.632648   -1.435819   -0.486413
 C    7.257018   -1.414256    0.901567
 N    8.520284   -0.632122    0.896286
 C    9.203013   -0.690764    2.198062
 C    8.255382    0.768218    0.477665
 C    7.651769    0.802188   -0.919031
 C    3.486826   -0.252124   -1.164571
 C    2.108205   -0.138069   -1.313649
 C   -0.933665    2.808512   -0.481417
 C   -2.053250    3.533796   -0.132892
 C   -3.303685    2.944922    0.017564
 C   -4.402423    3.884550    0.421610
 N   -5.670718    3.464956    0.244586
 O   -4.143117    4.984372    0.868276
 C   -4.271600   -1.236040    0.792273
 C   -4.290722   -0.737024    2.089366
 C   -3.810630   -1.481948    3.150140
 C   -3.305278   -2.751881    2.931216
 C   -3.275542   -3.267460    1.648736
 C   -3.754300   -2.516577    0.581369
 C   -3.682219   -3.105738   -0.801119
 F   -2.870182   -2.389327   -1.615287
 F   -3.203045   -4.351661   -0.818066
 F   -4.872976   -3.149253   -1.422525
 H   -6.812239    0.041844   -1.130233
 H   -6.811402   -0.290561    0.609799
 H   -6.624886   -1.615673   -0.549626
 H   -4.445389   -0.641991   -1.292618
 H   -2.344180   -0.251207   -0.613945
 H   -0.803742   -0.729364   -2.378812
 H    1.440244    2.374276    0.916893
 H    3.890748    2.178698    1.151725
 H    5.921927    0.011209   -1.947590
 H    7.290181   -1.921910   -1.208881
 H    5.703843   -2.003675   -0.436679
 H    7.467810   -2.427412    1.248017
 H    6.565204   -0.932793    1.596477
 H    9.132506   -1.050170    0.185313
 H   10.138101   -0.134711    2.161038
 H    8.565059   -0.254000    2.964494
 H    9.419002   -1.723201    2.467062
 H    9.189348    1.331753    0.509884
 H    7.544848    1.205381    1.181624
 H    8.341892    0.392279   -1.657905
 H    7.445961    1.838923   -1.183172
 H    4.010408   -1.000898   -1.735026
 H    0.011679    3.300250   -0.642287
 H   -1.990714    4.599352    0.028914
 H   -6.412049    4.090574    0.513563
 H   -5.886414    2.541581   -0.085536
 H   -4.687111    0.252837    2.258127
 H   -3.837809   -1.072099    4.147946
 H   -2.935981   -3.343250    3.754020
 H   -2.882640   -4.256244    1.470513
