21 
2xo8_ligand_xtb.xyz
 C    3.744533   -0.495226    0.575624
 C    1.589085    0.438478    0.057247
 C    0.135482    0.366563    0.071023
 C    2.227943    1.533396   -0.520295
 C    3.608643    1.600879   -0.549987
 C    2.351489   -0.588744    0.635884
 O    1.732253   -1.601689    1.257964
 C    4.380701    0.582210   -0.010185
 C   -1.954198    1.124064    0.288573
 C   -2.049338   -0.202520   -0.061639
 C   -0.726235   -0.681295   -0.195315
 N   -0.638794    1.460455    0.352667
Br   -0.289818   -2.405149   -0.768421
Br   -3.623792   -1.184089   -0.313755
Cl    4.383961    2.960400   -1.274032
Br   -3.301296    2.371093    0.637763
Cl    4.679558   -1.778822    1.280450
 H    1.643787    2.318832   -0.973117
 H    2.392815   -2.244896    1.563775
 H    5.456677    0.631592   -0.042887
 H   -0.286444    2.366238    0.619619
