66 
2xog_ligand_dft.xyz
 N    5.203340    1.768942    1.249973
 C    2.625091   -2.247696   -0.740020
 C   -3.097953    2.205175   -0.209204
 N   -1.830505    2.847994   -0.587268
 C   -3.681033   -1.437620    0.609020
 O   -3.479156   -3.854878   -0.383967
 C    5.293204    0.461903    1.497608
 C    2.603557   -2.773510    0.706594
 O    3.833939   -3.242496    1.163441
 C   -3.334299    0.768490   -0.709124
 O   -4.679123    0.698319   -1.122207
 C   -0.636308    2.146872   -0.730066
 O   -0.556882    0.922130   -0.709338
 O   -3.729481   -1.898159   -1.987440
 N    4.625722   -0.544367    0.928128
 C    1.614843   -3.931561    0.566567
 O    2.268569   -5.055646    0.031439
 C   -3.067184   -0.052528    0.563692
 N    0.468849    2.927140   -0.930306
 N   -1.533312   -2.368628   -0.942836
 C    3.801038   -0.102102   -0.034223
 C    0.622900   -3.413699   -0.477660
 O    1.324259   -2.420385   -1.244031
 C   -3.575321    0.885133    1.655184
 O   -3.190804    2.187262    1.193225
 C    0.578394    4.311475   -0.855850
 O    1.671516    4.852031   -0.941616
 C    3.640946    1.216529   -0.433442
 C   -0.630349   -2.769678    0.120758
 O   -0.311704   -1.712289    0.995625
 C   -2.943903    0.694183    3.022154
 O   -3.393140    1.658154    3.942641
 C   -0.699625    4.975358   -0.674367
 C    4.356184    2.191971    0.292677
 N    4.221946    3.507651    0.069486
 C   -1.812198    4.231172   -0.549149
 N    2.715484    1.308127   -1.451756
 C    2.321766    0.076396   -1.647867
 N    2.929030   -0.825736   -0.818417
 S   -3.179510   -2.489209   -0.768389
 H    3.350775   -2.812279   -1.336152
 H   -3.885000    2.837491   -0.630950
 H   -4.773848   -1.412949    0.549095
 H   -3.391825   -1.970859    1.518294
 H    5.996472    0.179882    2.276649
 H    2.177977   -2.003462    1.361527
 H    4.399605   -2.448982    1.271756
 H   -2.660778    0.507672   -1.525512
 H   -4.749216   -0.117937   -1.643545
 H    1.125710   -4.163603    1.522112
 H    3.142993   -5.079606    0.450070
 H   -1.989272   -0.146804    0.685540
 H    1.334521    2.408542   -1.158016
 H   -1.240590   -1.571544   -1.500307
 H    0.322630   -4.225321   -1.144889
 H   -4.669952    0.848169    1.740177
 H   -1.146023   -3.527226    0.717062
 H    0.043790   -0.982449    0.460319
 H   -3.224965   -0.282635    3.427719
 H   -1.848369    0.711592    2.909042
 H   -3.194584    2.520754    3.555965
 H   -0.732498    6.055196   -0.635055
 H    3.454019    3.881411   -0.484388
 H    4.701299    4.132559    0.699491
 H   -2.784824    4.685440   -0.398385
 H    1.567792   -0.233486   -2.354288
