25 
2xow_ligand_xtb.xyz
 O   -0.193046    3.007952   -0.147817
 C    0.136153    1.911839   -0.533518
 C   -0.677637    0.698867   -0.381055
 C   -1.963393    0.864827    0.130765
 C   -2.815855   -0.215335    0.331478
 N   -4.103931   -0.028402    0.770666
 C   -2.342103   -1.490404    0.008869
 C   -1.070641   -1.659651   -0.499618
 C   -0.217925   -0.584271   -0.717289
 C    1.172716   -0.852157   -1.233416
 C    2.123326   -0.842963   -0.048812
 O    2.174217   -1.695164    0.795996
 O    2.889470    0.251720   -0.059476
 C    3.788493    0.427392    1.028181
 H    1.109194    1.771480   -1.034627
 H   -2.284291    1.867469    0.373888
 H   -4.309903    0.851024    1.214389
 H   -4.578249   -0.827656    1.156515
 H   -2.980646   -2.348217    0.162630
 H   -0.727521   -2.657293   -0.729892
 H    1.493835   -0.110792   -1.962829
 H    1.202731   -1.845688   -1.682178
 H    3.273647    0.920043    1.855123
 H    4.165024   -0.540361    1.364169
 H    4.599759    1.053885    0.665004
