26 
2xp3_ligand_xtb.xyz
 C   -3.409095    2.359673   -0.041951
 O   -2.202203    1.632466   -0.015832
 C   -2.249817    0.275813   -0.002606
 C   -3.433875   -0.453057   -0.005027
 C   -3.417642   -1.836852    0.005420
 C   -2.215309   -2.520586    0.018268
 C   -1.032758   -1.809702    0.022022
 C   -1.018116   -0.414134    0.012383
 C    0.255843    0.277456    0.017242
 O    1.380809   -0.473636   -0.005342
 C    0.596411    1.613582    0.044435
 C    1.998407    1.674956    0.038348
 C    2.443101    0.375617    0.007140
 C    3.802780   -0.170515   -0.013762
 O    4.792072    0.511565    0.000908
 O    3.868437   -1.516315   -0.051398
 H   -3.994924    2.136208   -0.938688
 H   -4.014196    2.168108    0.849412
 H   -3.116859    3.408605   -0.057596
 H   -4.384706    0.054986   -0.015240
 H   -4.352220   -2.376944    0.003411
 H   -2.199332   -3.599207    0.025854
 H   -0.090785   -2.335705    0.033559
 H   -0.081319    2.438784    0.066984
 H    2.618521    2.547017    0.054125
 H    2.983323   -1.908003   -0.059977
