25 
2xp6_ligand_xtb.xyz
 O    3.166795   -2.497293    0.535627
 C    3.346715   -1.422951    0.042944
 O    4.543656   -1.115710   -0.520367
 C    2.347180   -0.337017    0.007622
 C    2.540645    1.035934    0.030078
 N    1.286621    1.569866    0.037071
 C    0.387554    0.535808    0.017039
 N    1.015180   -0.611865    0.005931
 C   -1.052998    0.691307    0.009758
 C   -1.835561   -0.463769   -0.024937
 C   -3.212580   -0.355862   -0.029079
 C   -3.834755    0.884750    0.002455
 C   -3.054449    2.026910    0.037661
 C   -1.674389    1.939575    0.040615
Cl   -4.177640   -1.786479   -0.073746
 C    3.757147    1.889859    0.086698
 H    4.534231   -0.257375   -0.960622
 H   -1.341954   -1.421616   -0.045577
 H   -4.910885    0.951113    0.000228
 H   -3.530212    2.995705    0.063679
 H   -1.092079    2.848769    0.069163
 H    4.567128    1.374480    0.598391
 H    4.093370    2.166601   -0.915171
 H    3.541594    2.809118    0.629366
 H    1.075418    2.554106    0.066003
