25 
2xp6_ligand_dft.xyz
 O  -37.780632   28.445301   27.624172
 C  -38.034025   28.101710   26.496204
 O  -39.165072   28.498042   25.857340
 C  -37.207269   27.233385   25.647580
 C  -37.456012   26.814041   24.354278
 N  -36.378007   26.032973   24.045123
 C  -35.535255   26.003900   25.130036
 N  -36.020210   26.724597   26.109073
 C  -34.269510   25.262074   25.174596
 C  -33.557274   25.258303   26.378401
 C  -32.358573   24.567449   26.456215
 C  -31.842930   23.873861   25.364744
 C  -32.555594   23.883869   24.171614
 C  -33.759592   24.572180   24.072036
Cl  -31.472104   24.564924   27.962115
 C  -38.571239   27.055736   23.391956
 H  -39.635633   29.059410   26.493344
 H  -36.250567   25.551975   23.168266
 H  -39.519077   26.690050   23.795555
 H  -38.694054   28.124872   23.201675
 H  -38.382094   26.552153   22.439003
 H  -33.954252   25.797004   27.231440
 H  -34.286191   24.567000   23.121758
 H  -30.903128   23.340299   25.451247
 H  -32.165705   23.350890   23.310229
