37 
2xp8_ligand_xtb.xyz
 C    4.049981    0.145553    0.059240
 C    5.203288   -0.615942    0.045682
 C   -2.202274   -2.764360   -0.451310
 C    5.128427   -1.998261   -0.007529
 C    3.891115   -2.621920   -0.044904
 C    2.734232   -1.868599   -0.030635
 C    2.801548   -0.475382    0.020031
 C    1.570256    0.288964    0.031489
 N    0.367143   -0.236852    0.144316
 N    1.482862    1.635446   -0.075326
 C    0.166934    1.986564   -0.037742
 C   -0.131733    3.441233   -0.142212
 O    0.801227    4.212356   -0.198932
 O   -1.385123    3.816860   -0.171895
 C   -0.528304    0.784882    0.109910
 C   -1.990088    0.636515    0.188376
 O   -2.716147    1.627113    0.007172
 N   -2.550317   -0.547427    0.470220
 C   -1.893086   -1.807424    0.712808
 C   -4.000822   -0.647205    0.427423
 C   -4.399145   -2.052714   -0.051635
 O   -3.482906   -2.530576   -1.004014
 H    4.126868    1.221661    0.109208
 H    6.166125   -0.128029    0.077539
 H   -2.127936   -3.804630   -0.099560
 H   -1.494615   -2.614818   -1.270190
 H    6.032951   -2.587494   -0.019034
 H    3.830380   -3.699155   -0.086787
 H    1.763715   -2.338206   -0.062937
 H   -2.019763    3.028664   -0.124590
 H   -0.819183   -1.653401    0.797441
 H   -2.282955   -2.213154    1.653260
 H   -4.362691    0.117027   -0.264245
 H   -4.422839   -0.443523    1.418455
 H   -5.367586   -2.017348   -0.552586
 H   -4.470364   -2.749876    0.796331
 H    2.211705    2.326669   -0.179371
