36 
2xpa_ligand_dft.xyz
 C   38.502487  -17.928173   10.345351
 C   38.076312  -19.251152   10.323110
 C   38.004931  -19.981133   11.506133
 C   38.364746  -19.383605   12.712199
 C   38.787906  -18.061408   12.739555
 C   38.855667  -17.322195   11.554492
 C   39.301552  -15.926329   11.624077
 N   39.885460  -15.371372   12.675662
 N   39.164282  -15.029767   10.616006
 C   39.697632  -13.834330   11.043478
 C   39.700507  -12.628739   10.225890
 O   39.095324  -12.842508    9.033138
 O   40.175178  -11.561896   10.539582
 C   40.139572  -14.082123   12.329116
 C   40.690893  -13.128331   13.345322
 O   40.073419  -12.956117   14.394339
 N   41.847804  -12.486403   13.062217
 C   42.741838  -12.796075   11.959433
 C   42.297277  -11.453041   13.986499
 C   43.175370  -12.055741   15.090010
 O   44.392426  -11.978630   15.061598
 N   42.468523  -12.686057   16.062625
 H   38.576556  -17.383048    9.407724
 H   37.806740  -19.713731    9.378755
 H   37.673197  -21.014714   11.487494
 H   38.312969  -19.949899   13.636898
 H   39.069590  -17.581311   13.670625
 H   38.696895  -15.160715    9.731640
 H   39.132276  -12.000281    8.552927
 H   42.690624  -12.014681   11.194449
 H   43.763595  -12.865945   12.344367
 H   42.473771  -13.753444   11.512351
 H   42.897219  -10.728567   13.433219
 H   41.418665  -10.959815   14.407996
 H   41.482538  -12.873056   15.911281
 H   42.982257  -13.238667   16.732442
