42 
2xpb_ligand_xtb.xyz
 C    2.976387   -1.371941    0.106342
 C    4.084193   -2.191933    0.013271
Cl    3.912837   -3.885049    0.309215
 C    5.330431   -1.677078   -0.313815
 C    5.455951   -0.318492   -0.548771
 C    4.359327    0.518938   -0.460325
 C    3.108612   -0.003422   -0.131458
 C    1.927429    0.830092   -0.026083
 N    0.731887    0.382612    0.298912
 N    1.886094    2.166870   -0.244296
 C    0.606030    2.591765   -0.056741
 C    0.351252    4.045633   -0.249417
 O    1.293230    4.760385   -0.513542
 O   -0.877391    4.479295   -0.127382
 C   -0.111357    1.445242    0.293601
 C   -1.551792    1.373601    0.580912
 O   -2.258717    2.382292    0.414443
 N   -2.088139    0.228897    1.021072
 C   -1.360265   -0.995151    1.256470
 C   -3.527088    0.156636    1.212047
 C   -4.151759   -0.843696    0.274185
 C   -3.911964   -0.752123   -1.091741
 C   -4.470003   -1.668395   -1.963636
 C   -5.278470   -2.684001   -1.479856
 C   -5.525120   -2.778662   -0.121553
 C   -4.959848   -1.865250    0.751997
 H    2.006453   -1.767620    0.358994
 H    6.185307   -2.330621   -0.382521
 H    6.422132    0.089342   -0.803618
 H    4.483602    1.574602   -0.646814
 H   -1.528181    3.729872    0.079820
 H   -1.032176   -1.444176    0.318088
 H   -0.480064   -0.805610    1.868234
 H   -2.018800   -1.692189    1.770427
 H   -3.928816    1.155726    1.018984
 H   -3.736939   -0.111824    2.252582
 H   -3.287414    0.045198   -1.468279
 H   -4.276919   -1.589160   -3.023226
 H   -5.715891   -3.398812   -2.160727
 H   -6.156015   -3.567338    0.260856
 H   -5.154910   -1.944038    1.812454
 H    2.622861    2.807470   -0.502443
