52 
2xpk_ligand_dft.xyz
 C   -5.803694   -0.934392    0.676663
 C   -4.543428   -0.967743   -0.180865
 C   -3.574538    0.141892    0.207397
 O   -3.982639    1.188017    0.713827
 N   -2.283186   -0.100738   -0.092903
 C   -1.207008    2.202723   -0.180805
 O   -2.004247    2.992067    0.659210
 C    0.186386    2.827794   -0.074572
 O    0.120268    4.198751   -0.374499
 C    1.196796    2.213048   -1.037094
 C    2.628789    2.628645   -0.673717
 O    3.023159    2.164978    0.591550
 N    1.055799    0.759467   -0.991731
 C    1.901036   -0.180939   -1.539526
 C    0.045311    0.069143   -0.407855
 N    0.184186   -1.231856   -0.549695
 C    1.350274   -1.401451   -1.257385
 C    1.945809   -2.752187   -1.486144
 C    2.557317   -3.319767   -0.182949
 C    3.543687   -2.354024    0.427239
 C    3.161198   -1.511182    1.473613
 C    4.035891   -0.548783    1.972688
 C    5.306788   -0.405185    1.418706
 C   -1.131690    0.730043    0.255726
 C    5.701041   -1.244077    0.379542
 C    4.825864   -2.211091   -0.107173
 S   -7.087217   -2.103957    0.118961
 H   -5.568757   -1.116513    1.728172
 H   -6.260423    0.055414    0.618938
 H   -4.054112   -1.946235   -0.111984
 H   -4.812191   -0.822337   -1.234100
 H   -2.020815   -1.022156   -0.424816
 H   -1.550186    2.247245   -1.228369
 H   -2.864132    2.532489    0.761077
 H    0.549193    2.667632    0.953319
 H   -0.650707    4.527044    0.112362
 H    0.965720    2.564145   -2.050168
 H    3.325453    2.304010   -1.460954
 H    2.652663    3.720298   -0.638424
 H    3.162277    1.207863    0.543527
 H    2.810396    0.088742   -2.054408
 H    2.726622   -2.679145   -2.251705
 H    1.183747   -3.445554   -1.858226
 H    1.746368   -3.519253    0.525167
 H    3.042562   -4.277654   -0.403474
 H    2.160819   -1.602015    1.889217
 H    3.720986    0.101280    2.784064
 H    5.983944    0.354041    1.797401
 H   -1.001257    0.727509    1.347659
 H    6.692093   -1.144498   -0.053692
 H    5.139563   -2.861294   -0.921290
 H   -6.389226   -3.231152    0.346015
