110 
2xqq_ligand_dft.xyz
 C    0.300906   -2.673283    1.480944
 C   -0.128521   -4.040749    1.016773
 O   -0.526573   -1.850561    1.932689
 N    1.598723   -2.376000    1.376490
 C    2.134174   -1.137983    1.919400
 C    3.344407   -0.666160    1.108247
 O    4.425963   -0.398325    1.663607
 C    2.481939   -1.264303    3.407283
 O    3.594622   -2.097095    3.651902
 N    3.164406   -0.541155   -0.211181
 C    4.234181   -0.184506   -1.137896
 C    4.386005    1.350455   -1.209065
 O    4.149739    1.993824   -2.218960
 C    3.941734   -0.752744   -2.527349
 C    3.653058   -2.254888   -2.586374
 C    4.832030   -3.191822   -2.299739
 N    5.311360   -3.140156   -0.928809
 C    4.576752   -3.606368    0.137282
 N    5.188442   -3.383311    1.353172
 N    3.419076   -4.180206    0.090368
 N    4.774133    1.924037   -0.037462
 C    4.820912    3.360418    0.106536
 C    3.464842    4.055103    0.278648
 O    3.390950    5.273928    0.321617
 N    2.397267    3.232057    0.377160
 C    1.038863    3.703066    0.397009
 C    0.162940    2.511301    0.778736
 O    0.633064    1.362756    0.764697
 C    0.626460    4.285501   -0.989243
 O   -0.641161    4.913483   -0.917975
 C    0.545259    3.220033   -2.067542
 N   -1.107937    2.781970    1.075397
 C   -2.117337    1.761371    1.371935
 C   -2.431265    0.992997    0.075674
 O   -3.213068    1.398026   -0.786327
 C   -3.337138    2.402826    2.051854
 C   -4.259831    3.298237    1.201874
 C   -3.478057    4.367629    0.457590
 O   -2.801703    5.200667    1.068052
 N   -3.519013    4.304135   -0.891821
 N   -1.712720   -0.135827   -0.099131
 C   -1.709072   -0.848401   -1.362762
 C   -2.752286   -1.978391   -1.355773
 O   -2.467252   -3.162388   -1.491685
 C   -0.290980   -1.342050   -1.684887
 O    0.644573   -0.289874   -1.488086
 C   -0.162356   -1.806244   -3.124807
 N   -4.016394   -1.532092   -1.179516
 C   -5.150282   -2.427240   -1.176894
 C   -6.392506   -1.585713   -1.401342
 O   -6.430041   -0.379127   -1.366628
 C   -5.282101   -3.259480    0.116200
 C   -5.320560   -2.414721    1.394982
 C   -3.973590   -1.853988    1.801577
 O   -3.788410   -0.703750    2.145723
 O   -3.021019   -2.777214    1.773643
 O   -7.474718   -2.347784   -1.618347
 H    0.713751   -4.642248    0.668406
 H   -0.618679   -4.552619    1.850155
 H   -0.872642   -3.934077    0.219329
 H    2.244879   -3.105360    1.031049
 H    1.357496   -0.371994    1.817283
 H    2.645816   -0.258242    3.816484
 H    1.623064   -1.701255    3.921691
 H    4.343128   -1.581811    3.313798
 H    2.224185   -0.633231   -0.610424
 H    5.157746   -0.604862   -0.729937
 H    3.079193   -0.213914   -2.932216
 H    4.786895   -0.501515   -3.177640
 H    2.821048   -2.496365   -1.915747
 H    3.303616   -2.487556   -3.599659
 H    5.676279   -2.914691   -2.938603
 H    4.555556   -4.220457   -2.577682
 H    6.310649   -3.130477   -0.790572
 H    4.578952   -3.579836    2.140652
 H    5.609771   -2.465696    1.435630
 H    3.152375   -4.413667   -0.861860
 H    4.915461    1.318725    0.766218
 H    5.442460    3.617122    0.967618
 H    5.278883    3.803341   -0.781359
 H    2.511033    2.228684    0.329634
 H    0.939433    4.501509    1.143466
 H    1.401702    5.017628   -1.243381
 H   -0.624330    5.642987   -0.284043
 H   -0.263569    2.511495   -1.855035
 H    1.488954    2.673030   -2.146960
 H    0.336532    3.690158   -3.032034
 H   -1.416343    3.750014    1.028761
 H   -1.678556    1.053669    2.082065
 H   -3.932835    1.586138    2.463082
 H   -2.950713    2.990070    2.891877
 H   -4.850482    2.690284    0.515524
 H   -4.946161    3.807710    1.885897
 H   -2.766490    4.797302   -1.359118
 H   -3.760231    3.402800   -1.285737
 H   -1.207581   -0.538606    0.689147
 H   -2.007388   -0.117084   -2.122599
 H   -0.047185   -2.178159   -1.018078
 H    0.365676    0.274993   -0.740696
 H    0.871400   -2.100835   -3.325704
 H   -0.813750   -2.663121   -3.307013
 H   -0.422022   -0.991364   -3.808614
 H   -4.198037   -0.531560   -1.124508
 H   -5.057512   -3.130002   -2.013238
 H   -6.193775   -3.859252    0.038524
 H   -4.433602   -3.945726    0.154905
 H   -6.018150   -1.575669    1.319199
 H   -5.660032   -3.050337    2.221492
 H   -2.135409   -2.365678    1.970789
 H   -8.225232   -1.741393   -1.725559
