19 
2xtk_ligand_dft.xyz
 C    0.986299    0.279693   -0.006086
 C   -1.308128    0.716224    0.001259
 C   -3.514252   -0.329718   -0.006476
 C   -4.988296   -0.009553    0.015572
 N    3.573704    0.935007   -0.510855
 N   -0.600798    1.813854    0.010909
 N    0.734711    1.548180    0.009536
 N   -2.683088    0.776571    0.002757
 O    2.755090   -1.400393   -0.904177
 O    3.007376   -0.502565    1.455129
 O   -3.054464   -1.453624   -0.027947
 S    2.673521   -0.322856    0.059659
 S   -0.401393   -0.765153   -0.025473
 H   -5.548246   -0.942978   -0.030449
 H   -5.250940    0.524811    0.934614
 H   -5.262184    0.621506   -0.836225
 H    3.402733    1.120058   -1.493903
 H    3.479918    1.769032    0.061210
 H   -3.064766    1.713204    0.021709
