60 
2xu1_ligand_xtb.xyz
 S   -1.641482    0.631427   -0.062558
 N    1.373637   -0.185142    0.276015
Cl   -3.425025    1.966640    2.213347
 C    1.247097   -2.609821    0.254007
Cl   -4.576857   -3.447165   -0.846503
 C   -0.317141    1.180002    1.090724
 C    1.735373   -1.319601   -0.354094
 C    1.638193    1.124917   -0.320654
 C   -2.641561    2.109337   -0.356880
 C    0.498400   -0.057019    1.418479
 C    0.629055    2.078949    0.323353
 C    3.088900    1.562310   -0.002531
 C    1.977944   -3.110407    1.470615
 C    2.198562   -3.775668    0.149136
 C    5.398893    0.922544   -0.387361
 N    4.003290    0.870082   -0.705576
 C    5.802910    0.077721    0.759930
 N    5.071121   -0.668215    1.455620
 C   -0.209633   -2.844118    0.024483
 O   -2.440050   -0.367734    0.588813
 O   -1.039079    0.282580   -1.318597
 C    6.360567    1.090698   -1.541473
 C    6.122762    2.231019   -0.613523
 O    2.460558   -1.292817   -1.340702
 C   -3.412354    2.672206    0.647630
 O    3.341843    2.439291    0.795672
 C   -1.080794   -3.250075    1.028623
 C   -0.708964   -2.648476   -1.260222
 C   -2.899105   -3.230474   -0.517425
 C   -2.633657    2.667009   -1.622723
 C   -2.423033   -3.446549    0.763254
 C   -2.047982   -2.837977   -1.536117
 C   -4.178884    3.799978    0.385207
 C   -3.392773    3.793061   -1.889911
 C   -4.162674    4.355024   -0.882917
 H   -0.800826    1.634840    1.949130
 H    1.511761    1.036796   -1.404447
 H    1.090088    0.092948    2.331362
 H   -0.145028   -0.929342    1.535701
 H    0.100585    2.674560   -0.419883
 H    1.172571    2.748658    0.997445
 H    2.773385   -2.500719    1.873946
 H    1.423697   -3.647227    2.224677
 H    1.771569   -4.753568   -0.011215
 H    3.132177   -3.608360   -0.365808
 H    3.665447    0.079631   -1.259687
 H    6.856300    0.115314    1.020450
 H    4.089292   -0.668368    1.175023
 H    7.300691    0.563040   -1.491651
 H    5.926507    1.131048   -2.528425
 H    5.520710    3.058845   -0.952091
 H    6.892006    2.504552    0.091586
 H   -0.722879   -3.405901    2.035834
 H   -0.041145   -2.334795   -2.047434
 H   -2.031451    2.189053   -2.379695
 H   -3.097377   -3.749368    1.548810
 H   -2.430865   -2.669399   -2.530037
 H   -4.778098    4.230276    1.171455
 H   -3.386792    4.227222   -2.877254
 H   -4.759709    5.231175   -1.084774
