57 
2xu3_ligand_xtb.xyz
 N    0.395531   -0.426600   -1.351236
 C   -0.361643   -1.053704   -0.285296
Cl   -3.543305    0.379996    2.594781
 C   -1.626409   -0.212124   -0.152666
Cl    5.161242   -0.129137    2.770132
 C   -1.724378    0.575280   -1.449396
 C   -0.263347    0.780324   -1.835284
 S   -3.039758   -1.366898   -0.013033
 C    0.326650    2.016924   -1.118912
 C   -4.489796   -0.311808    0.171630
 O   -3.157751   -2.049572   -1.274184
 O   -2.863201   -2.184592    1.153070
 C   -4.684179    0.447907    1.314289
 C   -5.806827    1.258848    1.421099
 C   -6.720271    1.300794    0.381927
 C   -6.525857    0.539931   -0.760992
 C   -5.406168   -0.267131   -0.862686
 O   -0.344398    2.760162   -0.437263
 N    1.651343    2.145533   -1.327887
 C    2.453071    3.061015   -0.573086
 C    2.650074    2.693084    0.849267
 N    2.187918    1.704211    1.467259
 C    3.575871    3.750855   -1.307144
 C    2.367382    4.532944   -0.924424
 C    1.522094   -0.888214   -1.922744
 C    2.071867   -2.167478   -1.340346
 O    2.088784   -0.263018   -2.808200
 C    2.683859   -1.927651   -0.018326
 C    2.402993   -2.483505    1.192126
 C    3.188129   -1.964925    2.245914
 C    4.056168   -1.010654    1.819904
 S    3.943878   -0.730415    0.112893
 C    2.721507   -3.128544   -2.302072
 C    1.406877   -3.473596   -1.675506
 H   -0.631445   -2.080329   -0.556048
 H    0.211995   -1.083411    0.645942
 H   -1.616414    0.426363    0.726189
 H   -2.241641   -0.028559   -2.196158
 H   -2.230685    1.530363   -1.319371
 H   -0.096399    0.875702   -2.912802
 H   -5.953041    1.847811    2.312259
 H   -7.591383    1.932071    0.468341
 H   -7.242639    0.574220   -1.566284
 H   -5.220247   -0.882506   -1.728739
 H    2.115357    1.490372   -1.950970
 H    3.277599    3.373796    1.416890
 H    1.593463    1.091812    0.908380
 H    4.497628    3.917556   -0.771244
 H    3.710329    3.484159   -2.344228
 H    2.434971    5.245577   -0.117538
 H    1.659559    4.801453   -1.692398
 H    1.653404   -3.240211    1.339093
 H    3.105113   -2.280315    3.269114
 H    3.603699   -3.652151   -1.967598
 H    2.742918   -2.841491   -3.341908
 H    0.521617   -3.446594   -2.293476
 H    1.388364   -4.240566   -0.916744
