63 
2xu5_ligand_dft.xyz
Cl   -3.511056    0.418025    2.265187
 C    0.388022    1.169809   -1.469541
 C    0.165499    2.563113   -0.833409
 N    1.273093    3.355206   -0.856676
 C    1.391894    4.524779   -0.046674
 C    1.777746    4.285335    1.375828
 O   -0.903504    2.887820   -0.343847
 C    0.486971    5.697486   -0.344812
 C    1.930346    5.774281   -0.717968
 N    1.924645    3.166218    1.955627
 N    1.254881    0.344670   -0.609324
 C    0.480620   -0.605117    0.200563
 C   -0.968088   -0.202508   -0.098274
 C   -0.914911    0.379197   -1.510329
 S   -2.051457   -1.634373    0.057920
 C   -3.689286   -0.913575   -0.146812
 C   -4.289524   -0.057210    0.782469
 C   -5.558464    0.455383    0.531059
 C   -6.229171    0.112738   -0.637331
 C   -5.639546   -0.742267   -1.562156
 C   -4.370607   -1.250644   -1.315551
 O   -1.829284   -2.498138   -1.100950
 O   -1.908250   -2.176663    1.402188
 C    2.609876    0.457797   -0.675072
 O    3.126808    1.326663   -1.384066
 C    4.001098    0.207706    1.441349
 C    3.454420   -0.455925    0.185485
 C    4.907538   -0.050170    0.281713
 C    2.772915   -3.917351   -1.173224
 C    2.444645   -4.655558   -0.032783
 C    2.486799   -4.005717    1.200706
 C    2.821955   -2.658738    1.294299
 C    3.134207   -1.921912    0.153465
 C    3.117257   -2.575223   -1.082252
 C    2.023397   -6.099007   -0.137148
 H    0.859528    1.280461   -2.450042
 H    2.129400    2.911552   -1.190369
 H    1.954644    5.191180    1.966089
 H    0.133333    6.275329    0.503291
 H   -0.247989    5.540369   -1.125210
 H    2.196740    5.674719   -1.764960
 H    2.589499    6.410183   -0.134508
 H    1.718798    2.409019    1.294259
 H    0.721805   -0.521632    1.261819
 H    0.672023   -1.631733   -0.122831
 H   -1.326337    0.547110    0.610454
 H   -0.844571   -0.426619   -2.246505
 H   -1.771922    1.015937   -1.730985
 H   -6.011441    1.122369    1.256023
 H   -7.218029    0.520909   -0.820589
 H   -6.161943   -1.011920   -2.473855
 H   -3.885319   -1.919694   -2.017724
 H    4.106254   -0.408461    2.328420
 H    3.703167    1.232214    1.644677
 H    5.216780    0.790487   -0.328695
 H    5.621839   -0.862644    0.365363
 H    2.755739   -4.401164   -2.146597
 H    2.234765   -4.555099    2.104197
 H    2.806743   -2.174191    2.266118
 H    3.370070   -2.019537   -1.982386
 H    0.940681   -6.175486   -0.291515
 H    2.512704   -6.597938   -0.979448
 H    2.266149   -6.652511    0.775009
