63 
2xu5_ligand_xtb.xyz
Cl   -3.760955    1.465023    2.178282
 C    1.371899    1.172657   -0.327302
 C    2.754445    1.764028    0.044488
 N    3.761987    1.193247   -0.639415
 C    5.133156    1.393834   -0.278655
 C    5.596083    0.582416    0.870674
 O    2.882620    2.649789    0.863252
 C    5.715171    2.778099   -0.462763
 C    6.101966    1.687697   -1.400623
 N    4.922671   -0.219743    1.562427
 N    1.244876   -0.180337    0.215494
 C    0.338153   -0.196978    1.340055
 C   -0.599339    0.961041    1.051775
 C    0.247401    1.983010    0.322344
 S   -1.865459    0.334974   -0.124994
 C   -2.982431    1.737598   -0.383857
 C   -3.801808    2.207633    0.629852
 C   -4.661614    3.271847    0.392248
 C   -4.690617    3.857781   -0.861634
 C   -3.873336    3.388441   -1.878623
 C   -3.021001    2.325293   -1.635557
 O   -1.233065    0.075533   -1.386908
 O   -2.596140   -0.736485    0.489827
 C    1.763917   -1.242866   -0.432385
 O    2.504807   -1.093535   -1.397270
 C    2.239203   -3.048531    1.322008
 C    1.435616   -2.599905    0.130612
 C    2.516140   -3.640647   -0.023520
 C   -1.843607   -3.176742   -1.607301
 C   -2.651711   -3.691093   -0.602500
 C   -2.103462   -3.867545    0.659722
 C   -0.790561   -3.524115    0.919767
 C    0.012017   -2.997313   -0.084793
 C   -0.530517   -2.834933   -1.355397
 C   -4.091754   -4.010565   -0.860662
 H    1.282829    1.112622   -1.416848
 H    3.529849    0.381630   -1.218713
 H    6.641663    0.704324    1.137527
 H    6.429805    3.120395    0.269239
 H    5.035054    3.541210   -0.805384
 H    5.693746    1.699144   -2.399254
 H    7.092961    1.265771   -1.331422
 H    3.944700   -0.295803    1.278653
 H    0.891537   -0.029925    2.274116
 H   -0.210990   -1.137505    1.401284
 H   -1.126264    1.331706    1.925098
 H   -0.337051    2.531430   -0.415440
 H    0.698561    2.694950    1.020749
 H   -5.297162    3.629411    1.186436
 H   -5.359975    4.684422   -1.044322
 H   -3.902697    3.845752   -2.855100
 H   -2.378719    1.919185   -2.401500
 H    1.761297   -3.670098    2.063212
 H    2.964164   -2.363593    1.737562
 H    3.416549   -3.348327   -0.541968
 H    2.205002   -4.656872   -0.210936
 H   -2.250189   -3.028979   -2.597259
 H   -2.715737   -4.265298    1.456564
 H   -0.399579   -3.659558    1.918473
 H    0.083069   -2.428581   -2.145162
 H   -4.699236   -3.136631   -0.623867
 H   -4.254915   -4.265678   -1.905374
 H   -4.427645   -4.835521   -0.235854
