69 
2xvd_ligand_xtb.xyz
 C   -1.932163    1.581730   -1.287224
 C   -2.268244    1.152323    0.140970
 C   -3.077843    2.222194    0.860937
 N   -2.945579   -0.144789    0.162611
 C   -2.220428   -1.272064    0.001923
 C   -2.819191   -2.544180   -0.118882
 C   -1.967233   -3.609847   -0.278428
 N   -0.644812   -3.486551   -0.327469
 C   -0.172347   -2.243733   -0.218439
 N    1.193501   -2.178824   -0.287519
 C    2.055552   -1.104641   -0.231037
 C    3.427897   -1.367640   -0.261805
 C    4.380034   -0.349300   -0.196970
 C    3.916828    0.970444   -0.086278
 C    2.564490    1.213113   -0.083056
 C    1.615987    0.216303   -0.154438
 S    2.014948    2.900434    0.147654
 O    3.123937    3.797398   -0.047819
 O    0.816474    3.151301   -0.611549
 C    1.564013    2.933593    1.911251
 N    5.739832   -0.603750   -0.161434
 C    6.238397   -1.956237   -0.027391
 C    7.644955   -1.900132    0.582528
 O    8.522721   -1.111587   -0.181891
 C    8.027886    0.202597   -0.298691
 C    6.645857    0.208943   -0.952885
 N   -0.888550   -1.143230   -0.052154
 C   -4.356300   -0.212605    0.291147
 C   -5.162555    0.185262   -0.765157
 C   -6.545718    0.146345   -0.657768
 C   -7.391328    0.586847   -1.824940
 O   -8.760967    0.435850   -1.532953
 C   -7.116201   -0.302918    0.522242
 C   -6.312390   -0.704210    1.573908
 C   -4.928440   -0.665198    1.484948
 C   -4.074039   -1.113656    2.631070
 H   -1.513026    0.742676   -1.837153
 H   -2.819354    1.938133   -1.805313
 H   -1.190866    2.376458   -1.263849
 H   -1.328416    0.999254    0.682889
 H   -4.012261    2.423224    0.342458
 H   -3.308278    1.923533    1.881391
 H   -2.493044    3.137850    0.886975
 H   -3.888685   -2.664834   -0.107182
 H   -2.341557   -4.620874   -0.379494
 H    1.610000   -3.094174   -0.395104
 H    3.740456   -2.395906   -0.360200
 H    4.582950    1.811858    0.000581
 H    0.568637    0.448258   -0.175001
 H    2.455632    2.717573    2.484525
 H    1.189110    3.922308    2.144004
 H    0.799919    2.184987    2.072894
 H    6.285558   -2.468571   -1.001280
 H    5.596066   -2.519823    0.649337
 H    8.083377   -2.898789    0.620478
 H    7.573347   -1.494048    1.603555
 H    8.747410    0.748231   -0.910717
 H    7.964148    0.668158    0.696466
 H    6.275885    1.228367   -1.030206
 H    6.736121   -0.211417   -1.967579
 H   -4.701836    0.519012   -1.683140
 H   -7.116465   -0.012462   -2.707837
 H   -7.160118    1.640313   -2.052759
 H   -9.274685    0.718721   -2.295516
 H   -8.190110   -0.336077    0.605788
 H   -6.769785   -1.052245    2.488866
 H   -3.785530   -2.157589    2.500063
 H   -3.160063   -0.526450    2.690599
 H   -4.616643   -1.026281    3.569265
