45 
2xx2_ligand_dft.xyz
 C   -0.549049    1.307110    1.011307
 C    0.821032    1.135327    0.391038
 C    1.431771    2.186858   -0.315026
 C    2.720498    2.079728   -0.817985
 C    3.443532    0.910069   -0.633001
 C    2.846796   -0.147302    0.062841
 C    1.556113   -0.055306    0.580811
 C    0.945301   -1.249582    1.264447
 C    0.362980   -2.257906    0.272167
 C   -0.792708   -3.085061    0.795877
 C   -2.113923   -2.360104    0.456372
 C   -2.472922   -2.479336   -1.026103
 C   -3.683863   -1.648413   -1.459311
 C   -3.476351   -0.125620   -1.338340
 C   -4.177660    0.500935   -0.128649
 C   -3.962130    2.015175    0.005495
 C   -2.733455    2.417166    0.821735
 O   -0.820411    0.858881    2.121411
 O    0.731622    3.344116   -0.500871
 O    4.688277    0.859838   -1.137913
Cl    3.816108   -1.596518    0.269090
 N   -1.470757    1.966121    0.260271
 O    0.764208   -2.351935   -0.867618
 H    3.188865    2.897134   -1.358420
 H    0.178720   -0.929903    1.968501
 H    1.701311   -1.791776    1.845723
 H   -0.703524   -3.212435    1.880225
 H   -0.771683   -4.070391    0.319415
 H   -2.026802   -1.306952    0.755505
 H   -2.920546   -2.784489    1.066653
 H   -2.660087   -3.537735   -1.252063
 H   -1.607409   -2.189227   -1.633503
 H   -4.566511   -1.948549   -0.876494
 H   -3.909965   -1.906179   -2.500501
 H   -3.855553    0.372205   -2.240383
 H   -2.403005    0.097180   -1.297621
 H   -3.852673    0.005088    0.795649
 H   -5.252880    0.298641   -0.218437
 H   -4.827095    2.469672    0.504416
 H   -3.914401    2.472496   -0.993063
 H   -2.793381    1.988496    1.824011
 H   -2.704099    3.509950    0.928696
 H    1.292932    3.978330   -0.962861
 H    5.066604   -0.014469   -0.961247
 H   -1.142694    2.431245   -0.572743
