60 
2xx5_ligand_xtb.xyz
 C   -4.234712   -1.112536   -0.574466
 C   -5.477805   -1.713768   -0.506269
 C   -6.622917   -0.935647   -0.471327
 C   -6.517573    0.444048   -0.503519
 C   -5.271988    1.045201   -0.563614
 C   -4.120353    0.272202   -0.602193
 C   -2.760245    0.913652   -0.673616
 N   -1.856535    0.337804    0.301693
 C   -0.700374   -0.241726   -0.026369
 O   -0.249866   -0.298211   -1.154926
 C    0.050406   -0.873651    1.162530
 C   -0.753039   -2.052105    1.732385
 C    0.191001   -3.059596    2.385010
 C    1.169507   -3.709232    1.449245
 C    1.141390   -3.706006    0.126201
 C    2.131880   -4.430527   -0.728568
 C    2.646284   -3.594906   -1.904157
 C    3.483673   -2.385821   -1.487980
 N    2.679412   -1.210707   -1.235880
 C    2.997161   -0.312959   -0.296121
 O    3.838362   -0.491516    0.568298
 C    2.205287    0.977492   -0.366959
 C    2.078407    1.595097   -1.702322
 O    2.432746    1.061034   -2.723776
 C    1.459786    2.990589   -1.737720
 C    0.404941    3.126732   -0.691307
 O   -0.756295    3.359950   -0.890943
 C    0.951236    2.851166    0.695954
Cl    2.123392    4.160818    1.116774
 C    1.678793    1.542215    0.736818
 C    1.652622    0.874634    2.075597
 C    0.286466    0.209331    2.178725
 O   -0.567144    0.594469    2.940732
 H   -3.341113   -1.719095   -0.613242
 H   -5.554236   -2.790948   -0.484225
 H   -7.594454   -1.404279   -0.420977
 H   -7.407797    1.054861   -0.478333
 H   -5.192193    2.122315   -0.586505
 H   -2.830560    1.993707   -0.515283
 H   -2.305011    0.740879   -1.654217
 H   -2.134977    0.373816    1.272207
 H    0.999358   -1.242661    0.774512
 H   -1.319659   -2.542249    0.939312
 H   -1.462993   -1.682420    2.475644
 H   -0.402721   -3.846948    2.861117
 H    0.750272   -2.559677    3.181743
 H    1.961817   -4.248097    1.954820
 H    0.365691   -3.192155   -0.423845
 H    2.973708   -4.766710   -0.120206
 H    1.643052   -5.321091   -1.138715
 H    3.263965   -4.238030   -2.533479
 H    1.803344   -3.251479   -2.507855
 H    4.047618   -2.591793   -0.574993
 H    4.198228   -2.150350   -2.286955
 H    1.979906   -0.967071   -1.923590
 H    2.269438    3.693271   -1.523302
 H    1.065447    3.182185   -2.736505
 H    0.159340    2.897803    1.448615
 H    1.756781    1.610816    2.873914
 H    2.448526    0.132732    2.143662
