89 
2xyd_ligand_dft.xyz
 C   -2.954022    0.336086    2.635393
 C   -2.328087   -0.700505    3.323182
 C   -2.899705   -1.969958    3.347348
 C   -4.101189   -2.197765    2.681598
 C   -4.722320   -1.163789    1.988535
 C   -4.152682    0.109357    1.957633
 C   -4.846386    1.226104    1.212117
 O   -3.933935    2.226568    0.760298
 C   -3.163653    1.872278   -0.293131
 O   -3.318316    0.854615   -0.945388
 N   -2.213975    2.813378   -0.515390
 C   -1.154696    2.619239   -1.483934
 C   -0.886276    3.878880   -2.328695
 C   -0.522865    5.108047   -1.528728
 C   -1.517872    5.961761   -1.046096
 C   -1.188857    7.080825   -0.285272
 C    0.144131    7.362473   -0.002638
 C    1.143279    6.519943   -0.483666
 C    0.812049    5.401969   -1.240520
 P    0.361724    1.937385   -0.680427
 O    0.483134    2.868028    0.632140
 O    1.535208    1.881295   -1.598826
 N    3.173209   -0.813108    1.199852
 C    4.359925   -0.176481    1.732306
 C    4.862611    0.949567    0.820843
 O    4.165204    1.024203   -0.312968
 O    5.787280    1.671034    1.109018
 C    5.476656   -1.204390    1.990712
 C    5.841405   -1.997339    0.757882
 C    5.242848   -3.234604    0.495860
 C    5.521433   -3.945481   -0.664024
 C    6.421691   -3.423134   -1.592233
 O    6.664740   -4.155995   -2.709169
 C    7.034359   -2.193747   -1.345920
 C    6.742163   -1.492440   -0.182194
 C   -0.178580    0.311945   -0.033339
 C    0.927890   -0.705575    0.249441
 C    2.001819   -0.131428    1.167804
 O    1.816324    0.858504    1.876223
 C    0.363687   -1.980266    0.934174
 C   -0.786959   -2.616318    0.229519
 C   -2.062619   -2.224406   -0.003916
 O   -0.602785   -3.857580   -0.256875
 N   -1.776084   -4.310214   -0.823018
 C   -2.646049   -3.335693   -0.670427
 C   -4.040021   -3.456199   -1.128113
 C   -4.802481   -2.301707   -1.335341
 C   -6.127111   -2.408067   -1.746713
 C   -6.700122   -3.660071   -1.954110
 C   -5.940529   -4.810642   -1.753627
 C   -4.616849   -4.711218   -1.341708
 H   -2.504134    1.324850    2.617608
 H   -1.392140   -0.511049    3.841723
 H   -2.407313   -2.781510    3.874409
 H   -4.544460   -3.188529    2.676893
 H   -5.641545   -1.359152    1.442247
 H   -5.410586    0.827568    0.364393
 H   -5.530609    1.769920    1.868337
 H   -2.085634    3.530103    0.186269
 H   -1.495203    1.830572   -2.161972
 H   -0.083979    3.634866   -3.031873
 H   -1.792353    4.071723   -2.913763
 H   -2.560229    5.751879   -1.276202
 H   -1.974149    7.736991    0.078953
 H    0.404115    8.236988    0.586606
 H    2.186071    6.733265   -0.268057
 H    1.591054    4.736111   -1.602415
 H    0.990338    2.364736    1.306377
 H    3.337748   -1.474461    0.450367
 H    4.090563    0.303982    2.675856
 H    4.439566    1.807935   -0.813584
 H    6.342719   -0.653778    2.368904
 H    5.137753   -1.876026    2.785843
 H    4.547759   -3.655004    1.219878
 H    5.056923   -4.905428   -0.862273
 H    7.291287   -3.684606   -3.271160
 H    7.743318   -1.784279   -2.062366
 H    7.224689   -0.535122   -0.002874
 H   -0.772659    0.484228    0.870293
 H   -0.857986   -0.109187   -0.778708
 H    1.403371   -0.980441   -0.699189
 H    0.033465   -1.703753    1.943003
 H    1.157655   -2.725066    1.045027
 H   -2.539616   -1.298632    0.275194
 H   -4.357133   -1.320246   -1.191770
 H   -6.709465   -1.506633   -1.915128
 H   -7.734823   -3.740384   -2.274491
 H   -6.382662   -5.789357   -1.914629
 H   -4.020565   -5.603132   -1.177080
