89 
2xyd_ligand_xtb.xyz
 C   -3.363107    0.690768    2.375570
 C   -2.930977   -0.407882    3.097762
 C   -3.594055   -1.618077    2.985878
 C   -4.693117   -1.724735    2.150368
 C   -5.122140   -0.628889    1.422708
 C   -4.458525    0.586317    1.528056
 C   -4.923994    1.781562    0.734796
 O   -3.856108    2.651406    0.373636
 C   -2.984174    2.147562   -0.530807
 O   -3.109107    1.067087   -1.061061
 N   -1.993895    3.029435   -0.772389
 C   -0.824392    2.687627   -1.537784
 C   -0.296143    3.872343   -2.349614
 C    0.078373    5.029860   -1.469210
 C   -0.879605    5.956137   -1.073334
 C   -0.542487    7.003077   -0.232996
 C    0.758733    7.137828    0.218706
 C    1.721330    6.225759   -0.179752
 C    1.384118    5.179918   -1.020174
 P    0.490669    1.994116   -0.417094
 O    0.405801    3.048782    0.784131
 O    1.815463    1.830329   -1.033682
 N    3.095427   -0.685673    0.971028
 C    4.341583   -0.084635    1.381693
 C    4.977301    0.683832    0.222454
 O    4.492243    0.298212   -0.952768
 O    5.830387    1.516919    0.355990
 C    5.325130   -1.148313    1.907401
 C    5.627746   -2.167931    0.845289
 C    4.843799   -3.309356    0.711438
 C    5.084087   -4.226251   -0.292179
 C    6.125882   -4.014550   -1.190078
 O    6.333741   -4.937451   -2.164301
 C    6.917413   -2.878730   -1.061834
 C    6.666006   -1.966755   -0.053931
 C   -0.296103    0.423302    0.163208
 C    0.750763   -0.659675    0.370464
 C    1.930668   -0.031908    1.096641
 O    1.799041    0.967379    1.785219
 C    0.203174   -1.827321    1.210940
 C   -0.934641   -2.531366    0.555593
 C   -2.157547   -2.130874    0.105264
 O   -0.808441   -3.858314    0.354158
 N   -1.936523   -4.338059   -0.216694
 C   -2.756755   -3.325774   -0.380782
 C   -4.081981   -3.467622   -0.961985
 C   -4.758405   -2.353016   -1.454465
 C   -6.026490   -2.497337   -1.986798
 C   -6.629401   -3.743692   -2.033495
 C   -5.955545   -4.855575   -1.553188
 C   -4.687792   -4.721198   -1.021097
 H   -2.849643    1.637847    2.465984
 H   -2.077741   -0.314282    3.754440
 H   -3.255223   -2.476201    3.547038
 H   -5.211365   -2.666920    2.053185
 H   -5.972661   -0.720781    0.763657
 H   -5.447362    1.447929   -0.168161
 H   -5.595317    2.403937    1.334077
 H   -1.910546    3.829425   -0.161526
 H   -1.108376    1.880998   -2.224023
 H    0.583893    3.519753   -2.890366
 H   -1.059420    4.176554   -3.070337
 H   -1.894522    5.865597   -1.436542
 H   -1.297140    7.715670    0.067464
 H    1.022359    7.954150    0.875029
 H    2.739563    6.329764    0.164919
 H    2.135098    4.467549   -1.325933
 H    1.069192    2.798189    1.438664
 H    3.179076   -1.415355    0.277392
 H    4.116120    0.639376    2.171869
 H    4.829159    0.856383   -1.670441
 H    6.237629   -0.637352    2.216357
 H    4.877234   -1.629545    2.777976
 H    4.041902   -3.491917    1.412595
 H    4.479872   -5.112960   -0.397187
 H    7.084887   -4.677720   -2.711233
 H    7.733302   -2.711797   -1.752648
 H    7.288665   -1.088634    0.036496
 H   -0.829080    0.622863    1.092934
 H   -1.015204    0.113667   -0.590870
 H    1.094383   -1.028408   -0.599896
 H   -0.128684   -1.433685    2.175901
 H    0.992115   -2.560951    1.389935
 H   -2.596177   -1.158629    0.121508
 H   -4.288327   -1.381469   -1.434122
 H   -6.547867   -1.632422   -2.371223
 H   -7.621607   -3.849714   -2.447567
 H   -6.422368   -5.828917   -1.594459
 H   -4.147458   -5.575008   -0.643028
