50 
2xys_ligand_xtb.xyz
 C   -0.358590   -2.084026   -0.490505
 C   -0.880852   -1.452563   -1.767055
 C   -1.717545   -0.229514   -1.386979
 C   -0.725637    0.816491   -0.861064
 C    0.015851    0.350007    0.397330
 N    1.254706    1.119204    0.489402
 C    2.310563    0.304848    0.104748
 C    3.618500    0.674811   -0.163627
 C    4.519802   -0.322109   -0.499083
 C    4.135819   -1.653163   -0.559293
 C    2.826321   -2.020476   -0.284359
 C    1.918387   -1.033015    0.033315
 C    0.460572   -1.135857    0.402543
 C    0.252651   -1.771231    1.789153
 C   -1.225719   -2.121245    1.777956
 N   -1.503486   -2.575111    0.381089
 C   -2.833765   -2.115321   -0.101197
 C   -2.787334   -0.642515   -0.404425
 C   -3.657640    0.206307    0.130330
 C   -3.587493    1.689674   -0.098095
 O   -2.361541    2.212764    0.363147
 C   -1.286272    2.219262   -0.551613
 C   -0.195876    3.064767    0.135104
 C    1.227028    2.503169    0.031110
 O    2.131288    3.267689    0.758993
 H    0.266839   -2.948630   -0.729207
 H   -1.451914   -2.171024   -2.356470
 H   -0.024109   -1.151212   -2.370902
 H   -2.204032    0.184852   -2.277726
 H    0.016089    0.954795   -1.655579
 H   -0.614525    0.573512    1.265788
 H    3.918784    1.707798   -0.104288
 H    5.542542   -0.055842   -0.715241
 H    4.858515   -2.410327   -0.817827
 H    2.537092   -3.061241   -0.326323
 H    0.511256   -1.086965    2.592887
 H    0.873884   -2.662523    1.886388
 H   -1.826510   -1.229431    1.964503
 H   -1.499848   -2.894715    2.493966
 H   -1.500456   -3.595591    0.365062
 H   -3.578863   -2.332923    0.666254
 H   -3.096799   -2.679821   -0.999538
 H   -4.423800   -0.148062    0.804138
 H   -4.362384    2.196483    0.479920
 H   -3.730986    1.924232   -1.162954
 H   -1.613636    2.682536   -1.495124
 H   -0.190049    4.079050   -0.260249
 H   -0.467275    3.125163    1.192102
 H    1.593164    2.576290   -1.006246
 H    1.877886    3.281521    1.690361
