39 
2xyu_ligand_dft.xyz
 N    3.126549   12.610706   19.417543
 C    4.041073   13.531969   19.730047
 C    5.388425   13.296935   20.050522
 C    5.850439   11.972314   20.057585
 C    4.923768   10.985044   19.730044
 C    3.583572   11.363436   19.431040
 C    2.577565   10.308610   19.090190
 C    7.288119   11.658524   20.399579
 C    7.519820   10.178125   20.698614
 C    6.833406    9.318294   19.639809
 C    5.318635    9.520792   19.686272
 N    3.850638   14.869860   19.816171
 N    4.993826   15.529982   20.161210
 C    5.916989   14.604917   20.309300
 N    7.204680   14.924034   20.741145
 C    2.006694    9.559967   20.116983
 C    1.073045    8.584977   19.805905
 F    0.523400    7.869129   20.801452
 C    0.696416    8.328542   18.499262
 C    1.278729    9.081481   17.483879
 C    2.219325   10.076041   17.753010
 C    2.839474   10.882928   16.640226
 H    2.995986   15.382561   19.682279
 H    7.916348   11.957225   19.546758
 H    7.597710   12.284654   21.244072
 H    4.913322    9.006885   20.569002
 H    4.847744    9.037306   18.823263
 H    2.277107    9.735584   21.153172
 H    8.594631    9.972125   20.737828
 H    7.110111    9.933541   21.687302
 H    7.213537    9.595501   18.647022
 H    7.067066    8.258520   19.786307
 H    7.929234   14.502774   20.172972
 H    7.330836   15.929181   20.782111
 H   -0.035566    7.556664   18.288752
 H    0.991431    8.888471   16.453631
 H    2.582823   11.942612   16.737717
 H    3.933561   10.815219   16.661755
 H    2.497531   10.532571   15.662270
