35 
2xyu_ligand_xtb.xyz
 N    0.291865   -1.523052   -0.081704
 C    1.629848   -1.493597   -0.154423
 C    2.444428   -0.341306   -0.150598
 C    1.811182    0.919348   -0.029292
 C    0.389839    0.895837    0.029308
 C   -0.300473   -0.361170   -0.008164
 C   -1.782891   -0.375031    0.047505
 C    2.479022    2.152421    0.052036
 C    1.770354    3.319893    0.166553
 C    0.371923    3.301977    0.208966
 C   -0.305741    2.112724    0.147657
 N    2.447961   -2.557857   -0.253381
 N    3.741941   -2.179164   -0.334305
 C    3.765993   -0.859712   -0.271783
 N    4.954502   -0.167258   -0.259787
 C   -2.507261   -0.177876   -1.119161
 C   -3.887907   -0.188266   -1.061065
 F   -4.592442    0.005670   -2.197956
 C   -4.564803   -0.384399    0.126925
 C   -3.828045   -0.579524    1.282206
 C   -2.440248   -0.580506    1.263088
 C   -1.646107   -0.789331    2.515414
 H    3.557943    2.168380    0.044650
 H    2.291655    4.263883    0.230720
 H   -0.170253    4.231348    0.299624
 H   -1.384828    2.095479    0.194542
 H    4.946778    0.705566   -0.765564
 H    5.741519   -0.756159   -0.491350
 H   -2.006435   -0.020277   -2.061690
 H   -5.643125   -0.383779    0.139569
 H   -4.344830   -0.733818    2.217995
 H   -0.998232   -1.657265    2.404332
 H   -1.010292    0.074189    2.710604
 H   -2.299991   -0.943328    3.369568
 H    2.203504   -3.532803   -0.278195
