38 
2xzc_ligand_dft.xyz
 C   -2.396330    0.428963    0.034912
 C   -2.785052   -0.258497    1.184692
 C   -3.744529   -1.267371    1.121080
 C   -4.329020   -1.597062   -0.099268
 C   -3.950992   -0.912975   -1.254306
 C   -2.994321    0.095562   -1.183043
 C    1.254862    1.236496   -1.082792
 C    2.076257    1.521823    0.202499
 C    2.506128    0.254348    0.938315
 N    3.373561   -0.544520   -0.036108
 O   -0.569327    1.652305    1.598323
 O   -0.041000    0.801909   -0.840967
 P   -1.126866    1.796558    0.171320
 C    1.376544   -0.733316    1.244967
 C    1.229210   -1.584989   -0.042562
 C    2.322942   -1.074679   -1.002294
 C    1.924571    0.108660   -1.890685
 C    4.201454   -1.594410    0.599144
 H   -2.312286    0.014699    2.125509
 H   -4.040922   -1.795864    2.024317
 H   -5.082118   -2.379239   -0.151006
 H   -4.408058   -1.165304   -2.208256
 H   -2.701263    0.628284   -2.085970
 H    1.263360    2.162417   -1.684351
 H    1.458993    2.101031    0.894961
 H    2.970900    2.111837   -0.051267
 H    3.124598    0.498370    1.806581
 H    3.993232    0.097939   -0.534338
 H    1.639053   -1.358874    2.104401
 H    0.475733   -0.154354    1.490437
 H    1.372914   -2.650499    0.162179
 H    0.247990   -1.438676   -0.492111
 H    2.789152   -1.867987   -1.593855
 H    1.212223   -0.240076   -2.642295
 H    2.816303    0.471609   -2.424626
 H    3.551830   -2.286309    1.133094
 H    4.893095   -1.125239    1.300870
 H    4.755615   -2.129535   -0.174118
