39 
2y0j_ligand_xtb.xyz
 C    4.885304   -2.683194   -1.613036
 C    3.921945   -1.739293   -1.008873
 N    4.123513   -0.400126   -0.978219
 N    2.788936   -2.124206   -0.455395
 N    2.227939   -0.983086   -0.049220
 C    3.057244    0.072463   -0.374839
 C    2.635601    1.383410   -0.024140
 C    3.379869    2.535510   -0.289398
 C    2.886337    3.763834    0.081790
 C    1.648336    3.863104    0.720057
 C    0.901758    2.740844    0.989904
 C    1.382488    1.476954    0.624562
 N    0.617108    0.375943    0.905786
 C    1.037168   -0.802513    0.583747
 S    0.149248   -2.256637    0.925483
 C   -1.261554   -1.580613    1.895904
 C   -2.315235   -1.005496    1.035282
 N   -2.172957    0.225156    0.457627
 C   -3.311453    0.451874   -0.267344
 C   -3.735594    1.509361   -1.055558
 C   -4.980090    1.392709   -1.640672
 C   -5.777310    0.261531   -1.448604
 C   -5.362701   -0.795144   -0.666451
 C   -4.111712   -0.700971   -0.066563
 N   -3.447809   -1.580900    0.749317
 H    5.014996   -2.448437   -2.667827
 H    5.852966   -2.583325   -1.125508
 H    4.514647   -3.697407   -1.502185
 H    4.332307    2.428694   -0.783847
 H    3.455774    4.658254   -0.119126
 H    1.273736    4.834772    1.005559
 H   -0.052653    2.811703    1.489429
 H   -0.841126   -0.835017    2.568984
 H   -1.656256   -2.433136    2.443884
 H   -3.118592    2.383062   -1.205396
 H   -5.348998    2.194385   -2.263321
 H   -6.743519    0.219820   -1.929275
 H   -5.975451   -1.669440   -0.518034
 H   -1.335305    0.786574    0.535067
