58 
2y1w_ligand_xtb.xyz
 C   -1.403827   -0.882667    0.663575
 C   -2.060851   -2.075535    0.437130
 C   -1.304741   -3.209797    0.091050
 C    0.069559   -3.184223   -0.024825
 C   -0.023957   -0.813105    0.489000
 C    0.721352   -1.970746    0.158317
 N    2.024615   -1.604575    0.071130
 C    2.175285   -0.259885    0.301506
 C    0.911190    0.237583    0.557188
 C    3.459009    0.415621    0.286950
 C   -3.571284   -2.202825    0.421395
 C   -4.098287   -1.889079   -0.988904
 C   -3.835437   -0.424847   -1.296968
 N   -4.621102    0.457497   -0.377936
 C   -4.442242    0.149949    1.079977
 C   -4.373895   -1.343984    1.407283
 C   -4.403491    1.903626   -0.659930
 C   -2.909885    2.284278   -0.739948
 N   -2.660094    3.719887   -0.460181
 C   -1.221231    4.069915   -0.595364
 C    4.629520   -0.184834   -0.230614
 C    5.826700    0.521224   -0.201344
 C    5.888187    1.795525    0.331606
 C    4.749733    2.391006    0.846673
 C    3.554856    1.703740    0.821250
 O    4.519189   -1.442141   -0.746786
 C    5.664930   -2.066582   -1.295699
 F    0.512829    1.534934    0.745989
 H   -1.892788   -0.001379    1.042258
 H   -1.821724   -4.142373   -0.073135
 H    0.617899   -4.081827   -0.259362
 H   -3.808902   -3.244172    0.649675
 H   -5.162128   -2.122633   -1.059383
 H   -3.573765   -2.495666   -1.726403
 H   -4.116561   -0.179193   -2.322249
 H   -2.769159   -0.246909   -1.147930
 H   -5.604180    0.239959   -0.581566
 H   -5.288663    0.588120    1.614660
 H   -3.541152    0.647525    1.428760
 H   -3.953654   -1.440924    2.408330
 H   -5.388067   -1.746127    1.441564
 H   -4.896980    2.474155    0.134074
 H   -4.895245    2.145143   -1.606902
 H   -2.517678    2.073830   -1.738173
 H   -2.312941    1.711731   -0.022956
 H   -2.955914    3.957383    0.496442
 H   -3.200681    4.313395   -1.104321
 H   -0.614105    3.445605    0.059317
 H   -0.892840    3.921285   -1.621653
 H   -1.064241    5.112497   -0.328091
 H    6.727493    0.076958   -0.590680
 H    6.831535    2.317786    0.347593
 H    4.796734    3.380285    1.272772
 H    2.676784    2.163529    1.244063
 H    6.064272   -1.496827   -2.137793
 H    6.441624   -2.208231   -0.540569
 H    5.325748   -3.038852   -1.649392
 H    2.809217   -2.197168   -0.155475
