23 
2y2j_ligand_dft.xyz
 F    0.621827    1.850150   -0.001878
 C    1.644167    0.962495   -0.000893
 C    2.925106    1.491831   -0.000479
 C    4.011357    0.625402    0.000660
 C    3.801061   -0.751740    0.001356
 C    2.506508   -1.251852    0.000931
 C    1.391126   -0.408138   -0.000179
 C    0.038994   -1.087039   -0.000519
 O   -0.032033   -2.310158   -0.000737
 N   -1.060279   -0.301354   -0.000423
 C   -2.387179   -0.881606   -0.000375
 B   -3.521489    0.216457    0.000499
 O   -3.132837    1.531227    0.002413
 O   -4.818197   -0.214453   -0.000596
 H    3.048745    2.569132   -0.001073
 H    5.019203    1.028885    0.000985
 H    4.645104   -1.433701    0.002241
 H    2.310483   -2.318743    0.001376
 H   -0.968763    0.702270    0.000188
 H   -2.509129   -1.542346    0.868855
 H   -2.509520   -1.541731   -0.869978
 H   -3.843013    2.180891    0.003065
 H   -5.482453    0.482155    0.000063
