23 
2y2j_ligand_xtb.xyz
 F    0.589665    1.802183    0.415210
 C    1.611846    0.945886    0.170275
 C    2.882161    1.487509    0.091931
 C    3.961549    0.654978   -0.143214
 C    3.762373   -0.708930   -0.282574
 C    2.487399   -1.232631   -0.191384
 C    1.378169   -0.416624    0.024396
 C    0.043715   -1.099304    0.123186
 O   -0.032926   -2.264123    0.472014
 N   -1.027076   -0.371613   -0.237677
 C   -2.369447   -0.914963   -0.164168
 B   -3.484195    0.228253   -0.103366
 O   -3.083356    1.504147   -0.309514
 O   -4.761119   -0.143608    0.125790
 H    3.007558    2.551599    0.218781
 H    4.954610    1.072449   -0.209992
 H    4.602385   -1.363372   -0.457798
 H    2.312093   -2.294043   -0.280220
 H   -0.958803    0.607156   -0.460469
 H   -2.423275   -1.576723    0.705127
 H   -2.545429   -1.562938   -1.032268
 H   -3.741454    2.198715   -0.268129
 H   -5.431549    0.540683    0.151652
