23 
2y2k_ligand_dft.xyz
 F    2.133908   -2.195289   -0.633140
 C    2.303488   -0.902915   -0.353514
 C    3.544920   -0.335986   -0.599092
 C    3.730045    1.016085   -0.331700
 C    2.685976    1.789738    0.162421
 C    1.461015    1.180185    0.383038
 F    0.454518    1.937354    0.855088
 C    1.222625   -0.171010    0.141362
 C   -0.083281   -0.858123    0.466805
 O   -0.112398   -1.901596    1.097432
 N   -1.191953   -0.243930   -0.007100
 C   -2.515927   -0.758556    0.277575
 B   -3.654655    0.180627   -0.283256
 O   -3.268088    1.327851   -0.927631
 O   -4.948929   -0.208937   -0.088615
 H    4.341107   -0.957270   -0.992093
 H    4.697710    1.472222   -0.513189
 H    2.803914    2.844447    0.381562
 H   -1.115899    0.654009   -0.460039
 H   -2.643689   -0.891302    1.360789
 H   -2.623478   -1.766901   -0.143824
 H   -3.979688    1.887382   -1.254799
 H   -5.616717    0.388142   -0.440823
