39 
2y2n_ligand_xtb.xyz
 O   -3.977349   -0.840594    0.056591
 B   -2.737956   -1.090365    0.541491
 O   -2.464828   -0.831778    1.825852
 C   -1.698578   -1.814499   -0.486885
 C   -2.171665   -1.722439   -1.934523
 N   -0.314378   -1.329309   -0.451249
 C    0.471452   -1.116983    0.609540
 O    0.129465   -1.240710    1.780373
 C    1.871466   -0.730921    0.234648
 C    2.690279   -1.660952   -0.391331
 C    3.997403   -1.338059   -0.712607
 C    4.484738   -0.077977   -0.413569
 C    3.666535    0.853629    0.202398
 C    2.356898    0.542101    0.539121
 C    1.447281    1.552112    1.179447
 C    0.197358    1.769553    0.363923
 C    0.265327    1.842059   -1.022936
 C   -0.880818    2.021922   -1.775971
 C   -2.111252    2.143800   -1.152282
 C   -2.185102    2.091568    0.228307
 C   -1.039015    1.902740    0.980341
 H   -4.568212   -0.464137    0.710593
 H   -1.538907   -1.019800    2.078859
 H   -1.672902   -2.879346   -0.201781
 H   -3.190400   -2.088950   -2.003807
 H   -2.163180   -0.684635   -2.259097
 H   -1.536848   -2.311996   -2.595606
 H    0.100516   -1.181016   -1.359485
 H    2.303610   -2.645449   -0.614127
 H    4.630814   -2.066961   -1.195558
 H    5.502734    0.182067   -0.663411
 H    4.050580    1.838928    0.425752
 H    1.977831    2.501815    1.295298
 H    1.165126    1.198750    2.174209
 H    1.224103    1.749054   -1.515007
 H   -0.812766    2.068851   -2.853835
 H   -3.007088    2.279016   -1.739829
 H   -3.138767    2.193735    0.723434
 H   -1.107958    1.845785    2.056433
