36 
2y2p_ligand_dft.xyz
 F    3.285732   -2.129753    0.068001
 C    3.052946   -0.815481   -0.035229
 C    4.108029    0.020097   -0.361893
 C    3.855269    1.380392   -0.495942
 C    2.571319    1.878733   -0.309664
 C    1.509028    1.027431    0.013683
 C    0.146398    1.599799    0.208048
 C   -0.634414    1.258088    1.319579
 C   -1.906131    1.795394    1.481111
 C   -2.416950    2.689628    0.542155
 C   -1.645472    3.042005   -0.560462
 C   -0.374556    2.498388   -0.726407
 C    1.755773   -0.350433    0.149874
 C    0.665587   -1.324954    0.525846
 O    0.670022   -1.918329    1.594149
 N   -0.320879   -1.435214   -0.398033
 C   -1.625002   -1.991105   -0.055172
 C   -1.833207   -3.375954   -0.689596
 B   -2.753897   -0.949993   -0.479344
 O   -2.472528   -0.116016   -1.520253
 O   -3.986024   -0.877772    0.111657
 H    5.096845   -0.400696   -0.505260
 H    4.667586    2.056869   -0.742638
 H    2.387115    2.945435   -0.391504
 H   -0.241627    0.566663    2.059485
 H   -2.498557    1.520350    2.348629
 H   -3.408727    3.111856    0.674527
 H   -2.031945    3.739966   -1.297811
 H    0.213995    2.758745   -1.602016
 H   -0.298432   -0.797629   -1.182369
 H   -1.615668   -2.116657    1.034595
 H   -1.052463   -4.065468   -0.355420
 H   -2.807011   -3.794119   -0.408351
 H   -1.794587   -3.314402   -1.782287
 H   -3.163173    0.544010   -1.650981
 H   -4.072754   -1.485909    0.852327
