28 
2y34_ligand_dft.xyz
 O    4.444439    1.635680   -0.300968
 C    4.811915    0.502638   -0.137489
 O    6.121458    0.196251   -0.132316
 C    3.871393   -0.670566    0.078100
 N    2.517205   -0.206632    0.034623
 C    1.503578   -1.100154    0.165366
 O    1.716660   -2.291342    0.313141
 C    0.086848   -0.560480    0.097447
 N   -0.852200   -1.542152    0.036363
 C   -2.100200   -1.246426   -0.041559
Cl   -3.220428   -2.595664   -0.158377
 C   -2.624887    0.084022   -0.037097
 C   -0.281246    0.768432    0.090855
 O    0.669621    1.741996    0.159514
 C   -1.666177    1.123542    0.057383
 C   -2.116095    2.465450    0.123491
 C   -3.456383    2.753956    0.061949
 C   -4.405239    1.718197   -0.061940
 C   -3.999258    0.407754   -0.102627
 H    6.250017   -0.752046    0.008490
 H    4.098693   -1.150381    1.041546
 H    4.047833   -1.433578   -0.693128
 H    2.358060    0.788886   -0.049357
 H    0.361946    2.544189   -0.278573
 H   -1.410338    3.279357    0.262339
 H   -3.789556    3.785318    0.119935
 H   -5.461887    1.959916   -0.112392
 H   -4.725463   -0.392756   -0.181594
