108 
2y3p_ligand_xtb.xyz
 N   11.124695   -0.109936    0.433163
Cl   17.400877   -1.390540    1.494665
 C   -6.617528    2.161209   -0.108857
 O   -6.270624    1.373436    2.072496
 C   -6.979514    1.285025    0.928860
 O   -7.629992   -0.691823    2.875727
 C   -8.041016    0.394937    0.745496
 O  -11.517781   -2.771961   -2.643840
 C   -8.583028   -0.486373    1.853456
 O  -11.761898   -4.981309    0.224181
 C   -9.065414   -1.830585    1.295747
 C   -9.425425   -2.885761    2.347077
 O  -12.053463   -2.343102   -0.112649
 C  -10.619633   -3.747966    1.938812
 O  -10.774259   -0.259133   -1.450521
 C  -10.634184   -4.169560    0.456648
 O   -8.391753   -2.305469    0.167217
 C   -9.031674   -4.949166   -1.372213
 C   -9.407243   -5.006016    0.074797
 C   -7.953494   -5.895651   -1.780320
 C   -9.622820   -4.129902   -2.248297
 C  -10.696904   -3.230599   -1.881196
 C  -10.782125   -2.882671   -0.383754
 C   -9.706833   -1.850448   -0.036482
 C   -9.833700   -0.521407   -0.736749
 C   -8.716921    0.399542   -0.480912
 C   -8.357082    1.279762   -1.496085
 C   -7.305152    2.152522   -1.308120
 C   -5.467383    3.104159    0.126104
 O   -5.542706    4.177552   -0.786337
 C   -4.130628    2.366281   -0.037992
 O   -2.244435    5.601756   -0.236539
 C   -2.976144    3.334732    0.189758
 O   -0.672894    4.988432   -1.723242
 C   -3.146298    4.592809   -0.681420
 O   -1.768477    2.666104   -0.164449
 C   -4.570842    5.165114   -0.547581
 C   -4.801932    6.294824   -1.541972
 C   -1.022257    5.654992   -0.785913
 C   -0.167802    6.647076   -0.050618
 C   -0.640538    2.982967    0.491771
 O   -0.590696    3.743267    1.431712
 C    0.501754    2.272950   -0.088042
 O    9.775715   -0.894022   -1.232510
 C    1.744376    2.416602    0.406298
 C    2.890033    1.754352   -0.125037
 C    4.131951    1.861876    0.401291
 C    5.264591    1.178165   -0.122843
 C    6.506288    1.245206    0.412156
 C    7.618873    0.535312   -0.122299
 C    8.863188    0.559047    0.395486
 C    9.941991   -0.212054   -0.215806
 C   12.389590   -0.676072    0.205746
 O   12.024233   -1.966502   -1.788660
 C   12.784447   -1.517794   -0.808736
 O   18.115345   -3.196041   -0.753890
 C   14.163128   -1.958150   -0.808721
 O   14.596290   -0.690256    1.194053
 C   14.669510   -2.812175   -1.796083
 O   12.989138    0.499369    2.141095
 C   15.979515   -3.217787   -1.773243
 O   -9.697390   -2.224891    3.573172
 C   16.840585   -2.785729   -0.757577
 C   16.343824   -1.934631    0.228492
 C   15.015156   -1.516746    0.211162
 C   13.317907   -0.244887    1.238658
 H   11.170579    0.472507    1.269640
 H   -6.583380    0.677468    2.680509
 H   -8.075545   -1.175283    3.586247
 H   -9.470339    0.013660    2.283618
 H  -12.532522   -4.396278    0.168635
 H   -8.528975   -3.515417    2.480864
 H  -12.333206   -1.896108   -0.934814
 H  -10.654316   -4.648155    2.557588
 H  -11.531737   -3.168031    2.108728
 H   -9.642269   -6.040914    0.339444
 H   -8.535400   -4.700620    0.654143
 H   -8.257924   -6.922401   -1.580812
 H   -7.052676   -5.699930   -1.200111
 H   -7.720543   -5.795588   -2.836050
 H   -9.372437   -4.160099   -3.298837
 H   -8.911650    1.255196   -2.420633
 H   -7.012418    2.848788   -2.076022
 H   -5.529709    3.489837    1.157585
 H   -4.070562    1.541711    0.670480
 H   -4.063710    1.971264   -1.053070
 H   -2.914157    3.646812    1.241654
 H   -2.922863    4.335877   -1.724931
 H   -4.669909    5.546464    0.483833
 H   -5.801213    6.698158   -1.407158
 H   -4.713802    5.914166   -2.555986
 H   -4.069602    7.080956   -1.384940
 H   -0.743416    7.536566    0.186476
 H    0.139487    6.176823    0.882724
 H    0.708567    6.894288   -0.641115
 H    0.286054    1.649239   -0.941167
 H    1.884580    3.063737    1.263131
 H    2.733119    1.128198   -0.993808
 H    4.288165    2.486381    1.271693
 H    5.103679    0.563477   -0.999438
 H    6.679915    1.854485    1.289956
 H    7.452345   -0.071211   -1.003918
 H    9.095314    1.142066    1.274783
 H   11.075667   -1.608516   -1.692955
 H   18.569474   -2.806786    0.012762
 H   13.999665   -3.140800   -2.573904
 H   16.378462   -3.874255   -2.528722
 H  -10.192509   -2.826220    4.140643
