64 
2y4m_ligand_xtb.xyz
 N    2.928234    3.859724    0.900018
 C    2.547103    2.915574    0.003868
 N    1.406411    3.143249   -0.700923
 N    3.323823    1.884199   -0.180682
 C    2.874608    1.011987   -1.108373
 C    1.712620    1.154368   -1.866184
 C    0.852027    2.283948   -1.673820
 O   -0.198865    2.569565   -2.197128
 N    1.552300    0.052158   -2.664277
 C    2.573567   -0.708022   -2.409336
 N    3.428891   -0.178670   -1.482473
 C    4.504583   -0.965287   -0.903956
 C    5.131120   -0.324280    0.342798
 O    6.436838   -0.804127    0.493301
 C    4.188325   -0.823109    1.460547
 O    4.944820   -1.084436    2.617165
 C    3.529943   -2.091243    0.856181
 O    4.009333   -2.202093   -0.476011
 C    1.997595   -2.050950    0.900789
 O    1.547749   -0.773006    0.460666
 P    0.184676   -0.197446    1.016816
 O   -0.419770   -0.972951    2.096386
 O    0.573372    1.289599    1.397743
 O   -0.689416    0.066416   -0.295673
 P   -1.186431   -1.197089   -1.188091
 O   -0.635238   -2.445798   -0.668086
 O   -0.947593   -0.791822   -2.659524
 O   -2.777672   -1.078911   -1.148658
 C   -3.431240   -1.459559    0.035124
 O   -3.177247   -0.592736    1.084464
 C   -3.596688    0.753120    0.861239
 C   -3.258878    1.532901    2.136131
 O   -1.911439    1.392044    2.518533
 C   -4.929947   -1.537602   -0.303330
 O   -5.691973   -2.027657    0.775141
 C   -5.432695   -0.121283   -0.613676
 O   -6.811257   -0.098630   -0.874989
 C   -5.101433    0.799407    0.574308
 O   -5.483031    2.121948    0.302252
 H    2.231146    4.474955    1.283083
 H    3.685632    3.596184    1.507512
 H    0.839880    3.953432   -0.480095
 H    2.747924   -1.665596   -2.856659
 H    5.261492   -1.165377   -1.671241
 H    5.131322    0.768581    0.275850
 H    6.544787   -1.055131    1.421685
 H    3.423590   -0.062070    1.651945
 H    4.351188   -1.316347    3.337556
 H    3.867447   -2.992738    1.382245
 H    1.624725   -2.230443    1.912354
 H    1.585208   -2.811074    0.231971
 H   -0.214017    1.673057    1.822402
 H   -0.043193   -0.409316   -2.844163
 H   -3.040427   -2.430549    0.375766
 H   -3.051950    1.175247    0.006802
 H   -3.912415    1.183095    2.945237
 H   -3.443098    2.593825    1.960077
 H   -1.738821    0.438251    2.607202
 H   -5.052801   -2.177904   -1.189147
 H   -5.267353   -2.812659    1.137217
 H   -4.933442    0.249934   -1.513965
 H   -7.240295   -0.646307   -0.203600
 H   -5.643880    0.423336    1.459640
 H   -6.276483    2.079952   -0.250715
