51 
2y57_ligand_dft.xyz
 O    2.358786    2.327400    0.020127
 C    2.677825    1.185341    0.254068
 C    4.026892    0.609737    0.053641
 C    4.317980   -0.730602    0.324738
 C    5.599546   -1.218049    0.103149
 C    6.591500   -0.370030   -0.385598
 C    6.304412    0.966795   -0.653066
 C    5.024095    1.458394   -0.435551
 O    1.782654    0.271707    0.725389
 C    0.446124    0.749403    0.910126
 C   -0.292345    0.834729   -0.433937
 C   -0.781471   -0.524874   -0.936198
 C    0.291245   -1.624568   -1.007762
 C    0.302151   -2.271664    0.401348
 C   -0.753875   -1.496113    1.203761
 C   -0.239986   -0.219458    1.878320
 N   -1.722601   -1.064716    0.123892
 C   -2.672836   -2.125383   -0.338806
 C   -3.753374   -1.530571   -1.251640
 C   -4.310031   -0.242882   -0.682599
 C   -4.018950    0.985902   -1.282593
 C   -4.467713    2.177358   -0.716071
 C   -5.207797    2.152898    0.462211
 C   -5.503987    0.934075    1.068771
 C   -5.057067   -0.255252    0.501168
 H    3.547523   -1.386372    0.714990
 H    5.827268   -2.257976    0.313675
 H    7.592694   -0.753435   -0.555881
 H    7.079274    1.626103   -1.030074
 H    4.781959    2.496381   -0.637240
 H    0.498695    1.747292    1.350460
 H   -1.155367    1.505921   -0.331498
 H    0.361589    1.289487   -1.180927
 H   -1.338328   -0.403990   -1.865929
 H    0.038902   -2.358956   -1.776405
 H    1.258882   -1.196131   -1.269004
 H    0.044297   -3.332363    0.350607
 H    1.275246   -2.189890    0.884508
 H   -1.295833   -2.114439    1.922510
 H   -1.082398    0.292097    2.361330
 H    0.459961   -0.493113    2.671899
 H   -2.317732   -0.298116    0.462987
 H   -3.120125   -2.542110    0.567500
 H   -2.101474   -2.911715   -0.834939
 H   -3.352625   -1.361461   -2.255775
 H   -4.537102   -2.288079   -1.355812
 H   -3.458629    1.012561   -2.214854
 H   -4.248041    3.122318   -1.202618
 H   -5.562648    3.079196    0.901934
 H   -6.093224    0.908585    1.979905
 H   -5.310102   -1.202761    0.972406
