25 
2y59_ligand_xtb.xyz
 O   -0.838921   -0.190256    1.356527
 C   -0.469449    0.056090    0.220015
 N   -1.237020    0.005377   -0.873773
 C   -2.565401   -0.610645   -0.895626
 B   -3.689331    0.136036    0.034774
 O   -4.905396    0.443739   -0.474149
 O   -3.461535    0.434735    1.312533
 C    0.926162    0.580026   -0.011321
 C    2.030148   -0.270839   -0.020892
 N    1.827450   -1.697363   -0.000443
 O    2.761395   -2.394779    0.322449
 O    0.736817   -2.106871   -0.341399
 C    1.147386    1.949651   -0.071298
 C    2.437843    2.448483   -0.146354
 C    3.527466    1.589526   -0.147285
 C    3.326849    0.224204   -0.082460
 H   -0.787136    0.138137   -1.765904
 H   -2.462475   -1.645537   -0.546830
 H   -2.872974   -0.652964   -1.941364
 H   -5.065970    0.209692   -1.385789
 H   -2.581244    0.174607    1.631324
 H    0.302451    2.620789   -0.045554
 H    2.594386    3.515202   -0.195181
 H    4.530024    1.984399   -0.197505
 H    4.151678   -0.472101   -0.083923
