68 
2y5f_ligand_xtb.xyz
Cl    5.434456   -3.047244   -0.469387
 C    3.752086   -3.210325   -0.206414
 C    3.078706   -4.341064    0.143176
 C    1.696600   -4.125856    0.282645
 S    2.693877   -1.842898   -0.374805
 C    1.315559   -2.829594    0.040818
 C    0.023300   -2.237777    0.128303
 C   -1.136447   -2.705818    0.661286
 O   -0.108444   -0.947816   -0.310614
 N   -1.480081   -0.604424   -0.104392
 C   -2.067973   -1.622126    0.638447
 C   -3.257570   -1.446298    1.256417
 N   -3.961824   -1.050708   -1.454720
 C   -4.054234    0.377739   -1.190553
 C   -5.568889    0.684732   -1.244058
 C   -6.233827   -0.680372   -1.426048
 C   -5.153647   -1.467645   -2.157032
 C   -3.432633    0.788135    0.145683
 C   -3.754288   -0.042079    1.377930
 C   -2.735655    0.513504    2.381201
 O   -2.803531    0.474564    3.595152
 C   -1.868556    0.824329    0.174354
 O   -1.281983    1.680176   -0.566132
 N   -1.683258    0.986880    1.676263
 C   -0.530263    1.478989    2.406887
 C    0.798901    1.371521    1.652809
 C    0.979801    2.600820    0.765846
 N    1.973004    2.450030   -0.333956
 C    3.286052    1.965744    0.153769
 C    3.998476    2.857340    1.170918
 O    4.520093    3.998990    0.524490
 C    1.448982    1.479927   -1.361162
 C    1.635659    2.150552   -2.710754
 C    1.321859    3.595058   -2.353143
 C    2.102786    3.755856   -1.057210
 H    3.558960   -5.290304    0.293848
 H    0.998967   -4.897881    0.547118
 H   -1.301457   -3.663850    1.107842
 H   -3.736590   -2.245268    1.791838
 H   -3.100489   -1.302129   -1.920234
 H   -3.525869    0.971277   -1.956205
 H   -5.790775    1.330010   -2.095070
 H   -5.911645    1.185802   -0.341242
 H   -7.170173   -0.625945   -1.978857
 H   -6.415677   -1.141096   -0.456075
 H   -5.150725   -1.200781   -3.230092
 H   -5.276956   -2.549736   -2.070630
 H   -3.724530    1.830273    0.322411
 H   -4.780198    0.021574    1.733933
 H   -0.703838    2.526295    2.692636
 H   -0.487319    0.892832    3.332691
 H    0.784850    0.471333    1.042209
 H    1.605588    1.285809    2.384723
 H    0.006135    2.764201    0.277405
 H    1.252749    3.463203    1.375421
 H    3.133028    0.983818    0.601864
 H    3.941270    1.855388   -0.713101
 H    4.812947    2.261320    1.604577
 H    3.321811    3.148277    1.983466
 H    5.058773    4.501806    1.143346
 H    1.948885    0.520165   -1.277346
 H    0.361673    1.354651   -1.171938
 H    2.657756    2.053521   -3.084749
 H    0.951808    1.738718   -3.447162
 H    0.252169    3.696512   -2.173980
 H    1.634725    4.314531   -3.106180
 H    1.736904    4.570732   -0.436670
 H    3.156785    3.932933   -1.269591
