60 
2y5g_ligand_xtb.xyz
Cl    7.039013   -0.493995    0.128919
 C    5.373287   -0.621586    0.515322
 C    4.732562   -0.066971    1.578749
 C    3.359890   -0.368460    1.602663
 S    4.295660   -1.547221   -0.501120
 C    2.954520   -1.168850    0.556175
 C    1.649567   -1.603005    0.250639
 O    0.567402   -1.016037    0.927508
 C    1.116585   -2.454802   -0.689578
 N   -0.224099   -2.438528   -0.651003
 C   -0.535374   -1.558913    0.327822
 C   -1.811668   -1.202266    0.632030
 N   -2.825880   -1.886960   -0.132604
 C   -3.603014   -1.098752   -1.147983
 C   -4.724138   -2.067825   -1.527088
 C   -4.977360   -2.929030   -0.276747
 C   -3.844862   -2.576816    0.686890
 C   -4.091548    0.263507   -0.622808
 C   -4.623699    0.342251    0.767988
 C   -3.934745    1.242533    1.516641
 O   -3.948646    1.650354    2.676712
 C   -2.925107    1.248632   -0.602757
 O   -2.193953    1.476730   -1.574903
 N   -2.860493    1.784674    0.605553
 C   -1.957021    2.757374    1.149968
 C   -0.473566    2.439456    0.907345
 C   -0.061182    3.036585   -0.438028
 N    1.133165    2.431766   -1.097963
 C    2.284496    2.392056   -0.184128
 C    1.465114    3.250294   -2.274463
 C    0.812594    1.069420   -1.554914
 H    5.231719    0.528115    2.321519
 H    2.686322   -0.050315    2.377358
 H    1.654897   -3.073070   -1.380574
 H   -2.112648   -0.559798    1.431176
 H   -2.263936   -2.573487   -0.663861
 H   -2.936453   -0.891609   -1.992127
 H   -5.618738   -1.530353   -1.832610
 H   -4.408187   -2.695473   -2.361658
 H   -5.940981   -2.697497    0.171814
 H   -4.970576   -3.988662   -0.530051
 H   -4.176586   -1.850323    1.433599
 H   -3.401227   -3.441118    1.179368
 H   -4.803699    0.630809   -1.377719
 H   -5.552618   -0.103631    1.066639
 H   -2.192417    3.758409    0.765531
 H   -2.194088    2.740118    2.224363
 H    0.118896    2.861578    1.720173
 H   -0.360221    1.356467    0.922370
 H   -0.904256    2.883322   -1.123895
 H    0.127340    4.105333   -0.314407
 H    3.161714    2.007020   -0.702120
 H    2.499772    3.391532    0.189827
 H    2.074517    1.732786    0.655768
 H    2.313894    2.818313   -2.802568
 H    1.719176    4.265478   -1.973070
 H    0.610226    3.283627   -2.947578
 H    0.691937    0.421083   -0.696474
 H   -0.130529    1.072246   -2.101196
 H    1.613709    0.678530   -2.178147
