60 
2y5g_ligand_dft.xyz
Cl    6.337339   -1.878360    0.187028
 C    4.659234   -1.543996    0.442348
 C    4.082908   -0.991058    1.540356
 C    2.666683   -0.878997    1.420306
 S    3.484421   -1.954098   -0.784630
 C    2.172500   -1.366235    0.223189
 C    0.827865   -1.337553   -0.229822
 O   -0.069514   -0.597779    0.560176
 C    0.225036   -1.540010   -1.443540
 N   -1.005092   -1.008973   -1.524828
 C   -1.269470   -0.498826   -0.195407
 C   -2.414914   -1.362936    0.474492
 N   -3.249146   -1.674072   -0.734276
 C   -3.934324   -0.348969   -1.073387
 C   -5.427038   -0.697071   -1.160239
 C   -5.589351   -2.010588   -0.382112
 C   -4.274214   -2.743077   -0.646930
 C   -3.477432    0.550331    0.064203
 C   -3.245627   -0.353948    1.276356
 C   -2.375878    0.515426    2.188923
 O   -2.339308    0.457998    3.409509
 C   -1.951298    0.971946   -0.112446
 O   -1.646739    1.850317   -1.010400
 N   -1.709523    1.354850    1.365824
 C   -0.793586    2.344695    1.890872
 C    0.603198    2.345723    1.248934
 C    0.612498    3.253080    0.023905
 N    1.626507    2.880223   -1.042962
 C    3.004823    2.828826   -0.482030
 C    1.543978    3.916010   -2.109217
 C    1.281292    1.547429   -1.653238
 H    4.647193   -0.685350    2.413822
 H    2.016906   -0.497009    2.197553
 H    0.673373   -2.037384   -2.298776
 H   -2.066846   -2.277791    0.954546
 H   -2.464388   -1.802630   -1.463745
 H   -3.520389    0.009007   -2.020046
 H   -6.045620    0.107219   -0.754899
 H   -5.716077   -0.843383   -2.206591
 H   -5.709643   -1.818720    0.687696
 H   -6.450244   -2.596607   -0.713511
 H   -3.991471   -3.459355    0.126068
 H   -4.296823   -3.257993   -1.612280
 H   -4.103317    1.431331    0.212629
 H   -4.096659   -0.770614    1.818251
 H   -1.240995    3.345418    1.799325
 H   -0.709576    2.128194    2.959323
 H    1.340326    2.685392    1.985407
 H    0.838705    1.311781    0.991073
 H   -0.365085    3.163229   -0.467401
 H    0.835281    4.290040    0.297799
 H    3.705870    2.596547   -1.286089
 H    3.246132    3.796207   -0.035713
 H    3.049414    2.040230    0.270817
 H    2.275957    3.689459   -2.886476
 H    1.750491    4.897119   -1.677633
 H    0.535885    3.892644   -2.525351
 H    1.606863    0.763415   -0.975127
 H    0.188063    1.491213   -1.774116
 H    1.825172    1.456387   -2.595622
