55 
2y67_ligand_xtb.xyz
 O   -2.634915   -1.539729    0.175317
 C   -2.417696   -2.574356   -0.413698
 O   -2.971654   -2.885156   -1.572372
 C   -1.522985   -3.678810    0.094352
 C   -0.671125   -3.279284    1.294658
 C    0.001881   -0.911899    0.666413
 O   -0.501760   -0.342841    1.750189
 O    0.116301   -0.356953   -0.396805
 N    1.242484   -2.827258   -0.197208
 O    3.434911   -3.408303   -1.218027
 C    3.197008   -0.354820   -1.321973
 C    3.472774    0.997687   -1.371917
 C    3.318574   -1.021077   -0.118525
 C    3.726989   -0.369371    1.026383
 C    4.006579    0.986910    0.972340
 C    3.872017    1.677721   -0.224374
 C    4.066912    3.172895   -0.312267
 C    1.720888    3.508700   -0.378553
 C    1.510182    3.238301    0.973049
 C    0.244405    2.944254    1.428073
 C    0.627904    3.518423   -1.247772
 C   -0.625879    3.178829   -0.798492
 C   -0.838912    2.857659    0.546345
 C   -2.105274    2.389201    1.052772
 S   -3.001627    1.146194   -1.277350
 C   -4.364831    0.046882   -0.997755
 N   -4.908716    0.305956    0.222654
 C    0.488872   -2.330868    0.927811
 C   -4.235022    1.161838    1.074753
 C   -3.053620    1.702443    0.382963
 O   -4.574077    1.397977    2.205834
 S    2.905244   -2.763321   -0.056961
 O    3.229533   -3.270124    1.243470
 O   -4.747920   -0.775842   -1.790051
 O    2.937555    3.779726   -0.921694
 H   -3.610326   -2.201861   -1.877668
 H   -0.894674   -4.028680   -0.725149
 H   -2.182282   -4.505266    0.372588
 H   -1.289785   -2.786154    2.045627
 H   -0.233947   -4.179768    1.724608
 H   -0.876349    0.532529    1.541156
 H    0.934917   -2.435320   -1.077257
 H    2.897590   -0.901842   -2.201285
 H    3.367844    1.541881   -2.298181
 H    3.823035   -0.932852    1.941109
 H    4.328430    1.504227    1.864453
 H    4.274517    3.607801    0.672609
 H    4.899348    3.416656   -0.979101
 H    2.328061    3.260751    1.674580
 H    0.094398    2.737836    2.478458
 H    0.797136    3.768119   -2.282898
 H   -1.454896    3.171585   -1.487826
 H   -2.301155    2.537082    2.110059
 H   -5.690828   -0.242172    0.557560
 H    1.173059   -2.299002    1.783003
