55 
2y67_ligand_dft.xyz
 O   -2.492601   -2.083108    0.531222
 C   -2.034881   -2.973161   -0.158285
 O   -2.533975   -3.328060   -1.339433
 C   -0.864957   -3.843599    0.246530
 C   -0.002339   -3.241835    1.353871
 C    0.334902   -0.955922    0.290998
 O   -0.095536   -0.124141    1.234700
 O    0.200697   -0.771439   -0.898217
 N    1.914052   -2.761766   -0.124705
 O    4.131925   -2.908509   -1.233702
 C    3.400430    0.045553   -1.283134
 C    3.367501    1.430184   -1.309735
 C    3.619726   -0.605026   -0.069666
 C    3.818302    0.109655    1.104738
 C    3.783039    1.501590    1.063396
 C    3.553170    2.168060   -0.136405
 C    3.462966    3.676018   -0.194271
 C    1.086825    3.715132   -0.381902
 C    0.830812    3.512034    0.975599
 C   -0.432893    3.107121    1.381293
 C    0.063520    3.535323   -1.314961
 C   -1.185918    3.105623   -0.903987
 C   -1.452742    2.857670    0.452290
 C   -2.709441    2.282049    0.932998
 S   -3.228754    0.614070   -1.263231
 C   -4.491316   -0.597731   -0.917376
 N   -5.145621   -0.274938    0.243999
 C    1.014689   -2.189302    0.873521
 C   -4.644908    0.769796    1.015505
 C   -3.482276    1.380494    0.309442
 O   -5.085836    1.091700    2.092900
 S    3.537943   -2.390697   -0.016179
 O    3.976279   -2.797702    1.306628
 O   -4.740914   -1.548703   -1.625138
 O    2.290533    4.105765   -0.878616
 H   -3.309147   -2.760610   -1.538565
 H   -0.275767   -4.099232   -0.639308
 H   -1.296901   -4.789666    0.595633
 H   -0.644809   -2.791591    2.116189
 H    0.583634   -4.036560    1.823095
 H   -0.557028    0.610202    0.792197
 H    1.582385   -2.592291   -1.073189
 H    3.255578   -0.528314   -2.192252
 H    3.178177    1.949028   -2.244406
 H    3.995247   -0.420194    2.034459
 H    3.925375    2.066859    1.980841
 H    3.523435    4.115988    0.808824
 H    4.281967    4.094176   -0.784526
 H    1.605728    3.658869    1.718537
 H   -0.621374    2.938481    2.438067
 H    0.275882    3.716610   -2.362733
 H   -1.967083    2.979111   -1.646956
 H   -3.022706    2.530881    1.945904
 H   -5.849731   -0.899791    0.614010
 H    1.601263   -1.883752    1.744195
