51 
2y68_ligand_dft.xyz
 O    7.015769   -4.510131   -0.651306
 C    7.639384   -3.696043    0.225800
 O    8.291530   -4.140311    1.130825
 C    7.454291   -2.222664    0.035856
 C    6.298730   -1.693147   -0.383051
 C    7.139124    0.749120   -0.346617
 O    7.251242    1.700493   -1.259658
 O    7.902453    0.636728    0.578250
 N    4.779777    0.040129   -0.782919
 C    4.278135    1.301614   -1.107921
 O    4.727190    1.943362   -2.049450
 C    3.110254    1.722102   -0.302975
 C    2.469831    0.819153    0.557464
 C    2.621239    3.033149   -0.355683
 C    1.539163    3.429629    0.416154
 C    0.928569    2.512548    1.259513
 C    1.390332    1.197500    1.343552
 C    0.750031    0.191494    2.286338
 N   -0.625991    0.490194    2.613378
 C   -1.670761    0.226207    1.749243
 C   -1.463596   -0.061867    0.391092
 C   -2.546170   -0.295863   -0.439515
 C   -2.992672    0.271211    2.228874
 C   -4.061739    0.033926    1.389360
 C   -3.869097   -0.258416    0.026679
 C   -4.932898   -0.521052   -0.924350
 C   -6.270916   -0.572719   -0.782158
 S   -7.281232   -0.338809    0.648792
 C   -8.771377   -0.622446   -0.256137
 S  -10.273137   -0.584391    0.393690
 N   -8.460726   -0.873582   -1.560725
 C   -7.122055   -0.871793   -1.960102
 F    3.193076    3.939657   -1.141499
 O   -6.761537   -1.085659   -3.095276
 C    5.996717   -0.260441   -0.531877
 H    6.665713   -3.999510   -1.393549
 H    8.280644   -1.603038    0.365781
 H    5.445506   -2.325114   -0.625146
 H    6.461723    1.743556   -1.848124
 H    2.832272   -0.204204    0.587496
 H    1.190439    4.453366    0.341095
 H    0.070517    2.810113    1.853988
 H    1.309046    0.184487    3.227921
 H    0.846631   -0.817557    1.857198
 H   -0.860469    0.455905    3.592934
 H   -0.461361   -0.089084   -0.020907
 H   -2.362159   -0.515684   -1.487894
 H   -3.173727    0.497319    3.276627
 H   -5.059066    0.080298    1.812512
 H   -4.610158   -0.716306   -1.946988
 H   -9.195037   -1.060503   -2.231611
