56 
2y6d_ligand_dft.xyz
 N    0.018700    2.090688   -0.434738
 S   -1.376046    3.002930   -0.610462
 C    0.905136    2.028595   -1.600592
 C    0.768347    2.293049    0.805954
 C   -2.478818    2.179178    0.549596
 O   -1.196308    4.364531   -0.124841
 O   -1.840897    2.773564   -1.972863
 C    1.844966    0.849185   -1.423428
 C    1.733745    1.130460    1.003802
 C   -2.484099    0.646892    0.451554
 N    2.577535    0.944431   -0.165346
 C   -3.290463    0.106577   -0.727534
 N   -2.973009    0.075647    1.698139
 C    3.773868    0.255821   -0.058021
 C   -3.173617   -1.417126   -0.852325
 C   -2.185574   -0.033937    2.797784
 O   -4.336591    0.175640    1.934687
 C    4.317177   -0.140194    1.183285
 N    4.411934   -0.007254   -1.207703
 C   -4.321316   -2.056710   -1.626362
 O   -0.978694    0.150124    2.797522
 C    5.545792   -0.774418    1.204601
 C    5.590136   -0.620650   -1.174448
 C   -5.649533   -2.130994   -0.909788
 C    6.204334   -1.016035    0.003932
 N   -5.763689   -1.676092    0.344800
 N   -6.646704   -2.688685   -1.608682
Br    7.882291   -1.886293   -0.035140
 C   -6.958350   -1.796704    0.936607
 C   -7.824868   -2.802215   -1.004182
 C   -8.044475   -2.368004    0.299503
 H    0.298597    1.889227   -2.496133
 H    1.481359    2.959802   -1.701971
 H    1.311264    3.247811    0.777478
 H    0.083892    2.298524    1.656422
 H   -2.159802    2.497433    1.544463
 H   -3.465049    2.611700    0.356382
 H    2.566054    0.824724   -2.238506
 H    1.259385   -0.084450   -1.451667
 H    1.159453    0.223279    1.244966
 H    2.352603    1.380370    1.867556
 H   -1.447618    0.307341    0.377610
 H   -4.336675    0.408470   -0.601914
 H   -2.935702    0.592924   -1.640640
 H   -3.114477   -1.873977    0.142206
 H   -2.232022   -1.662150   -1.356319
 H   -2.765969   -0.325439    3.687641
 H   -4.730534   -0.564297    1.411695
 H    3.792170    0.017743    2.116018
 H   -4.491316   -1.534608   -2.576182
 H   -4.064914   -3.086016   -1.904677
 H    5.983441   -1.090013    2.145947
 H    6.066673   -0.807301   -2.133957
 H   -7.030745   -1.413842    1.951938
 H   -8.623200   -3.257347   -1.586516
 H   -9.008100   -2.465165    0.784510
