55 
2y76_ligand_xtb.xyz
 C    0.573982    1.396609    1.396114
 C    1.801563    1.667177    0.791281
 C    3.107416    1.694132    1.367059
 C    4.064593    2.017078    0.474842
 S    3.454210    2.299383   -1.121348
 C    1.831023    1.979218   -0.579474
 C    0.668739    2.024634   -1.333837
 C   -0.531160    1.763397   -0.708465
 C   -0.588615    1.446890    0.654771
 C   -1.928899    1.203949    1.299748
 C   -2.773254    0.204293    0.546884
 C   -4.237595    0.548643    0.380625
 C   -4.367708    1.925432   -0.273951
 O   -3.772324    2.271826   -1.257117
 O   -5.287283    2.692663    0.322872
 O   -4.813734    0.514740    1.666663
 C   -4.956445   -0.419718   -0.581771
 C   -4.567368   -1.851188   -0.245242
 O   -5.344882   -2.741905   -1.004630
 C   -3.072873   -2.040907   -0.545305
 O   -2.658258   -3.339183   -0.168916
 C   -2.265236   -0.964084    0.148401
 O   -0.967164   -1.264428    0.454858
 C   -0.153004   -1.724013   -0.619928
 C    1.290219   -1.592838   -0.218939
 C    2.244421   -1.257654   -1.157236
 C    3.582122   -1.154086   -0.777635
 C    4.721715   -0.818843   -1.569121
 C    5.862980   -0.792717   -0.852575
 S    5.636792   -1.172327    0.823486
 C    3.928505   -1.379333    0.567731
 C    2.972333   -1.709660    1.515006
 C    1.660158   -1.819436    1.110453
 H    0.546369    1.151364    2.447512
 H    3.301960    1.481325    2.403097
 H    5.120424    2.110326    0.640299
 H    0.707147    2.270226   -2.384093
 H   -1.450785    1.811005   -1.272137
 H   -1.780274    0.842084    2.319868
 H   -2.472960    2.150220    1.363415
 H   -5.371611    3.541559   -0.139942
 H   -5.638915    1.015568    1.656268
 H   -4.675502   -0.202524   -1.612880
 H   -6.037342   -0.308261   -0.481830
 H   -4.736395   -2.024154    0.831646
 H   -4.888207   -3.593494   -1.007622
 H   -2.929682   -1.998007   -1.633975
 H   -2.511903   -3.347980    0.784865
 H   -0.385806   -2.775134   -0.846816
 H   -0.345436   -1.121948   -1.516149
 H    1.966674   -1.070404   -2.184066
 H    4.667441   -0.603360   -2.620962
 H    6.854716   -0.569626   -1.195116
 H    3.255520   -1.876544    2.542731
 H    0.892046   -2.066691    1.825223
