49 
2y77_ligand_xtb.xyz
 C   -1.096063   -1.180789    0.216163
 C   -1.563088   -2.484232   -0.395523
 O   -0.750203   -3.574223   -0.005273
 C   -3.027592   -2.764807   -0.024471
 O   -3.521271   -3.850641   -0.767576
 C   -3.867193   -1.530307   -0.310178
 C   -3.437085   -0.399080    0.636527
 C   -4.061604    0.905631    0.141387
 O   -3.776738    1.196018   -1.119584
 O   -4.772492    1.579635    0.842555
 O   -3.907171   -0.643027    1.943899
 C   -1.929503   -0.245725    0.680184
 C    2.800796    0.385203    0.006954
 C    4.199169    0.548644    0.228855
 C    4.902561    1.682494    0.638963
 C    6.269675    1.614258    0.787434
 C    6.959969    0.429339    0.532296
 C    6.290114   -0.705943    0.124480
 C    4.913286   -0.638873   -0.022547
 S    3.846551   -1.924949   -0.512546
 C    2.466843   -0.863859   -0.388376
 C    1.103684   -1.387951   -0.693188
 O    0.251015   -1.004109    0.381527
 C   -1.407638    1.003379    1.351770
 C   -1.370827    2.154930    0.402532
 C   -1.997486    3.357664    0.498911
 C   -1.747639    4.206078   -0.605848
 C   -0.934829    3.633650   -1.527047
 S   -0.453793    2.046260   -1.066128
 H   -1.482998   -2.446902   -1.490823
 H   -0.654923   -3.557502    0.954940
 H   -3.081646   -2.985523    1.055176
 H   -2.842261   -4.537861   -0.766167
 H   -3.729770   -1.228100   -1.347925
 H   -4.917632   -1.767596   -0.141290
 H   -4.187537    2.037866   -1.377594
 H   -4.535374    0.063936    2.166476
 H    2.080588    1.172217    0.138603
 H    4.366699    2.599000    0.835736
 H    6.819349    2.487472    1.105937
 H    8.031945    0.400136    0.656681
 H    6.817053   -1.626164   -0.074144
 H    1.134413   -2.477625   -0.803910
 H    0.732691   -0.944521   -1.629314
 H   -2.050005    1.257483    2.197395
 H   -0.401705    0.796861    1.723467
 H   -2.624211    3.630826    1.329316
 H   -2.157508    5.195757   -0.701671
 H   -0.579723    4.041821   -2.452154
