27 
2y7i_ligand_xtb.xyz
 N    0.709920   -1.151703    0.363737
 C    1.506789   -0.165045   -0.369640
 C    2.994250   -0.345689   -0.045164
 O    3.379293   -1.071040    0.830165
 C    1.105156    1.278499   -0.032113
 C   -0.363956    1.577882   -0.340658
 C   -1.290899    1.228482    0.836311
 N   -2.608652    0.805226    0.400618
 C   -2.874190   -0.403079   -0.091874
 N   -4.126521   -0.673607   -0.486570
 N   -1.932668   -1.322551   -0.189722
 O    3.775588    0.385504   -0.824542
 H   -2.186663   -2.238665   -0.519594
 H    1.013716   -2.081783    0.081915
 H    0.952207   -1.083423    1.351975
 H    1.366674   -0.333592   -1.442480
 H    1.742090    1.932717   -0.626725
 H    1.309980    1.481057    1.020635
 H   -0.470131    2.635220   -0.580634
 H   -0.665862    1.011426   -1.222560
 H   -1.422514    2.096368    1.482067
 H   -0.857038    0.428599    1.436841
 H   -3.334603    1.503574    0.365732
 H   -4.869320   -0.005534   -0.375584
 H   -4.375617   -1.586601   -0.825874
 H   -0.913663   -1.169386    0.053651
 H    4.714242    0.266457   -0.601964
