16 
2y7k_ligand_xtb.xyz
 C    1.709962   -0.436339   -0.000583
 O    2.450779    0.674634    0.005088
 O    2.228398   -1.522177   -0.005332
 C    0.221163   -0.278002   -0.000198
 C   -0.462968    0.945737   -0.001277
 C   -1.852743    0.957635   -0.002614
 C   -2.571418   -0.222542    0.000177
 C   -1.906044   -1.437850    0.002852
 C   -0.526773   -1.455185    0.001405
 O    0.230507    2.127516   -0.000631
 H    1.902086    1.476746    0.006966
 H   -2.369869    1.908664   -0.005398
 H   -3.650266   -0.188878    0.000539
 H   -2.461683   -2.362057    0.006054
 H    0.021911   -2.384715    0.001994
 H   -0.386733    2.869736   -0.001729
