16 
2y7p_ligand_dft.xyz
 C    1.729285   -0.178087    0.103340
 O    2.351605   -1.146611   -0.614698
 O    2.368820    0.598511    0.756530
 C    0.230360   -0.214534    0.036049
 C   -0.517211    0.967009   -0.093160
 C   -1.912263    0.902472   -0.098635
 C   -2.561915   -0.318165    0.037570
 C   -1.831995   -1.494893    0.171970
 C   -0.443901   -1.431901    0.163698
 O    0.149557    2.130846   -0.245404
 H    1.708751   -1.588795   -1.185167
 H   -2.489953    1.817337   -0.210461
 H   -3.647294   -0.345267    0.038240
 H   -2.336277   -2.448079    0.287809
 H    0.134426   -2.343330    0.294650
 H   -0.483664    2.854762   -0.321492
