42 
2y8i_ligand_xtb.xyz
 P   -2.503743   -1.295183   -0.615814
 O   -1.503349   -1.968739   -1.440175
 O   -3.566248   -2.206776    0.092638
 O   -3.376353   -0.172995   -1.248780
 P   -0.702495   -1.458538    1.390751
 O   -0.389727   -0.611543    2.686557
 O   -1.207395   -2.815596    1.599085
 O   -1.767231   -0.520189    0.643311
 O    0.654308   -1.267990    0.618261
 C    1.251913   -2.281493   -0.194206
 C    2.581791   -1.738572   -0.733087
 O    2.383950   -0.765872   -1.749084
 C    3.420702   -1.019189    0.338021
 O    4.777869   -1.074440    0.008615
 C    2.864228    0.414954    0.268590
 O    3.850830    1.365366    0.549473
 C    2.331159    0.508550   -1.188917
 N    0.975029    1.020103   -1.201350
 C   -0.055137    0.605339   -1.984014
 N   -1.186702    1.189481   -1.710556
 C   -0.908484    2.041576   -0.668850
 C   -1.689737    2.875754    0.149657
 N   -3.020557    3.019017    0.006598
 N   -1.068040    3.580789    1.099304
 C    0.237570    3.454707    1.253658
 N    1.070909    2.667124    0.596720
 C    0.454758    1.953417   -0.350730
 H   -3.101631   -2.907146    0.566569
 H   -2.732451    0.433862   -1.699772
 H   -0.919278   -0.899142    3.429231
 H    0.581683   -2.516398   -1.025207
 H    1.415753   -3.176288    0.409764
 H    3.146956   -2.553910   -1.191355
 H    3.253395   -1.456898    1.331188
 H    5.157159   -0.206802    0.210295
 H    2.029250    0.503846    0.967342
 H    3.393235    2.197855    0.733459
 H    2.967317    1.180006   -1.788167
 H    0.073485   -0.138644   -2.743676
 H   -3.505891    3.527889    0.726034
 H   -3.524141    2.338240   -0.536263
 H    0.678441    4.063676    2.031535
