37 
2ya6_ligand_xtb.xyz
 C   -3.718109   -0.551102   -0.075859
 C   -2.251404   -0.760276   -0.182677
 C   -1.706679   -1.960243    0.019979
 C   -0.225539   -2.192806    0.042269
 C    0.541368   -0.842385   -0.029890
 C   -0.222474    0.132039   -0.943800
 C    0.360988    1.546656   -1.150157
 C    0.153419    2.543088    0.008496
 C    0.777886    2.130362    1.347939
 C    2.861204   -1.731545    0.028837
 C    4.194485   -1.610181   -0.671161
 N    1.878534   -1.027340   -0.567995
 O   -4.070291    0.726373   -0.234245
 O   -4.513584   -1.429671    0.135574
 O    0.048983   -2.884275    1.226824
 O   -1.545804    0.360354   -0.506536
 O    1.723756    1.495310   -1.497043
 O    0.767540    3.733315   -0.445435
 O    0.853979    3.302486    2.138618
 O    2.692878   -2.425560    1.016671
 H   -2.330892   -2.795730    0.286720
 H    0.067494   -2.801893   -0.834812
 H    0.596474   -0.460886    0.995963
 H   -0.255216   -0.350626   -1.936589
 H   -0.206338    1.978747   -1.991635
 H   -0.923150    2.703001    0.150455
 H    0.142547    1.383450    1.833659
 H    1.783211    1.718174    1.182846
 H    4.947485   -2.152293   -0.106828
 H    4.121947   -2.035536   -1.669562
 H    4.482964   -0.565751   -0.759171
 H    2.136824   -0.380398   -1.299699
 H   -5.033263    0.816048   -0.150898
 H    1.022871   -2.902706    1.347128
 H    2.025674    2.416940   -1.459744
 H    0.859750    4.303977    0.329677
 H    1.161363    3.068552    3.019188
