46 
2yay_ligand_xtb.xyz
 O    1.502052   -2.979148    0.756240
 C    0.215719   -2.870200    0.362384
 C   -0.294799   -3.114164   -0.841931
 C   -1.772807   -2.921115   -0.993106
 N   -0.642743   -2.444587    1.373741
 C   -1.687969   -1.605559    1.046842
 O   -2.105752   -0.804442    1.878457
 N   -2.254950   -1.811422   -0.166173
 C   -3.036901   -0.790668   -0.842225
 C   -4.038111   -0.020928    0.025428
 C   -3.395868    1.355473    0.205668
 O   -4.381846    2.349916    0.298794
 O   -2.173275    0.165940   -1.438422
 C   -2.535474    1.484404   -1.069258
 C   -1.301832    2.385341   -0.941648
 O   -0.686260    2.358448    0.335809
 P    0.193230    1.139123    0.854432
 O    0.124708   -0.088374    0.046558
 O   -0.256113    0.965201    2.342316
 N    1.739953    1.750199    1.095966
 P    2.911557    0.581211    1.011591
 O    2.395621   -0.439783    2.101235
 O    4.291847    1.018958    1.144881
 O    2.694193   -0.272012   -0.347924
 P    2.005710    0.306213   -1.685247
 O    1.050226   -0.792534   -2.240017
 O    3.177211    0.142431   -2.737701
 O    1.542342    1.691843   -1.550408
 H    2.077621   -3.010924   -0.016451
 H    0.299697   -3.383735   -1.694218
 H   -2.015020   -2.712350   -2.034412
 H   -2.319670   -3.825806   -0.683347
 H   -0.181059   -2.211595    2.244369
 H   -3.563962   -1.320543   -1.648740
 H   -4.221869   -0.514001    0.973804
 H   -4.978670    0.110752   -0.509305
 H   -2.748577    1.351986    1.088720
 H   -3.974772    3.164037    0.611802
 H   -3.167008    1.905008   -1.870608
 H   -1.598871    3.427706   -1.084490
 H   -0.577467    2.097492   -1.705529
 H   -0.983787    0.301445    2.401558
 H    1.955314    2.590441    0.586029
 H    3.133865   -0.881378    2.524476
 H    0.236465   -0.790961   -1.715536
 H    3.763102    0.897851   -2.735974
