33 
2yaz_ligand_dft.xyz
 N    1.583768    0.457327    0.018349
 C    2.835549    0.685044    0.598902
 N    3.739751   -0.329268    0.384905
 C    3.563724   -1.527992   -0.330334
 C    2.226418   -1.661873   -0.888766
 C    1.315056   -0.693401   -0.701588
 O    3.106312    1.692690    1.222604
 O    4.477487   -2.320296   -0.429733
 C    0.578365    1.482873    0.182798
 C    0.176474    2.229781   -1.083521
 C   -1.186090    2.792536   -0.679192
 C   -1.760648    1.659814    0.184672
 O   -1.073891    3.926087    0.154395
 O   -0.637437    0.882323    0.628582
 C   -2.718375    0.770503   -0.595055
 O   -3.125957   -0.347895    0.183011
 P   -2.240214   -1.698698    0.142544
 O   -1.349415   -1.647878    1.455298
 O   -3.285834   -2.827482    0.556509
 O   -1.567667   -1.900911   -1.160471
 H    4.653280   -0.182989    0.795447
 H    1.978747   -2.561062   -1.435118
 H    0.300659   -0.794154   -1.075979
 H    0.957263    2.169886    0.940321
 H    0.076251    1.530381   -1.921385
 H    0.900234    3.001456   -1.357145
 H   -1.827944    3.000230   -1.547210
 H   -2.257747    2.078135    1.064091
 H   -0.658299    4.636665   -0.349059
 H   -3.625737    1.334196   -0.828492
 H   -2.260132    0.426209   -1.528989
 H   -0.894471   -0.783102    1.491638
 H   -3.535141   -3.348599   -0.218125
