49 
2ybt_ligand_xtb.xyz
 N   -2.457053   -0.411628    0.874063
 C   -2.908166   -1.600836    0.309324
 O   -2.347715   -2.652975    0.520450
 N   -4.025992   -1.528473   -0.496237
 C   -4.629218   -0.328538   -0.703745
 C   -4.158851    0.837990   -0.118810
 C   -3.005073    0.864586    0.727931
 O   -2.527524    1.840717    1.276011
 N   -5.006579    1.829938   -0.552223
 C   -5.907684    1.223055   -1.345474
 N   -5.716788   -0.073905   -1.464335
 N    2.464794   -0.387489    0.888865
 C    1.259018   -0.494591    1.702211
 C   -4.925482    3.220961   -0.199903
 C    4.810244    3.276377   -0.335080
 C   -4.552220   -2.723827   -1.118007
 C    4.631704   -2.729766   -0.969726
 O    2.453657    1.881716    1.182650
 O    2.450424   -2.649472    0.634767
 C    5.878847    1.266728   -1.377557
 C   -1.254109   -0.516224    1.692787
 C    0.005176   -0.449927    0.830930
 N    5.735688   -0.040255   -1.440878
 C    2.969609    0.897900    0.684758
 C    2.964573   -1.583849    0.381987
 C    4.649037   -0.301013   -0.680088
 C    4.131074    0.872648   -0.151833
 N    4.948510    1.874535   -0.620455
 N    4.082940   -1.508027   -0.421197
 H   -6.703332    1.749373   -1.834137
 H    1.264073    0.348558    2.395753
 H    1.304213   -1.439042    2.246657
 H   -4.029098    3.367568    0.401170
 H   -4.869755    3.836858   -1.098566
 H   -5.801021    3.518422    0.380126
 H    5.696506    3.648521    0.181491
 H    4.675328    3.840807   -1.259111
 H    3.937007    3.407970    0.302463
 H   -5.557978   -2.920760   -0.747087
 H   -4.595757   -2.583935   -2.197532
 H   -3.889614   -3.549160   -0.866158
 H    4.987650   -3.372824   -0.164064
 H    3.857474   -3.264399   -1.520110
 H    5.452102   -2.455479   -1.626901
 H    6.661667    1.798742   -1.880557
 H   -1.291372   -1.466405    2.227978
 H   -1.273147    0.319563    2.394754
 H    0.014894   -1.297417    0.143269
 H   -0.000072    0.480226    0.258074
