46 
2ybu_ligand_xtb.xyz
 O    2.278648    1.957507    1.005816
 C    2.792979    0.932401    0.597952
 C    3.979378    0.827206   -0.196507
 N    2.260009   -0.326103    0.881700
 N    4.832632    1.777547   -0.706659
 C    4.494084   -0.391113   -0.615685
 C    4.707293    3.199378   -0.538188
 C    5.778008    1.099533   -1.381141
 N    5.612406   -0.206002   -1.352283
 N    3.896398   -1.566343   -0.289820
 C    4.444991   -2.833225   -0.724242
 C    2.753623   -1.565164    0.481642
 O    2.213745   -2.600937    0.797419
 C    1.038630   -0.351081    1.677936
 C   -0.202639   -0.260005    0.792081
 C   -1.468947   -0.326262    1.643671
 N   -2.667831   -0.159432    0.829646
 C   -3.218325    1.123985    0.775268
 C   -3.127152   -1.305994    0.189133
 O   -2.749712    2.062287    1.387264
 C   -4.375912    1.150353   -0.069566
 N   -5.229269    2.165713   -0.429076
 C   -4.858390    0.027525   -0.723032
 C   -6.145828    1.619101   -1.251112
 N   -5.957367    0.336533   -1.452806
 N   -4.253072   -1.180814   -0.600504
 C   -4.771651   -2.353761   -1.271383
 O   -2.571986   -2.373143    0.315804
 H    4.552464    3.684782   -1.503422
 H    3.848674    3.390677    0.104023
 H    5.607612    3.607581   -0.076727
 H    6.589294    1.579439   -1.891409
 H    4.854993   -3.377162    0.127862
 H    3.654342   -3.435912   -1.170345
 H    5.228281   -2.622750   -1.447077
 H    1.076480    0.504040    2.355885
 H    1.029225   -1.285772    2.240608
 H   -0.202696   -1.090571    0.083986
 H   -0.183908    0.683746    0.242810
 H   -1.470677    0.481363    2.378104
 H   -1.530515   -1.295777    2.141241
 H   -6.947133    2.175097   -1.694670
 H   -3.953285   -2.879263   -1.762373
 H   -5.231380   -3.028679   -0.547919
 H   -5.511251   -2.022102   -1.994815
 H   -5.154270    3.120589   -0.118538
