27 
2yc3_ligand_xtb.xyz
 O    1.333629   -2.223792    1.171723
 C    1.379814   -1.105203    0.729984
 N    2.512945   -0.601526    0.069440
 N    3.670780   -1.248466   -0.165281
 C    4.399750   -0.374630   -0.801089
 C    0.302683   -0.116101    0.801616
 C    0.450714    1.119267    0.265711
Cl   -0.789565    2.307457    0.317887
 N    1.593316    1.527110   -0.360926
 C    2.627687    0.659878   -0.459176
 N    3.803023    0.825836   -1.010718
 C   -0.975998   -0.553397    1.463991
 C   -2.129615   -0.558064    0.492454
 C   -2.017744   -1.241600   -0.712516
 C   -3.063490   -1.245060   -1.617156
 C   -4.235744   -0.566662   -1.326951
 C   -4.357193    0.110580   -0.126506
 C   -3.308467    0.115926    0.777131
 H    5.394744   -0.583328   -1.134664
 H    1.682924    2.454481   -0.750217
 H   -1.203960    0.104414    2.305737
 H   -0.812622   -1.563966    1.847347
 H   -1.106456   -1.778207   -0.935266
 H   -2.964954   -1.780022   -2.550274
 H   -5.052353   -0.567998   -2.033440
 H   -5.269615    0.639093    0.107943
 H   -3.408952    0.648810    1.712404
