27 
2yc3_ligand_dft.xyz
 O    0.826260   -2.021803    1.324769
 C    1.102425   -0.969332    0.798477
 N    2.321063   -0.782872    0.105050
 N    3.297714   -1.722139   -0.053856
 C    4.186893   -1.064883   -0.763449
 C    0.253731    0.233796    0.796397
 C    0.676835    1.349898    0.154974
Cl   -0.246610    2.810171    0.083295
 N    1.880245    1.439709   -0.498824
 C    2.708312    0.358439   -0.525146
 N    3.882529    0.229684   -1.089345
 C   -1.080544    0.117131    1.495896
 C   -2.202701   -0.277778    0.552511
 C   -2.247569   -1.567019    0.013579
 C   -3.261757   -1.927396   -0.866462
 C   -4.246555   -1.006588   -1.218325
 C   -4.212202    0.275799   -0.681196
 C   -3.194502    0.636645    0.198764
 H    5.111862   -1.531571   -1.071245
 H    2.162805    2.284389   -0.973571
 H   -1.323839    1.061783    1.990777
 H   -0.970303   -0.642760    2.274597
 H   -1.484874   -2.288199    0.294330
 H   -3.286000   -2.933177   -1.275583
 H   -5.039271   -1.290186   -1.904263
 H   -4.978782    0.998793   -0.944559
 H   -3.174364    1.639491    0.618081
