56 
2ycf_ligand_xtb.xyz
 N   10.042900   -0.615882    0.877056
 N    8.410683   -1.569803   -0.378949
 N    7.906386    0.383640    0.826765
 N    7.176887    0.894711   -0.044260
 N    1.090040   -0.270501   -0.876141
 N   -1.096995   -0.894387   -0.867718
 N   -7.159525   -0.458693    0.619123
 N   -8.019407   -0.180620   -0.239966
 N   -7.804049    2.147945    0.029549
 N   -9.845411    1.292313   -0.466720
 C    8.835398   -0.581447    0.461883
 C    6.216452    1.845135    0.444359
 C    6.431631    3.172439   -0.290282
 C    4.851778    1.278493    0.116025
 C    3.829249    1.304204    1.052715
 C    2.573420    0.810955    0.751244
 C    2.325839    0.264668   -0.504089
 C    3.357102    0.224737   -1.441982
 C    4.604025    0.729711   -1.136409
 C   -0.098040   -0.240347   -0.178269
 C   -2.430602   -1.074483   -0.492999
 C   -3.216312   -1.911898   -1.283001
 C   -4.545416   -2.124936   -0.975739
 C   -5.115625   -1.516734    0.133245
 C   -4.335062   -0.670173    0.910942
 C   -3.006217   -0.446475    0.607875
 C   -6.568342   -1.762204    0.482015
 C   -6.692695   -2.503947    1.814982
 C   -8.607470    1.078781   -0.230563
 O   -0.245623    0.289573    0.896950
 O    9.243061   -2.695795   -0.450805
 O   -8.338213    3.401663   -0.296264
 H   10.317273    0.177684    1.440615
 H    7.436377   -1.838198   -0.388284
 H    1.083845   -0.678402   -1.800391
 H   -0.845641   -1.368949   -1.723542
 H   -6.814304    2.106450   -0.167042
 H  -10.399164    0.454281   -0.585073
 H    6.312674    1.989715    1.531329
 H    7.400437    3.592152   -0.029797
 H    5.650987    3.873723   -0.007774
 H    6.394743    3.010716   -1.363980
 H    4.009499    1.719806    2.033099
 H    1.783855    0.847789    1.481782
 H    3.177920   -0.204103   -2.418660
 H    5.396654    0.690732   -1.867286
 H   -2.782903   -2.399341   -2.145773
 H   -5.138978   -2.775678   -1.601103
 H   -4.777536   -0.171410    1.759087
 H   -2.408899    0.206642    1.220614
 H   -7.052478   -2.335395   -0.323705
 H   -6.276336   -1.900537    2.616166
 H   -7.738500   -2.705858    2.034133
 H   -6.152003   -3.445129    1.759303
 H   10.074376   -2.376673   -0.042061
 H   -9.290936    3.206527   -0.413597
