47 
2ych_ligand_xtb.xyz
 P    3.364885   -0.119755   -1.082645
 O    2.998700    1.237958   -1.785603
 O    4.930150   -0.059848   -1.012320
 O    2.883637   -1.373959   -1.649883
 P    2.436652   -1.149490    1.325340
 O    2.001706   -0.479627    2.648991
 O    3.413062   -2.209460    1.391339
 O    2.888684    0.130334    0.438851
 P    0.356965   -1.168003   -0.750962
 O    0.522170   -2.387390   -1.718380
 O    0.671145    0.184466   -1.215037
 O    1.047466   -1.586977    0.627815
 O   -1.180046   -1.226339   -0.394304
 C   -1.888537   -2.394263    0.005635
 C   -3.346985   -1.991562    0.274389
 O   -3.445318   -1.076986    1.357355
 C   -4.002790   -1.263453   -0.911380
 O   -5.389110   -1.432274   -0.868814
 C   -3.587823    0.196659   -0.657445
 O   -4.558112    1.096422   -1.103722
 C   -3.388082    0.234134    0.884332
 N   -2.109033    0.835374    1.205209
 C   -1.187882    0.365208    2.082095
 N   -0.044232    0.987398    2.022615
 C   -0.193302    1.926522    1.032055
 C    0.670305    2.839227    0.400575
 N    1.956996    3.017256    0.758836
 N    0.170192    3.597723   -0.577748
 C   -1.092723    3.456367   -0.934036
 N   -1.989408    2.609233   -0.459342
 C   -1.494573    1.841786    0.514526
 H    2.040500    1.269452   -1.907692
 H    5.288278    0.778730   -0.721101
 H    1.234382    0.176860    2.542294
 H    1.443206   -2.426135   -2.017078
 H   -1.839418   -3.144801   -0.785781
 H   -1.442275   -2.796507    0.918552
 H   -3.925623   -2.875079    0.555840
 H   -3.603768   -1.623975   -1.868720
 H   -5.789240   -0.589246   -1.127149
 H   -2.627802    0.377276   -1.147623
 H   -4.139943    1.969323   -1.131330
 H   -4.189036    0.816511    1.365869
 H   -1.407145   -0.438796    2.756152
 H    2.402936    2.278598    1.277679
 H    2.519808    3.555017    0.119742
 H   -1.432719    4.108313   -1.727400
