31 
2ycm_ligand_dft.xyz
Cl    0.735865    2.570945   -0.629482
 C   -3.339346   -0.322370    0.304109
 C   -4.385352    0.610688    0.764330
 O   -5.491858    0.247586    1.077352
 C   -2.040669   -0.028765   -0.083728
 O   -4.030558    1.906818    0.816218
 N   -1.463451   -1.239172   -0.422355
 C   -0.173672   -1.299409   -0.844813
 O    0.254899   -2.526286   -1.108122
 C    0.550407   -0.125648   -0.952046
 C    1.985430   -0.133187   -1.422280
 C    3.015740   -0.174405   -0.305182
 C    4.127104    0.666473   -0.350768
 C    5.095104    0.618465    0.648269
 C    4.960514   -0.272259    1.708428
 C    3.852054   -1.112736    1.764678
 C    2.886675   -1.062315    0.764854
 C   -0.129825    1.062419   -0.562087
 N   -1.363198    1.134178   -0.149410
 N   -2.311190   -2.288887   -0.272066
 C   -3.429428   -1.721207    0.161890
 H   -3.105329    2.031657    0.534450
 H    1.191006   -2.503598   -1.349108
 H    2.155996    0.751771   -2.040963
 H    2.147707   -0.976992   -2.109333
 H    4.233296    1.371074   -1.171725
 H    5.951786    1.283746    0.600080
 H    5.712347   -0.308043    2.490656
 H    3.734722   -1.806700    2.591357
 H    2.020124   -1.716083    0.835471
 H   -4.294773   -2.335138    0.369613
