61 
2ycr_ligand_xtb.xyz
 O   -0.468429    0.276332   -0.223826
 C   -0.241406   -0.908900   -0.242822
 N   -1.252529   -1.879508   -0.176493
 C   -2.607330   -1.682035   -0.072761
 C   -3.201850   -0.412768   -0.052471
 C   -4.563948   -0.285903    0.045365
 C   -3.439917   -2.807324    0.020534
 C   -4.800206   -2.675813    0.136980
 C   -5.409294   -1.408056    0.147070
 C   -6.835427   -1.268959    0.250724
 C   -7.707413   -2.329678    0.828068
 N   -7.402975   -0.167071   -0.175048
 N   -8.737019    0.131579   -0.241721
 C   -8.983677    1.575597   -0.181336
 N   -8.903602    2.051873    1.179414
 C   -8.074048    2.997800    1.235874
 C   -7.445281    3.346225   -0.080966
 N   -7.942652    2.266461   -0.933754
 N    0.988258   -1.484316   -0.325325
 C    2.240778   -0.852793   -0.401538
 C    2.405955    0.527015   -0.381714
 C    3.672822    1.071452   -0.464458
 C    4.805537    0.263013   -0.566569
 C    4.623587   -1.124130   -0.579552
 C    3.365143   -1.673161   -0.499194
 C    6.151199    0.821008   -0.660807
 C    6.341833    2.299472   -0.856252
 N    7.127371    0.002743   -0.556762
 N    8.385960    0.249687   -0.778004
 C    9.324826    0.310600    0.075947
 N    9.227510    0.385957    1.460167
 C   10.555662    0.381576    2.016852
 C   11.360944    0.442883    0.747088
 N   10.652011    0.398811   -0.305903
 H   -0.967078   -2.849674   -0.183003
 H   -2.573176    0.459571   -0.109150
 H   -4.977673    0.710593    0.092595
 H   -3.002298   -3.794864   -0.001647
 H   -5.404476   -3.567613    0.178213
 H   -7.123569   -3.093793    1.328371
 H   -8.311569   -2.795619    0.048925
 H   -8.388585   -1.895670    1.561827
 H   -9.304350   -0.367156    0.438299
 H  -10.008219    1.711961   -0.556427
 H   -7.852671    3.504939    2.158022
 H   -6.352018    3.340339   -0.028799
 H   -7.765328    4.343772   -0.402455
 H   -6.878103    0.591760   -0.626153
 H   -8.241111    2.570994   -1.849078
 H    1.048739   -2.493332   -0.346602
 H    1.545203    1.168870   -0.304348
 H    3.771813    2.144820   -0.443150
 H    5.491936   -1.757967   -0.663187
 H    3.245787   -2.748101   -0.516784
 H    6.048730    2.846284    0.039648
 H    5.741899    2.652925   -1.692160
 H    7.390802    2.501797   -1.063611
 H    8.432670    0.018620    1.953178
 H   10.786532   -0.522154    2.596152
 H   10.733757    1.254656    2.656173
 H   12.432546    0.517145    0.715379
