18 
2yde_ligand_xtb.xyz
 C   -2.195522   -0.241210   -0.100166
 C    0.017792    0.048444    1.002354
 C    1.433992    0.592098    0.849045
 C    2.284701   -0.265693   -0.051212
 O   -3.150692    0.493140   -0.067546
 O   -2.268960   -1.555895    0.061957
 O   -0.824075    1.628872   -0.651779
 O    3.507178    0.257896   -0.210096
 C   -0.782751    0.273226   -0.298395
 O    1.952041   -1.295336   -0.572792
 H    0.043870   -1.020749    1.211595
 H   -0.482840    0.568586    1.820912
 H    1.934087    0.659428    1.816746
 H    1.398612    1.596208    0.421122
 H   -3.189091   -1.836007    0.197810
 H   -1.717005    1.953264   -0.452335
 H    4.041400   -0.299659   -0.797501
 H   -0.302240   -0.291674   -1.106058
