45 
2ydj_ligand_xtb.xyz
 C   -5.849165    0.392519    0.097530
 C   -4.515660    0.754787    0.106715
 C   -3.516755   -0.220015    0.011680
 C   -3.887794   -1.562596   -0.088409
 C   -5.226420   -1.895812   -0.096980
 C   -6.222356   -0.937459   -0.006208
 F   -5.565742   -3.190789   -0.196853
 C   -2.117257    0.146221    0.020613
 C   -1.566818    1.399985   -0.038482
 C   -0.160370    1.412077   -0.005267
 C    0.383103    0.120915    0.086536
 S   -0.893306   -1.077252    0.117042
 C    1.753820   -0.232809    0.159630
 O    2.661136    0.654805    0.129265
 N    2.056157   -1.545219    0.292170
 C    3.383859   -2.132842    0.195153
 C    4.007671   -1.873337   -1.195050
 C    5.522468   -1.732043   -1.093952
 C    5.880251   -0.510916   -0.245146
 N    4.878198   -0.324976    0.829215
 C    4.311130   -1.596994    1.300989
 N    0.622025    2.526544   -0.063567
 C    0.165454    3.847982   -0.121037
 O   -0.998603    4.154154   -0.109262
 N    1.178718    4.744810   -0.171652
 H   -6.609101    1.154205    0.172807
 H   -4.247162    1.794335    0.196430
 H   -3.145068   -2.342920   -0.164875
 H   -7.257778   -1.236944   -0.016452
 H   -2.132203    2.309391   -0.112624
 H    1.274695   -2.181858    0.278602
 H    3.254164   -3.205112    0.353823
 H    3.589577   -0.958847   -1.618794
 H    3.752541   -2.688930   -1.869428
 H    5.950534   -1.613883   -2.087826
 H    5.946613   -2.639824   -0.664473
 H    6.875372   -0.635197    0.187719
 H    5.881638    0.392325   -0.857951
 H    3.927664    0.214495    0.439849
 H    5.274942    0.219989    1.593207
 H    3.733392   -1.424587    2.211034
 H    5.103038   -2.314036    1.522907
 H    1.619644    2.348153   -0.038419
 H    0.931032    5.716023   -0.253021
 H    2.144127    4.488582   -0.266578
