38 
2ydt_ligand_dft.xyz
 O   -2.905352   -0.667511    1.799013
 C   -3.462332    0.093457    0.752567
 C   -2.626441    1.336561    0.467344
 N   -1.400989    0.758505   -0.175972
 C   -3.265027   -0.712368   -0.544661
 O   -3.948605   -0.111406   -1.616592
 C   -1.764600   -0.558934   -0.840261
 C   -0.922131   -1.722953   -0.305496
 O    0.448194   -1.599030   -0.627476
 O    0.461842    2.844411    0.028081
 C    1.788067    2.387054    0.293169
 C    1.843307    0.940268   -0.112812
 O    1.039797    0.148817    0.777024
 C    3.185988    0.229592   -0.038855
 O    3.996132    0.647054   -1.098964
 C    2.753357   -1.247757   -0.076818
 O    3.612642   -1.999187    0.737785
 C    1.289659   -1.207532    0.421993
 H   -3.196801   -0.319068    2.650099
 H   -4.517542    0.334594    0.920228
 H   -3.121511    1.983451   -0.257450
 H   -2.333990    1.906377    1.349421
 H   -0.640845    0.589299    0.513305
 H   -0.972170    1.438632   -0.810248
 H   -3.541506   -1.762519   -0.397990
 H   -4.881659   -0.357034   -1.583185
 H   -1.610691   -0.448103   -1.914274
 H   -1.073747   -1.830491    0.774895
 H   -1.288586   -2.630701   -0.794107
 H    0.443664    3.804253    0.118027
 H    2.032161    2.490923    1.357816
 H    2.526619    2.935181   -0.303169
 H    1.460804    0.850792   -1.141546
 H    3.648929    0.416496    0.941418
 H    4.881301    0.284533   -0.971158
 H    2.757458   -1.588622   -1.119411
 H    3.557737   -2.929577    0.489460
 H    1.121008   -1.807463    1.321678
