38 
2ydv_ligand_xtb.xyz
 C   -2.788677    0.762712    0.538824
 O   -3.011634    0.651279    1.725373
 N   -2.535352    1.923887   -0.084136
 C   -2.389250    3.184959    0.607662
 C   -0.975374    3.738012    0.471780
 C   -2.774401   -0.438006   -0.425761
 O   -1.734484   -0.285861   -1.397088
 C   -2.478679   -1.739398    0.317585
 O   -2.966276   -2.838571   -0.395754
 C   -0.942756   -1.715676    0.339751
 O   -0.413074   -2.994565    0.459154
 C   -0.615871   -1.035217   -1.015667
 N    0.552090   -0.193133   -0.892307
 C    0.767423    1.061313   -1.391374
 N    1.935614    1.548989   -1.109288
 C    2.562864    0.567558   -0.383691
 C    3.832627    0.448091    0.210812
 N    4.755166    1.419751    0.163760
 N    4.126217   -0.687503    0.852715
 C    3.226760   -1.651332    0.910490
 N    2.006721   -1.666399    0.400825
 C    1.703591   -0.534052   -0.243310
 H   -2.313974    1.891173   -1.068135
 H   -3.113728    3.900393    0.204616
 H   -2.628803    2.990574    1.655266
 H   -0.249273    3.027658    0.859439
 H   -0.736697    3.938362   -0.570582
 H   -0.886443    4.665260    1.030654
 H   -3.723538   -0.498398   -0.965891
 H   -2.897610   -1.707267    1.331823
 H   -2.383738   -3.583936   -0.191705
 H   -0.607612   -1.056875    1.154736
 H    0.559088   -2.891278    0.525289
 H   -0.415389   -1.805872   -1.779326
 H    0.021512    1.567617   -1.969313
 H    4.552388    2.268664   -0.331574
 H    5.649270    1.266490    0.594060
 H    3.525546   -2.543736    1.443575
