42 
2ye9_ligand_dft.xyz
 C   -1.648925    1.488180   -0.978984
 C   -0.786875    2.551229   -0.592015
 C   -1.142233    3.096036    0.608447
 S   -2.532918    2.343760    1.288051
 C   -2.640231    1.271424   -0.063546
 S   -3.753585   -0.096101   -0.068917
 O   -4.850122    0.215540    0.829590
 O   -3.945623   -0.477763   -1.452980
 N   -2.913546   -1.344748    0.677628
 C   -1.644055   -1.709331    0.129911
 C   -0.468214   -1.140821    0.610846
 C   -1.593344   -2.599157   -0.942143
 C   -0.374149   -2.923679   -1.516121
 C    0.804282   -2.361998   -1.022520
 O    1.965689   -2.710483   -1.626943
 C    0.765369   -1.455031    0.047120
 C    2.011337   -0.791495    0.521866
 C    2.620621    0.249257   -0.249611
 C    2.086502    0.672832   -1.497818
 C    2.692307    1.668214   -2.221170
 C    3.862147    2.301733   -1.742007
 C    4.399754    1.917479   -0.541971
 C    3.799107    0.888691    0.228482
 C    4.341334    0.479296    1.472367
 C    3.750611   -0.512037    2.205180
 C    2.578800   -1.151485    1.729392
 O    1.982988   -2.136068    2.448698
 H   -1.547813    0.897345   -1.881271
 H    0.064571    2.883599   -1.172824
 H   -0.672957    3.923704    1.123250
 H   -2.925477   -1.203979    1.683320
 H   -0.505698   -0.417790    1.421696
 H   -2.517544   -3.020565   -1.321157
 H   -0.312539   -3.615547   -2.349006
 H    2.696140   -2.266762   -1.172475
 H    1.185485    0.198442   -1.872586
 H    2.270374    1.972203   -3.174838
 H    4.329810    3.087630   -2.326723
 H    5.298660    2.395779   -0.161275
 H    5.240663    0.964758    1.841550
 H    4.176654   -0.817356    3.158483
 H    2.490218   -2.296611    3.253171
