52 
2yek_ligand_dft.xyz
Cl    6.494570   -2.266204    0.545030
 C    4.846784   -1.732685    0.322601
 C    4.423274   -0.554081    0.924747
 C    3.113943   -0.129072    0.731731
 C    3.979762   -2.494645   -0.455340
 C    2.672648   -2.063602   -0.631054
 C    2.225300   -0.874117   -0.048304
 C    0.804787   -0.454094   -0.232146
 N   -0.054474   -1.377980   -0.434238
 C    0.507337    1.014088   -0.193355
 C   -0.586994    1.549368    0.495379
 C   -0.817732    2.927909    0.477475
 C    0.034250    3.775091   -0.201465
 C    1.131032    3.254795   -0.900094
 O    1.900893    4.156658   -1.545890
 C    3.022654    3.683733   -2.264775
 C    1.357363    1.882324   -0.892690
 N   -1.482217    0.693741    1.182799
 C   -1.964322   -0.488567    0.684120
 N   -2.783834   -1.035925    1.537493
 N   -2.860135   -0.208948    2.631779
 C   -2.080345    0.818533    2.416889
 C   -1.846380    1.927627    3.383059
 C   -1.461210   -1.022766   -0.621573
 C   -2.249426   -2.251554   -1.078942
 C   -3.655835   -1.847933   -1.510129
 O   -3.858331   -1.347222   -2.608481
 N   -4.628016   -2.064294   -0.584370
 C   -5.939437   -1.460071   -0.745911
 C   -5.956308    0.009088   -0.324868
 H    5.106485    0.021226    1.539539
 H    2.782041    0.788379    1.207415
 H    4.327409   -3.412240   -0.916828
 H    1.978410   -2.649060   -1.223869
 H   -1.687699    3.330900    0.983372
 H   -0.139648    4.845213   -0.223921
 H    3.735135    3.174829   -1.603798
 H    3.494683    4.566840   -2.694852
 H    2.722085    3.003207   -3.070643
 H    2.198254    1.453989   -1.424469
 H   -0.788253    2.203675    3.424499
 H   -2.422287    2.823979    3.129881
 H   -2.166734    1.588176    4.369438
 H   -1.560542   -0.237708   -1.387573
 H   -2.251968   -2.999836   -0.281824
 H   -1.741392   -2.668913   -1.950793
 H   -4.297712   -2.181194    0.368588
 H   -6.652967   -2.041693   -0.153892
 H   -6.214974   -1.557864   -1.798143
 H   -5.272369    0.583581   -0.957127
 H   -6.960574    0.433304   -0.430616
 H   -5.641722    0.118807    0.718704
