53 
2yem_ligand_xtb.xyz
 C   -5.181232    3.680285    0.738493
 C    7.524829   -0.865129   -0.316824
 C   -3.838567    4.021599    0.689433
 C   -5.567530    2.365911    0.534445
 C   -3.764175   -1.254775   -2.874680
 C    7.769900    0.484707   -0.507573
 C    6.235684   -1.298479   -0.063610
 C   -3.389827   -2.552313   -2.561748
 C   -2.886881    3.054779    0.430907
 C   -4.619666    1.395027    0.267668
 C   -3.388923   -0.211373   -2.051687
 C    6.730384    1.394030   -0.443200
 C    5.193508   -0.389269   -0.003112
 C   -2.632745   -2.800422   -1.433436
 C   -3.269374    1.733322    0.206562
 C   -2.625780   -0.435596   -0.906388
 C    5.432888    0.963874   -0.191864
 C   -2.244945   -1.751191   -0.606029
 C   -0.390632   -1.260747    0.939093
 C   -1.544834   -3.003616    1.482430
 C   -2.237552    0.721019   -0.065783
 C    2.168585    1.002330   -0.132905
 C   -0.011837   -0.020227    0.205505
 C   -2.572076   -4.068696    1.522886
 C    4.314705    1.975215   -0.159152
 N    0.119202   -1.751273    2.025145
 N   -0.605815   -2.833640    2.363599
 N   -1.078667    0.924818    0.414396
 N   -1.467322   -2.010259    0.529613
 N    1.222354    0.511496    0.698831
 O    2.113739    0.966212   -1.337560
 O    3.185625    1.529862    0.580823
 H   -5.925576    4.436556    0.938999
 H    8.336979   -1.575390   -0.364491
 H   -3.535653    5.045131    0.852862
 H   -6.612042    2.095448    0.583386
 H   -4.346377   -1.057674   -3.761581
 H    8.774370    0.830189   -0.703927
 H    6.036632   -2.349279    0.087121
 H   -3.678858   -3.371530   -3.202030
 H   -1.837176    3.298291    0.389098
 H   -4.928351    0.369478    0.121975
 H   -3.671136    0.801691   -2.296758
 H    6.923207    2.447255   -0.590459
 H    4.190218   -0.735571    0.195642
 H   -2.316292   -3.804704   -1.200331
 H    0.132910   -0.235979   -0.867647
 H   -2.261307   -4.928964    0.930119
 H   -2.688240   -4.393941    2.552923
 H   -3.523321   -3.702306    1.140914
 H    4.650489    2.898416    0.321673
 H    3.995470    2.197512   -1.186898
 H    1.337435    0.597194    1.695652
