32 
2yex_ligand_xtb.xyz
 C    5.321396   -0.116673    0.006969
 C    1.470865    1.926926    0.014750
 C    0.191910    2.371845    0.014590
 C    4.322367    0.807835    0.018975
 C    0.689764   -0.374075   -0.006840
 C    4.667896   -1.392316   -0.021346
 C    1.778963    0.535977    0.001386
 C   -0.918680    1.478070    0.001542
 C   -0.596783    0.072738   -0.004519
 C    3.090662    0.063262   -0.001455
 C   -3.286943    0.976922   -0.022781
 C   -2.237800    1.920338   -0.007064
 C   -2.979981   -0.349832   -0.021873
 C   -1.683934   -2.207850    0.019130
 C   -2.585592    3.375122   -0.002028
 N   -3.831229   -1.434295   -0.098765
 N    3.367969   -1.287536   -0.025472
 N   -3.019791   -2.564952    0.103451
 N   -1.687838   -0.811147   -0.003449
 O   -0.757865   -2.966411    0.006382
 H    6.382729    0.048734    0.016458
 H    2.283008    2.637309    0.022936
 H   -0.004348    3.432536    0.021983
 H    4.419781    1.876787    0.040872
 H    0.925770   -1.424823   -0.012024
 H    5.147603   -2.355821   -0.038372
 H   -4.316416    1.291260   -0.039351
 H   -2.179469    3.865664    0.881530
 H   -2.174617    3.871005   -0.880352
 H   -3.664096    3.508390   -0.005084
 H   -4.687110   -1.417610    0.444800
 H   -3.338367   -3.446377   -0.271421
