15 
2yfa_ligand_xtb.xyz
 C    1.141488   -0.706072   -0.039442
 O    0.394848   -1.595004   -0.338876
 O    2.460051   -0.878341    0.118720
 C    0.720673    0.732719    0.242550
 O    1.679778    1.672178   -0.161594
 C   -0.613052    1.019928   -0.447300
 C   -1.692377    0.146944    0.151022
 O   -2.561162   -0.268716   -0.767823
 O   -1.787734   -0.123643    1.317437
 H    2.703507   -1.803965   -0.040238
 H    0.559436    0.784018    1.336442
 H    2.553643    1.347917    0.087697
 H   -0.546474    0.839069   -1.518950
 H   -0.867152    2.068009   -0.280928
 H   -3.229608   -0.847946   -0.367918
