49 
2yfe_ligand_xtb.xyz
 C   -5.523349    1.757259    0.106379
 C   -5.320052    0.409781    0.738359
 C   -6.110341    0.183122    1.994003
 C   -4.536849   -0.537343    0.239248
 C   -3.706112   -0.453412   -1.010934
 C   -2.245654   -0.437777   -0.644239
 C   -1.584126   -1.630195   -0.326344
 C   -0.252682   -1.604673    0.075147
 O   -2.326081   -2.761874   -0.435174
 C   -1.732877   -3.998809   -0.124362
 C   -1.541265    0.758651   -0.569923
 O   -2.225089    1.903491   -0.871605
 C   -0.188375    0.780983   -0.190453
 C    0.548217    2.070599   -0.159666
 O    0.385033    2.843149   -1.272520
 O    1.227031    2.474192    0.742087
 C    0.446790   -0.413707    0.167175
 C    1.889269   -0.426340    0.575786
 C    2.817607   -0.237431   -0.637959
 C    4.249865   -0.189121   -0.190369
 C    4.738849    0.954889    0.429792
 C    6.046381    1.007058    0.875824
 C    6.882146   -0.084963    0.708660
 C    6.402603   -1.228444    0.094573
 C    5.092512   -1.279844   -0.350066
 H   -4.622121    2.102882   -0.390626
 H   -6.326959    1.711330   -0.629490
 H   -5.804161    2.487400    0.862185
 H   -7.171019    0.344747    1.802725
 H   -5.973325   -0.826622    2.372142
 H   -5.802055    0.888277    2.766028
 H   -4.442094   -1.478293    0.764634
 H   -3.948687    0.436871   -1.585426
 H   -3.901066   -1.339365   -1.619039
 H    0.259021   -2.518130    0.332089
 H   -0.886310   -4.217649   -0.782999
 H   -1.403003   -4.036216    0.918566
 H   -2.511268   -4.744155   -0.281282
 H   -1.719561    2.687305   -0.619836
 H   -0.081522    2.378348   -1.981178
 H    2.128002   -1.375547    1.058223
 H    2.077271    0.377092    1.287627
 H    2.563066    0.699768   -1.138077
 H    2.663922   -1.056253   -1.344569
 H    4.086235    1.806021    0.561380
 H    6.415872    1.901872    1.354977
 H    7.904374   -0.044156    1.055361
 H    7.049858   -2.083335   -0.039162
 H    4.723030   -2.175549   -0.830337
