86 
2yga_ligand_xtb.xyz
 C   -4.498826    0.582704    0.625929
 C   -3.526629   -0.463918    1.103008
 C   -2.892305   -1.285219    0.030118
 C   -3.349169   -1.266601   -1.242490
 C   -4.566986   -0.560360   -1.607421
 C   -5.408927   -0.077398   -0.415549
 C   -3.766378    1.786617    0.004254
 C   -2.542542    2.244848    0.805487
 C   -1.790568    3.331064    0.025855
 C   -0.327805    3.497465    0.461540
 C    0.679842    2.834679   -0.510276
 C    0.626624    1.283528   -0.539963
 C    2.025300    0.747373   -0.667298
 C    2.877515    0.522976    0.326848
 C    4.266839    0.000364    0.064314
 C    4.497391   -1.490252    0.456655
 C    3.476873   -2.457037   -0.159634
 C    2.131567   -2.507859    0.562345
 C    1.333761   -3.744629    0.152354
 C   -0.094828   -3.698884    0.703794
 C   -0.966779   -2.831106   -0.188683
 N   -1.837591   -2.023031    0.508120
 O   -3.222978   -0.633466    2.263265
 O   -4.940397   -0.407486   -2.750933
 O   -6.038296   -1.175748    0.221039
 C   -7.077660   -1.754755   -0.533794
 C   -2.947225    2.744470    2.190271
 O   -0.065726    4.898516    0.490421
 C    0.940245    5.306506    1.381074
 O    0.506325    3.361477   -1.802430
 C   -0.222616    0.734512   -1.684166
 C    2.608954    0.776611    1.780381
 O    4.603250    0.151041   -1.314451
 C    5.899275    0.408702   -1.585586
 O    6.768577    0.529848   -0.760086
 N    6.090519    0.491082   -2.922396
 O    4.532026   -1.673819    1.856085
 C    5.783161   -1.421321    2.450455
 C   -0.737190   -5.091079    0.713729
 O   -0.937338   -2.872735   -1.393961
 H   -5.096202    0.902602    1.483917
 H   -2.838007   -1.808700   -2.023956
 H   -6.167804    0.632869   -0.782011
 H   -4.472200    2.614148   -0.089263
 H   -3.447125    1.512139   -1.003913
 H   -1.876105    1.384466    0.926271
 H   -1.807202    3.116413   -1.043099
 H   -2.286988    4.291871    0.174422
 H   -0.175203    3.082345    1.468177
 H    1.685850    3.110277   -0.144538
 H    0.200810    0.954072    0.413574
 H    2.347761    0.554606   -1.678785
 H    4.983734    0.595329    0.649253
 H    5.486645   -1.741834    0.038879
 H    3.918469   -3.456030   -0.129755
 H    3.333322   -2.177968   -1.204022
 H    1.556329   -1.612510    0.330959
 H    2.314179   -2.531289    1.637303
 H    1.278315   -3.806731   -0.936275
 H    1.837179   -4.641205    0.518045
 H   -0.080577   -3.302516    1.723463
 H   -1.752723   -1.960854    1.521067
 H   -7.857191   -1.017279   -0.756556
 H   -7.491508   -2.548625    0.084324
 H   -6.711025   -2.175442   -1.475321
 H   -3.721224    3.504171    2.106535
 H   -2.094892    3.184557    2.701645
 H   -3.320180    1.926915    2.801012
 H    0.707785    4.996549    2.407122
 H    1.924633    4.909692    1.108927
 H    0.967551    6.393469    1.329878
 H    0.348822    4.308947   -1.695913
 H   -0.134349   -0.348936   -1.721390
 H   -1.270433    0.987686   -1.559685
 H    0.121215    1.148951   -2.626807
 H    1.547829    0.889758    1.979828
 H    3.114142    1.689593    2.097172
 H    2.999707   -0.046789    2.373296
 H    6.987997    0.782273   -3.264671
 H    5.298815    0.484963   -3.539555
 H    6.115185   -0.390569    2.292672
 H    5.654764   -1.600798    3.516549
 H    6.549593   -2.097438    2.055070
 H   -0.164049   -5.762387    1.348216
 H   -0.757920   -5.495195   -0.295421
 H   -1.757255   -5.044954    1.090390
