33 
2yi0_ligand_xtb.xyz
 N   -0.739516    4.003968   -0.455392
 N   -1.476847    3.009882   -0.274979
 C   -0.842230    1.834978   -0.115378
 C    0.543393    1.964096   -0.179033
 C   -1.599268    0.592128    0.027382
 C    1.581425    0.968209   -0.027253
 C    1.412575   -0.124242    0.821528
 C    2.398801   -1.081940    0.953983
 C    3.586751   -0.967549    0.236207
 C    3.770923    0.139024   -0.597962
 C    2.787783    1.091795   -0.722501
 C   -2.679555    0.516223    0.919674
 C   -3.409579   -0.660393    1.019047
 C   -3.088980   -1.774130    0.253267
 C   -2.007636   -1.684188   -0.625517
 C   -1.278995   -0.519484   -0.742319
 O   -3.818356   -2.898115    0.384237
 O   -2.954903    1.587244    1.692818
 O    4.611816   -1.855113    0.278078
 S    0.881473    3.631505   -0.452546
 C    4.481820   -3.003077    1.082691
Cl   -1.594652   -3.081443   -1.583784
 H    0.503397   -0.218369    1.395156
 H    2.231096   -1.910809    1.623136
 H    4.699704    0.223030   -1.139379
 H    2.939335    1.939565   -1.374876
 H   -4.244525   -0.734756    1.700143
 H   -0.455194   -0.467688   -1.436739
 H   -3.465316   -3.568050   -0.223351
 H   -3.749657    1.426148    2.216324
 H    4.381458   -2.742808    2.141156
 H    3.627655   -3.614365    0.774830
 H    5.400289   -3.569223    0.937295
