33 
2yi0_ligand_dft.xyz
 N   -0.637928    4.098035   -0.471641
 N   -1.403142    3.102622   -0.275737
 C   -0.763711    1.895934   -0.120758
 C    0.609895    1.979355   -0.203791
 C   -1.556255    0.661106    0.048404
 C    1.610838    0.910078   -0.071196
 C    1.486250   -0.060855    0.923982
 C    2.419321   -1.083355    1.055588
 C    3.506131   -1.145485    0.180437
 C    3.646336   -0.173860   -0.816872
 C    2.711384    0.837723   -0.937569
 C   -2.455667    0.511199    1.117111
 C   -3.199703   -0.655788    1.258308
 C   -3.057106   -1.703348    0.350584
 C   -2.148667   -1.560830   -0.702952
 C   -1.416493   -0.393239   -0.849305
 O   -3.803022   -2.808278    0.545731
 O   -2.539564    1.526560    2.006369
 O    4.468369   -2.095829    0.215372
 S    1.004556    3.619649   -0.476288
 C    4.371297   -3.106572    1.195700
Cl   -1.956936   -2.879007   -1.842646
 H    0.650058   -0.015149    1.614094
 H    2.288824   -1.817079    1.842216
 H    4.495042   -0.238015   -1.489167
 H    2.825392    1.575615   -1.726961
 H   -3.899074   -0.782304    2.079659
 H   -0.720760   -0.300336   -1.676317
 H   -3.613751   -3.446399   -0.157593
 H   -3.225984    1.332104    2.655656
 H    4.413701   -2.688256    2.209243
 H    3.448710   -3.689372    1.081001
 H    5.230991   -3.758683    1.039584
