36 
2yi7_ligand_dft.xyz
 N   -2.415162   -3.667648    0.353065
 N   -2.755666   -2.457674    0.166676
 C   -1.714268   -1.566051    0.069655
 C   -0.470130   -2.147745    0.190691
 C   -1.993899   -0.124009   -0.085671
 C    0.856705   -1.517539    0.122340
 C    1.876740   -1.879633    1.014234
 C    3.121054   -1.279931    0.952832
 C    3.382696   -0.296646   -0.008405
 C    2.378702    0.069855   -0.908424
 C    1.131795   -0.541056   -0.836646
 C   -2.725622    0.363436   -1.181318
 C   -2.984476    1.724157   -1.311485
 C   -2.511371    2.630787   -0.365074
 C   -1.767949    2.147104    0.716184
 C   -1.520514    0.790109    0.850974
 O   -2.791627    3.935523   -0.550901
 O   -3.132952   -0.535003   -2.106367
 O    4.626336    0.232480    0.015313
 S   -0.712753   -3.823747    0.421437
 C    4.955074    1.243544   -0.924971
Cl   -1.160282    3.283819    1.904350
 C    6.389012    1.657328   -0.665225
 H    1.685102   -2.629646    1.776772
 H    3.910479   -1.551688    1.645237
 H    2.552909    0.821838   -1.668683
 H    0.361328   -0.256242   -1.545826
 H   -3.550155    2.112256   -2.153586
 H   -0.945562    0.434456    1.699249
 H   -2.415942    4.447169    0.180414
 H   -3.668578   -0.091026   -2.774605
 H    4.274001    2.097470   -0.806334
 H    4.839675    0.854189   -1.945920
 H    6.497306    2.045124    0.351397
 H    7.061590    0.803530   -0.784854
 H    6.687118    2.438583   -1.370893
