62 
2yig_ligand_xtb.xyz
 C    2.848432    2.534899   -0.137411
 C    1.527548    2.915672   -0.187433
 C    0.513419    1.978333    0.025190
 C    0.848454    0.653785    0.308556
 C    2.172321    0.273301    0.361225
 C    3.185463    1.205642    0.132587
 C    4.541961    0.824998    0.192626
 C    5.698124    0.486477    0.216726
 C    7.112416    0.168426    0.355213
 C    7.758773   -0.071405   -1.033283
 N    8.656807   -1.246610   -0.965828
 C    9.578261   -1.113465    0.193408
 C    8.780490   -1.317554    1.485404
 C    7.296130   -1.147275    1.160022
 C    6.839049   -2.314928    0.285401
 C    7.855983   -2.492193   -0.849001
 O    7.831215    1.234634    0.946270
 O   -0.756602    2.450461    0.013233
 C   -1.822521    1.627527   -0.265748
 C   -1.776383    0.651813   -1.256239
 C   -2.905612   -0.093056   -1.529013
 C   -4.095636    0.138606   -0.846407
 C   -4.134385    1.121434    0.137714
 C   -3.003933    1.859677    0.430245
 C   -5.267967   -0.727422   -1.178153
 O   -5.139421   -1.895074   -1.489120
 N   -6.467423   -0.104418   -1.126974
 C   -7.713220   -0.800973   -1.355443
 C   -8.571049   -0.832354   -0.118467
 C   -8.015254   -1.127221    1.122118
 C   -8.840744   -1.138487    2.234433
 N  -10.136811   -0.884942    2.181662
 C  -10.667091   -0.612373    1.003288
 C   -9.933626   -0.568438   -0.172945
 H    3.630174    3.259669   -0.307491
 H    1.250673    3.938206   -0.388331
 H    0.070581   -0.069070    0.503578
 H    2.428119   -0.751099    0.588448
 H    6.997299   -0.240401   -1.795824
 H    8.334024    0.820145   -1.291112
 H    9.211261   -1.284529   -1.823959
 H   10.380807   -1.845720    0.097045
 H   10.007100   -0.110568    0.164983
 H    9.091805   -0.583567    2.226241
 H    8.945874   -2.309819    1.903833
 H    6.704723   -1.102842    2.075595
 H    5.843448   -2.104087   -0.106713
 H    6.776126   -3.226270    0.877992
 H    7.358345   -2.686055   -1.800426
 H    8.540533   -3.317148   -0.645097
 H    7.298400    1.651095    1.632025
 H   -0.865014    0.487820   -1.812701
 H   -2.884129   -0.864981   -2.282868
 H   -5.035943    1.296392    0.706805
 H   -3.018681    2.620711    1.194521
 H   -6.518498    0.871308   -0.882644
 H   -8.257809   -0.333784   -2.182718
 H   -7.440005   -1.822157   -1.644732
 H   -6.962523   -1.350094    1.211097
 H   -8.448131   -1.361613    3.217774
 H  -11.730638   -0.414184    1.003358
 H  -10.413886   -0.336410   -1.111462
