97 
2yim_ligand_xtb.xyz
 C    5.706903    0.095207   -1.008337
 O    5.669781    0.442760    0.133280
 C    5.962983   -1.291658   -1.526934
 C    4.550012   -1.867163   -1.493698
 O    4.218068   -2.371767   -0.288753
 C    3.726415   -1.799621   -2.533785
 N   -5.600560   -0.806717    0.660515
 O   -0.248286   -1.857944   -1.774325
 P   -1.518602   -1.157715   -1.865823
 C   -2.748321    3.050111   -0.919260
 S    5.331745    1.237749   -2.361250
 C   -5.241355    0.313313    1.278780
 O   -2.218341   -1.239152   -3.270380
 P   -2.476481   -1.768647    0.698675
 C   -2.057656    2.524367    0.370880
 O   -2.513239    3.164461    1.530837
 C    3.820297    2.107304   -1.807213
 N   -4.667741    1.376066    0.761840
 O   -2.688820   -1.679894   -0.907887
 C   -0.566427    2.735728    0.069888
 O   -0.124763    4.014266    0.456530
 P    0.576908    4.168010    1.910176
 C    3.902743    2.908535   -0.514284
 C   -4.433127    1.247267   -0.547750
 O   -3.682239   -2.682306    1.139467
 C   -0.545473    2.626559   -1.458816
 O   -1.761043    3.229277   -1.887450
 N    3.748396    2.106353    0.678481
 C    6.932623   -2.070686   -0.647492
 C   -4.864567    0.177396   -1.345315
 O   -2.403126   -0.447405    1.310234
 C   -0.396003    1.179457   -1.948959
 O   -1.477017    0.387219   -1.455993
 C    2.744335    1.259105    0.915930
 O    1.894944    0.957528    0.081674
 C   -5.455580   -0.901114   -0.668891
 N   -5.872240   -2.018222   -1.286623
 O   -1.204296   -2.676406    0.776985
 C    2.759716    0.665027    2.312809
 N   -4.420161    0.360801   -2.633794
 O    2.030692    4.022643    1.907788
 C    1.515432   -0.180493    2.585252
 C   -3.753570    1.479953   -2.597700
 O   -0.181351    3.190690    2.873483
 N    1.477209   -1.343279    1.732603
 N   -3.720207    2.068463   -1.372149
 O    0.080437    5.628742    2.307179
 C    1.377963   -2.587867    2.204719
 O    1.298835   -2.859795    3.392394
 C    1.391136   -3.695925    1.137685
 O    1.605174   -3.210573   -0.163136
 C    0.140563   -4.612155    1.283819
 C   -1.089620   -3.784215    1.679819
 C    0.397149   -5.629719    2.398356
 C   -0.131201   -5.331406   -0.039940
 H    6.306169   -1.237058   -2.561762
 H    3.287557   -2.677772   -0.304952
 H    4.040819   -1.370345   -3.466154
 H    2.721078   -2.180103   -2.475122
 H   -3.253379    4.009213   -0.735580
 H   -5.428180    0.338673    2.343150
 H   -3.086376   -0.789722   -3.293832
 H   -2.210387    1.445163    0.454726
 H   -3.361244    2.740635    1.751743
 H    3.605549    2.773233   -2.642163
 H    3.039566    1.352966   -1.735188
 H    0.049561    1.957884    0.522577
 H    4.862398    3.423869   -0.450299
 H    3.101353    3.659042   -0.533547
 H   -4.497004   -2.152699    1.251673
 H    0.267610    3.221693   -1.881724
 H    4.377678    2.304498    1.437895
 H    7.000023   -3.098685   -0.993481
 H    7.919693   -1.615989   -0.686142
 H    6.578995   -2.067788    0.379380
 H    0.548526    0.774186   -1.582199
 H   -0.409426    1.158821   -3.042889
 H   -5.611791   -2.159248   -2.246753
 H   -6.132752   -2.808955   -0.722707
 H    2.801037    1.486322    3.029252
 H    3.659001    0.053575    2.416064
 H    1.519466   -0.542749    3.616027
 H    0.616074    0.423708    2.422396
 H   -3.259528    1.918153   -3.442288
 H   -1.136633    3.196814    2.681736
 H    1.516260   -1.165524    0.738222
 H    0.787129    6.255270    2.165798
 H    2.275261   -4.311844    1.351619
 H    0.808688   -2.787754   -0.528319
 H   -1.993792   -4.393477    1.619793
 H   -0.983736   -3.406109    2.699244
 H   -0.505050   -6.200409    2.605729
 H    1.183029   -6.319146    2.101560
 H    0.705027   -5.113272    3.303245
 H   -0.475059   -4.629850   -0.795932
 H    0.777096   -5.807645   -0.399844
 H   -0.893969   -6.093131    0.104713
