97 
2yim_ligand_dft.xyz
 C    6.035970    0.523875   -0.249564
 O    5.911797    1.232696    0.713268
 C    6.162476   -0.992196   -0.153801
 C    5.025402   -1.633563   -0.916310
 O    3.869811   -0.962111   -0.682139
 C    5.131976   -2.741956   -1.650824
 N   -5.490138   -1.629249    1.233193
 O   -0.317229   -1.763216   -2.175694
 P   -1.681475   -1.254573   -1.968190
 C   -3.518771    2.667316   -0.612544
 S    6.199254    1.234454   -1.950738
 C   -5.170567   -0.475408    1.845788
 O   -2.655180   -1.439792   -3.202052
 P   -2.104778   -2.213407    0.767587
 C   -2.512519    2.211394    0.476628
 O   -2.837388    2.709926    1.751043
 C    4.462420    1.606866   -2.415626
 N   -4.863260    0.687022    1.292117
 O   -2.527189   -1.958016   -0.785921
 C   -1.180613    2.726194   -0.067568
 O   -0.994696    4.094989    0.288821
 P   -0.015626    4.452988    1.521365
 C    3.786641    2.757526   -1.670254
 C   -4.884195    0.618961   -0.050026
 O   -3.190830   -3.270978    1.242881
 C   -1.405207    2.651755   -1.575128
 O   -2.789464    2.994475   -1.756882
 N    3.526648    2.456681   -0.281880
 C    6.161044   -1.454762    1.307375
 C   -5.270558   -0.470161   -0.816619
 O   -2.012320   -0.972004    1.554756
 C   -1.062587    1.311482   -2.207742
 O   -1.786604    0.274043   -1.515488
 C    2.471726    1.729399    0.123419
 O    1.566351    1.388773   -0.649973
 C   -5.578220   -1.646518   -0.111603
 N   -5.906111   -2.794432   -0.727435
 O   -0.814362   -3.092102    0.532154
 C    2.468504    1.356766    1.593958
 N   -5.067456   -0.220427   -2.162362
 O    1.433249    4.480423    1.260489
 C    1.336264    0.400416    1.958238
 C   -4.573275    0.995948   -2.180295
 O   -0.427534    3.425815    2.662511
 N    1.362246   -0.819000    1.174331
 N   -4.437771    1.559501   -0.943723
 O   -0.637685    5.881597    1.906494
 C    2.069183   -1.896182    1.576189
 O    2.600920   -1.987364    2.679057
 C    2.104976   -3.082165    0.598674
 O    1.859255   -2.703537   -0.745126
 C    1.216346   -4.261612    1.100212
 C   -0.129498   -3.756116    1.618375
 C    1.916580   -4.963214    2.275136
 C    1.004050   -5.266031   -0.039991
 H    7.103765   -1.265143   -0.646401
 H    3.097952   -1.495373   -0.978629
 H    6.095272   -3.218273   -1.787778
 H    4.263161   -3.193661   -2.119265
 H   -4.098976    3.531461   -0.281082
 H   -5.129578   -0.522716    2.929627
 H   -3.575163   -1.140378   -3.005541
 H   -2.450065    1.121774    0.503789
 H   -3.541499    2.118404    2.078630
 H    4.540101    1.852552   -3.479679
 H    3.870779    0.696706   -2.312056
 H   -0.326195    2.112808    0.222794
 H    4.396247    3.663605   -1.718833
 H    2.827090    2.962680   -2.154251
 H   -4.026557   -2.834082    1.531671
 H   -0.813857    3.419679   -2.078814
 H    4.279109    2.605244    0.375345
 H    6.373481   -2.526658    1.348322
 H    6.916508   -0.920585    1.889446
 H    5.184520   -1.283723    1.769422
 H    0.010433    1.131973   -2.115248
 H   -1.368330    1.319320   -3.259400
 H   -5.798414   -2.868601   -1.726714
 H   -5.945750   -3.643266   -0.184789
 H    2.376865    2.281035    2.175318
 H    3.432903    0.897487    1.839852
 H    1.427387    0.117621    3.007879
 H    0.359859    0.870694    1.826836
 H   -4.244142    1.518483   -3.065639
 H   -1.373847    3.154917    2.593657
 H    1.148449   -0.713053    0.192329
 H    0.078608    6.517801    2.032449
 H    3.142379   -3.432889    0.596470
 H    0.917999   -2.554205   -0.953246
 H   -0.754851   -4.591545    1.948960
 H    0.001494   -3.049486    2.443814
 H    1.284101   -5.765444    2.672803
 H    2.851938   -5.416434    1.930957
 H    2.156633   -4.258689    3.074061
 H    0.429415   -4.841636   -0.866005
 H    1.968854   -5.595926   -0.438144
 H    0.470402   -6.146560    0.335611
