45 
2yiq_ligand_xtb.xyz
 C   -5.270259   -0.586677   -0.147568
 C   -6.562720   -0.156367   -0.167104
 N   -7.717851   -0.908182   -0.357591
 C   -8.702643   -0.067116   -0.299186
 C   -8.281792    1.295052   -0.066207
 C   -6.904977    1.239039    0.020019
 C   -5.876474    2.181693    0.231410
 C   -4.581885    1.751024    0.250552
 C   -4.249562    0.381924    0.063831
 N   -2.945765    0.046365    0.092751
 C   -2.308672   -1.192388   -0.082363
 O   -2.885955   -2.238810   -0.276803
 C   -0.874442   -0.988897    0.007265
 N   -0.398239    0.272820    0.247637
 C    0.147990   -1.927966   -0.128340
 C    1.348857   -1.200790    0.045442
 C    2.692152   -1.534632    0.029395
 C    0.933815    0.162489    0.277738
 C    1.898074    1.157712    0.487325
 C    3.220796    0.802049    0.459003
 C    3.644811   -0.531477    0.236739
 C    5.067213   -0.822247    0.205066
 C    5.560762   -2.229835    0.417055
 N    5.842316    0.181456   -0.018807
 N    7.163090    0.074239   -0.113927
 C    7.948855    1.201179   -0.366922
 N    9.209306    1.171842   -0.512568
 N    7.253259    2.363341   -0.402825
 H   -5.009038   -1.622683   -0.287510
 H   -9.720171   -0.395176   -0.417656
 H   -8.924772    2.150192    0.017889
 H   -6.118239    3.224603    0.374627
 H   -3.773627    2.450201    0.408878
 H   -2.241793    0.777494    0.247014
 H    0.026959   -2.975187   -0.320593
 H    2.986964   -2.552905   -0.176815
 H    1.594206    2.176804    0.670834
 H    3.985731    1.543233    0.629378
 H    5.782795   -2.709151   -0.537861
 H    6.470517   -2.226188    1.018915
 H    4.819719   -2.822950    0.942706
 H    7.643250   -0.819112   -0.015717
 H    9.632660    0.256577   -0.412632
 H    7.732711    3.159410   -0.781988
 H    6.257542    2.279543   -0.526651
