49 
2yir_ligand_dft.xyz
 N   49.040884   16.460191  -12.097243
 N   48.219562   15.835405   -9.210610
 N   47.356456   14.956359   -5.789837
 N   47.241732   12.300065   -0.027801
 N   47.355105   11.643322    1.151946
 N   46.822296   11.243177    3.335379
 N   45.536096   12.814629    2.037419
 C   47.434880   18.300903  -11.888203
 C   46.494297   19.033806  -11.152684
 C   46.179483   18.683497   -9.849395
 C   46.811414   17.581103   -9.260897
 C   47.765654   16.836091  -10.004705
 C   48.069422   17.208706  -11.323624
 C   46.725617   16.961390   -7.974336
 C   47.598416   15.903649   -7.985987
 C   47.990452   14.868813   -6.994012
 C   47.504978   14.137145   -4.652963
 C   48.381130   13.054963   -4.596717
 C   48.472370   12.288120   -3.435303
 C   47.682417   12.595043   -2.319443
 C   46.802021   13.681759   -2.390444
 C   46.713856   14.444385   -3.538384
 C   49.425370   11.117992   -3.375824
 C   48.841336    9.995961   -2.520267
 C   48.550008   10.490090   -1.101992
 C   47.788688   11.799610   -1.074956
 C   46.486879   11.984091    2.192982
 O   49.575296   15.499027  -11.548675
 O   49.277579   16.816003  -13.239978
 O   48.825572   14.028240   -7.296148
 H   48.907498   15.140680   -9.464721
 H   46.687493   15.705110   -5.688766
 H   46.282581   11.493234    4.152486
 H   47.814627   11.227025    3.538069
 H   45.082721   13.003755    2.930419
 H   47.683116   18.572370  -12.907024
 H   46.010587   19.885806  -11.617651
 H   45.449062   19.257906   -9.287538
 H   46.088826   17.281465   -7.161044
 H   48.988419   12.812537   -5.458423
 H   46.192720   13.914398   -1.523435
 H   46.021845   15.283040   -3.575428
 H   49.640493   10.759373   -4.387479
 H   50.384563   11.442731   -2.947200
 H   47.911298    9.642654   -2.981437
 H   49.526833    9.143223   -2.479315
 H   47.982517    9.716555   -0.565074
 H   49.494514   10.621431   -0.552404
 H   47.659020   10.675172    1.153667
