82 
2yis_ligand_dft.xyz
 C    3.561592    4.895453    1.220317
 C    4.389974    4.483378   -0.009380
 C    3.657311    4.924241   -1.289386
 C    5.765853    5.156684    0.051032
 C    4.532551    2.977486   -0.025179
 C    3.478556    2.027518   -0.027883
 C    4.114063    0.811218   -0.054690
 N    3.645162   -0.498428   -0.004752
 C    2.310829   -0.842496   -0.124759
 O    1.431158   -0.031383   -0.357557
 N    2.067551   -2.186129    0.013407
 C    0.699138   -2.658668    0.046222
 C   -0.029267   -2.388313    1.354468
 C    0.678717   -2.375441    2.558549
 C    0.046881   -2.132337    3.770617
 C   -1.324872   -1.897589    3.803926
 C   -2.048646   -1.916648    2.620376
 C   -1.410664   -2.158604    1.401450
 S   -2.400239   -2.148089   -0.096544
 C   -2.840086   -0.422549   -0.168948
 C   -1.835317    0.585832   -0.367393
 C   -2.194040    1.895500   -0.458166
 C   -3.569205    2.248423   -0.365405
 N   -4.184998    3.416145   -0.399324
 N   -5.514584    3.171341   -0.244767
 C   -5.708833    1.875620   -0.130763
 C   -6.989955    1.206457    0.163005
 C   -7.671173    1.607005    1.318279
 C   -8.864936    1.006383    1.689110
 C   -9.399519   -0.003164    0.893139
 C   -8.755312   -0.384161   -0.275807
 C   -7.547558    0.206851   -0.653653
 S   -6.795198   -0.150043   -2.233522
 C   -6.874018   -1.968403   -2.384371
 C   -5.711928   -2.727274   -1.767295
 O   -5.836722   -2.705988   -0.358994
 N   -4.495211    1.234164   -0.188999
 C   -4.153419   -0.087416   -0.070327
 N    5.458242    1.058469   -0.088959
 N    5.719187    2.395183   -0.049276
 C    6.527745    0.135507   -0.077885
 C    7.590940    0.321762    0.808616
 C    8.646395   -0.572053    0.823977
 C    8.660412   -1.682148   -0.026240
 O    9.706445   -2.528475    0.053210
 C    7.590580   -1.850720   -0.908859
Cl    7.599641   -3.224685   -1.996139
 C    6.538405   -0.943408   -0.957307
 H    2.564002    4.443465    1.201861
 H    4.057091    4.585312    2.146667
 H    3.437257    5.984213    1.245629
 H    4.226360    4.639566   -2.180759
 H    2.665421    4.464836   -1.359717
 H    3.527854    6.012761   -1.296995
 H    6.310471    4.863096    0.953690
 H    6.379668    4.880282   -0.811115
 H    5.644385    6.245811    0.058098
 H    2.414585    2.190877   -0.008838
 H    4.325836   -1.212266    0.211139
 H    2.797495   -2.802305    0.333803
 H    0.718391   -3.734683   -0.157264
 H    0.160876   -2.190200   -0.778706
 H    1.753026   -2.535225    2.541803
 H    0.626087   -2.121042    4.688838
 H   -1.828047   -1.701119    4.745318
 H   -3.117770   -1.726712    2.628857
 H   -0.790505    0.293381   -0.427047
 H   -1.465481    2.684632   -0.598965
 H   -7.237281    2.396725    1.922965
 H   -9.376166    1.323953    2.592246
 H  -10.335631   -0.479654    1.168252
 H   -9.213828   -1.131943   -0.914390
 H   -6.885574   -2.150196   -3.463403
 H   -7.817487   -2.344409   -1.981042
 H   -4.764186   -2.275256   -2.093353
 H   -5.739493   -3.763169   -2.140567
 H   -5.006268   -3.039152    0.011042
 H   -4.962144   -0.793847    0.082035
 H    7.579624    1.183017    1.466287
 H    9.482400   -0.439241    1.501873
 H    9.606968   -3.228778   -0.607529
 H    5.753478   -1.064951   -1.696212
