17 
2yiv_ligand_xtb.xyz
 C   -2.659015   -0.577022    0.269634
 N   -1.551792   -0.422278   -0.286905
 C   -0.895483    0.849574   -0.261203
 C    0.494050    0.705770    0.366805
 C    1.388462   -0.233226   -0.437392
 C    2.746489   -0.423734    0.225891
 H   -3.208405    0.217403    0.791697
 H   -3.122373   -1.552365    0.237958
 H   -1.479714    1.611520    0.283603
 H   -0.782668    1.170343   -1.301874
 H    0.382667    0.320206    1.382976
 H    0.952784    1.695115    0.429644
 H    1.527097    0.174760   -1.440976
 H    0.884151   -1.195054   -0.535692
 H    3.262108    0.529672    0.324531
 H    2.630149   -0.852907    1.218739
 H    3.369730   -1.090913   -0.364683
