72 
2yiw_ligand_xtb.xyz
 C   -9.228658   -1.396895   -0.346063
 C   -8.809052   -0.322099   -1.356066
 C  -10.031694    0.323713   -2.001435
 C   -7.992679    0.715207   -0.666317
 N   -8.417882    1.866363   -0.213249
 N   -7.419288    2.518823    0.373978
 C   -6.344272    1.767997    0.293104
 C   -5.022154    1.970382    0.733469
 C   -4.095739    1.002436    0.505997
 C   -4.466312   -0.200771   -0.155228
 S   -3.254160   -1.440392   -0.519763
 C   -2.280015   -1.390177    0.974760
 C   -2.918435   -1.374303    2.205025
 C   -2.171504   -1.328241    3.367785
 C   -0.789867   -1.308271    3.296122
 C   -0.158289   -1.342188    2.064342
 C   -0.888735   -1.390111    0.886462
 C   -0.229600   -1.406447   -0.471514
 N    1.204382   -1.529555   -0.442527
 C    1.993189   -0.409773   -0.482682
 O    1.557751    0.697947   -0.688343
 N    3.330708   -0.695732   -0.309861
 C    4.336408    0.258783   -0.304656
 C    4.284564    1.624858   -0.171348
 C    5.635107    2.034213   -0.120126
 N    6.439013    0.995371   -0.204113
 N    5.656056   -0.092569   -0.336087
 C    6.237441   -1.356567   -0.470910
 C    7.412472   -1.627867    0.225663
 C    8.012368   -2.866366    0.110257
 C    7.448560   -3.844304   -0.694153
 C    6.295416   -3.566545   -1.407906
 C    5.690988   -2.325480   -1.309486
 C    6.149365    3.439475   -0.009047
 C    5.422082    4.162217    1.129878
 C    7.653549    3.424334    0.265137
 C    5.871395    4.158844   -1.335335
 C   -5.742793   -0.394469   -0.588643
 N   -6.662135    0.579674   -0.372222
 H   -8.360491   -1.860118    0.119729
 H   -9.841531   -0.950119    0.433096
 H   -9.807550   -2.171218   -0.843636
 H   -8.191363   -0.788589   -2.134591
 H  -10.620779    0.830552   -1.243151
 H   -9.726550    1.059818   -2.740247
 H  -10.643641   -0.432043   -2.487801
 H   -4.781922    2.895628    1.228472
 H   -3.070904    1.132008    0.816617
 H   -3.997424   -1.388958    2.249694
 H   -2.670695   -1.308994    4.324290
 H   -0.200680   -1.265640    4.199444
 H    0.920278   -1.310929    2.019550
 H   -0.447643   -0.459454   -0.978564
 H   -0.647114   -2.220956   -1.072641
 H    1.583046   -2.405001   -0.118971
 H    3.624096   -1.652513   -0.175557
 H    3.399369    2.220751   -0.124915
 H    7.838357   -0.849153    0.837776
 H    8.922711   -3.072322    0.652824
 H    7.914747   -4.814224   -0.777515
 H    5.868462   -4.314960   -2.059353
 H    4.826782   -2.099108   -1.916922
 H    4.355392    4.222287    0.931255
 H    5.568873    3.634306    2.069742
 H    5.810057    5.172936    1.236885
 H    7.858685    2.931995    1.212050
 H    8.170785    2.878060   -0.517948
 H    8.038767    4.440748    0.306193
 H    6.393803    3.661513   -2.149463
 H    4.806629    4.155402   -1.555774
 H    6.213063    5.190333   -1.281759
 H   -6.055670   -1.285483   -1.109798
