33 
2yjw_ligand_xtb.xyz
 N   -0.132297   -2.623932   -0.332443
 C   -0.074120   -1.324948   -0.198212
 C   -1.394205   -0.777302   -0.091738
 C   -2.202576   -1.883254   -0.171856
 C    1.180929   -0.581384   -0.227330
 C   -1.770373    0.617798    0.105440
 C   -3.674501   -2.056480   -0.104259
 C   -1.066574    1.410584    1.009444
 C   -1.420629    2.732376    1.200670
 C   -2.478404    3.281072    0.493893
 C   -3.182426    2.499509   -0.406382
 C   -2.832907    1.175622   -0.600607
 C    2.295049   -1.013846    0.507363
 C    3.481180   -0.298346    0.442638
 C    3.578638    0.842927   -0.343557
 C    2.473825    1.278746   -1.064816
 C    1.291730    0.567705   -0.999424
 O    4.769023    1.498029   -0.370071
 O   -1.437805   -2.980135   -0.310476
 O    2.171413   -2.103032    1.298738
 H   -4.123361   -1.212121    0.412491
 H   -4.097104   -2.121611   -1.107179
 H   -3.909650   -2.979446    0.420844
 H   -0.246058    0.981310    1.565153
 H   -0.870121    3.337640    1.906033
 H   -2.752640    4.314904    0.643931
 H   -4.006232    2.923561   -0.962157
 H   -3.372076    0.573113   -1.316673
 H    4.348787   -0.617939    1.001758
 H    2.541605    2.167387   -1.676699
 H    0.437680    0.902632   -1.568224
 H    4.705599    2.263809   -0.953428
 H    3.020785   -2.309273    1.708127
