34 
2yk9_ligand_dft.xyz
 C    8.543335   10.399660   23.256507
 C    7.439537    9.750842   22.708898
 C    8.411287   11.574962   24.003837
 C    6.160098   10.275165   22.896794
 C   11.518431   14.827140   28.222206
 C   12.814613   14.745453   27.735557
 C   12.182326   14.286059   25.571693
 C    7.139022   12.091536   24.206441
 C    6.033539   11.432784   23.641532
 C   10.517007   14.615185   27.277601
 C   10.835567   14.337299   25.938497
 C    8.703205   14.308786   26.036750
 C    6.640331   13.288209   24.954046
 C    4.789349   12.179430   23.971817
 C    7.258180   14.256081   25.751706
 C    6.445489   15.243800   26.342544
 C    5.069600   15.279773   26.166634
 C    4.449222   14.303980   25.386351
 N   13.150791   14.485883   26.456551
 N    9.144767   14.603584   27.314740
 C    5.243625   13.338064   24.803927
 N    9.685945   14.153843   25.189967
 O    3.650592   11.916348   23.651818
 H    9.536479    9.990976   23.094702
 H    7.576948    8.842609   22.130385
 H    9.286060   12.084598   24.385528
 H    5.278613    9.800426   22.476774
 H   11.317085   15.041772   29.266087
 H   13.650493   14.898917   28.413600
 H   12.472864   14.079722   24.544116
 H    8.560549   14.673649   28.132931
 H    6.920670   16.022681   26.933198
 H    4.486616   16.066947   26.633503
 H    3.374766   14.286836   25.231763
