42 
2ym7_ligand_xtb.xyz
 C    3.682268   -1.034331    0.504352
 C    3.476731   -2.131102    1.538120
 N    3.181726   -3.414882    0.841853
 C    1.952799   -3.319486    0.006644
 C    2.139826   -2.237236   -1.046812
 C    2.443350   -0.894007   -0.382095
 C    2.639419    0.219847   -1.431750
 N    2.728961    1.511879   -0.812778
 C    1.658381    2.232186   -0.386301
 C    0.354629    1.725219   -0.359972
 N    1.937665    3.466143    0.049732
 C    0.927492    4.186148    0.489433
 N   -0.331915    3.810936    0.573500
 C   -0.613905    2.573054    0.155372
 N   -1.946305    2.235475    0.286956
 C   -2.553162    1.029991    0.148301
 C   -3.951596    0.917788    0.356595
 N   -4.578747   -0.220305    0.258699
 C   -3.858198   -1.307039   -0.057006
 C   -4.489708   -2.569913   -0.157669
 N   -4.909747   -3.632148   -0.246132
 C   -2.485543   -1.204552   -0.271683
 N   -1.838618   -0.056416   -0.166396
 H    4.557832   -1.258578   -0.109460
 H    3.871406   -0.092218    1.017890
 H    2.630308   -1.892005    2.184485
 H    4.366256   -2.258163    2.157167
 H    3.086586   -4.174374    1.524420
 H    3.973764   -3.635876    0.224808
 H    1.115317   -3.070714    0.661339
 H    1.760576   -4.288401   -0.457344
 H    1.227810   -2.164242   -1.638346
 H    2.949987   -2.509673   -1.726937
 H    1.595655   -0.608641    0.246670
 H    1.798501    0.193600   -2.133967
 H    3.555322    0.036768   -1.996394
 H    3.588301    2.034456   -0.862093
 H    0.085794    0.751902   -0.721828
 H    1.157099    5.188569    0.823765
 H   -2.519040    3.010788    0.599324
 H   -4.550998    1.781029    0.610330
 H   -1.888323   -2.068422   -0.535047
