25 
2ymd_ligand_dft.xyz
 O   -3.118565   -1.842091   -0.194386
 C   -2.225737   -0.800555   -0.123801
 C   -2.733161    0.426687    0.352300
 C   -1.914480    1.536972    0.447108
 C   -0.565373    1.441700    0.074374
 N    0.408496    2.408880    0.132447
 C    1.517733    1.796983   -0.280654
 C    1.337679    0.432567   -0.623157
 C   -0.055653    0.194548   -0.399269
 C   -0.896802   -0.938362   -0.489434
 C    2.357861   -0.598451   -0.989402
 C    2.976582   -1.213833    0.299140
 N    1.883460   -1.241177    1.321833
 H   -2.700719   -2.566573   -0.673523
 H   -3.782186    0.473632    0.625984
 H   -2.305242    2.483830    0.809098
 H    2.459064    2.341857   -0.337590
 H   -0.533314   -1.888170   -0.890897
 H    3.181045   -0.187939   -1.583072
 H    1.906118   -1.401573   -1.585345
 H    3.746221   -0.554524    0.705710
 H    3.384909   -2.218708    0.176247
 H    2.199414   -1.227218    2.289897
 H    1.333493   -0.351769    1.050795
 H    1.224129   -2.009565    1.184602
