25 
2ymd_ligand_xtb.xyz
 O   -3.327883   -1.990765   -0.006807
 C   -2.480779   -0.923891    0.017735
 C   -3.039926    0.349184   -0.083369
 C   -2.244176    1.479689   -0.064788
 C   -0.875859    1.313095    0.054280
 N    0.107624    2.305405    0.088895
 C    1.235561    1.722853    0.200253
 C    1.175161    0.216433    0.262730
 C   -0.307544    0.031702    0.155583
 C   -1.101716   -1.091121    0.139280
 C    1.980063   -0.481280   -0.841469
 C    3.476663   -0.472369   -0.534811
 N    3.724408   -1.159396    0.723482
 H   -2.824567   -2.809587    0.075863
 H   -4.111623    0.425154   -0.175593
 H   -2.673948    2.465264   -0.140908
 H    2.150573    2.287793    0.244358
 H   -0.677688   -2.084352    0.222081
 H    1.795189    0.008671   -1.799088
 H    1.639293   -1.516491   -0.920127
 H    3.825752    0.557061   -0.423037
 H    4.014690   -0.919175   -1.388554
 H    4.703463   -1.097831    0.977847
 H    1.565551   -0.135268    1.224149
 H    3.487467   -2.142941    0.638279
