57 
2ynd_ligand_xtb.xyz
 C   -6.941034   -0.281324   -1.368147
 C   -2.679671    2.243534   -0.095566
 C   -5.114190    4.069360   -0.300744
 O   -3.714899   -0.361999    1.755241
 O   -3.503054   -2.622785    0.789927
Cl   -1.836395   -2.564851   -1.673360
Cl   -1.297571    0.426102    2.774523
 C    4.806662   -2.315316   -0.418339
 C    3.428865   -2.310872   -0.334075
 C    0.509446   -1.744803   -0.708495
 C    0.736971   -0.409753    1.273399
 C    3.573152   -0.034241    0.381449
 C    7.896398    0.604248   -0.610096
 C    6.242768    2.263154   -1.360990
 C    7.203658    0.594711    0.754232
 C    5.593050    2.202297    0.032197
 N    5.558389   -1.260133   -0.140304
 N   -6.227266    2.028599   -0.878764
 N    7.690419    1.942891   -1.233550
 N   -3.838517   -0.655464   -0.767254
 C   -5.931618    0.747485   -1.003786
 C   -4.051703    1.809206   -0.458589
 C   -0.867944   -1.720727   -0.549889
 C   -0.645354   -0.396142    1.423689
 C    2.786146   -1.139605    0.077023
 C    1.322927   -1.088775    0.211097
 C    4.955873   -0.146988    0.264797
 C   -4.555622    0.555577   -0.756724
 C   -1.466433   -1.044568    0.507619
 N    5.800851    0.910381    0.632047
 N   -5.103652    2.656979   -0.542610
 S   -3.272093   -1.214835    0.702779
 H   -6.925372   -1.098615   -0.647422
 H   -7.926995    0.173000   -1.373278
 H   -6.736844   -0.688872   -2.358795
 H   -2.587706    2.351476    0.985277
 H   -1.961918    1.496711   -0.429311
 H   -2.443274    3.200085   -0.559448
 H   -6.144483    4.404755   -0.394844
 H   -4.748896    4.290086    0.703421
 H   -4.496248    4.596101   -1.031640
 H    5.350211   -3.197171   -0.727578
 H    2.864406   -3.201260   -0.552392
 H    0.931618   -2.269316   -1.550201
 H    1.340967    0.078481    2.020526
 H    3.117506    0.882639    0.717458
 H    7.434123   -0.161138   -1.236257
 H    8.963533    0.406229   -0.514240
 H    6.123408    3.251933   -1.805437
 H    5.783607    1.516029   -2.011647
 H    7.665616    1.323352    1.427823
 H    7.295875   -0.400132    1.188817
 H    4.527349    2.404573   -0.065279
 H    6.027090    2.969866    0.681852
 H    8.146170    1.981734   -2.151870
 H    8.128618    2.650582   -0.628809
 H   -4.329464   -1.388282   -1.259644
