49 
2yog_ligand_xtb.xyz
 O    0.745736   -4.156615   -1.178268
 C    0.264007   -3.415936   -0.353488
 N   -0.891483   -3.688859    0.322376
 C   -1.526524   -2.924601    1.301104
 O   -2.532005   -3.325232    1.834240
 C   -0.842191   -1.664440    1.583281
 C   -1.470575   -0.745877    2.578569
 C    0.305016   -1.388742    0.940888
 N    0.867667   -2.221450    0.007376
 C    2.091870   -1.873815   -0.699908
 O    2.216609   -0.474994   -0.827090
 C    3.356416   -2.377100    0.012033
 C    4.345232   -1.222587   -0.200809
 O    5.401663   -1.142631    0.697827
 C    3.389186   -0.010178   -0.167248
 C    3.925207    1.246831   -0.872040
 N    3.489170    2.480657   -0.260641
 C    2.218646    2.908321   -0.035858
 S    2.030768    4.273187    0.874772
 N    1.228482    2.163843   -0.591585
 C   -0.143547    2.171598   -0.387547
 C   -0.838088    1.047387   -0.838363
 C   -0.857446    3.199770    0.227659
 C   -2.222851    3.090961    0.398036
 C   -2.909935    1.963576   -0.030352
Cl   -4.613296    1.857311    0.198863
 C   -2.204328    0.932210   -0.650583
 C   -2.910026   -0.313024   -1.115782
 F   -3.752671   -0.083571   -2.133826
 F   -3.623740   -0.899436   -0.146655
 F   -2.046522   -1.250743   -1.551501
 H   -1.351568   -4.556360    0.066380
 H   -2.524772   -0.623885    2.338157
 H   -0.981691    0.224750    2.583371
 H   -1.418957   -1.183529    3.574630
 H    0.839592   -0.467459    1.118529
 H    1.995007   -2.314975   -1.701204
 H    3.700565   -3.322945   -0.395108
 H    3.157788   -2.501873    1.079952
 H    4.804163   -1.291815   -1.192363
 H    5.071011   -1.182355    1.604183
 H    3.164662    0.239180    0.884606
 H    3.627208    1.202980   -1.926669
 H    5.014466    1.229271   -0.821940
 H    4.185943    3.057582    0.185531
 H    1.536617    1.338846   -1.094727
 H   -0.301642    0.251375   -1.332364
 H   -0.342054    4.079531    0.575063
 H   -2.769498    3.890467    0.870874
