48 
2yoh_ligand_xtb.xyz
 O    4.163103    2.934191    0.000222
 C    4.748270    1.879494    0.084934
 N    6.115006    1.794257    0.130189
 C    6.911557    0.655096    0.222495
 O    8.116557    0.750351    0.243894
 C    6.141435   -0.582272    0.283278
 C    6.901028   -1.864586    0.380993
 C    4.799357   -0.514503    0.247292
 N    4.098450    0.660019    0.160412
 C    2.647547    0.652722    0.067712
 O    2.221355   -0.170847   -0.999362
 C    1.965116    0.142825    1.345660
 C    0.800302   -0.678939    0.789219
 O    0.348653   -1.652017    1.672285
 C    1.445126   -1.247630   -0.493581
 C    0.470742   -1.757260   -1.560669
 N   -0.660482   -0.892886   -1.796124
 C   -1.762126   -0.995231   -0.998756
 O   -1.861997   -1.843980   -0.134174
 N   -2.737990   -0.069296   -1.304613
 C   -4.001362    0.068837   -0.748244
 C   -4.836627    1.059507   -1.278105
 C   -6.101261    1.251982   -0.772613
 C   -4.458783   -0.726409    0.305143
 C   -5.725414   -0.533980    0.811773
 C   -6.546892    0.451817    0.275264
 N   -7.866955    0.647203    0.803007
 O   -8.551247    1.517076    0.303015
 O   -8.222178   -0.068115    1.716847
 H    6.606250    2.680935    0.080661
 H    7.578061   -1.956032   -0.466469
 H    6.229333   -2.717774    0.402721
 H    7.513566   -1.861713    1.281038
 H    4.193144   -1.407259    0.277476
 H    2.372345    1.690697   -0.162229
 H    1.641012    0.954500    1.990074
 H    2.625512   -0.515533    1.910558
 H   -0.010210    0.011063    0.507224
 H   -0.482159   -2.011711    1.317384
 H    2.093226   -2.092641   -0.212068
 H    0.076072   -2.721164   -1.230978
 H    1.015384   -1.883154   -2.497409
 H   -0.490169   -0.061872   -2.338745
 H   -2.544975    0.558417   -2.073196
 H   -4.484860    1.676575   -2.092242
 H   -6.756305    2.010496   -1.172397
 H   -3.818798   -1.490388    0.711771
 H   -6.094691   -1.140602    1.624144
