50 
2yoj_ligand_xtb.xyz
 C   -2.513964   -0.149594   -1.235385
 C   -2.358168   -0.035768    0.128043
 C   -3.462788   -0.062054    0.979164
 C   -4.762468   -0.202670    0.457080
 C   -4.928196   -0.306681   -0.927241
 C   -3.816255   -0.280561   -1.732253
 C    2.811163   -1.310658    0.401532
 C    1.666315    0.766738   -0.419563
 C    0.511724    1.090734   -1.167367
 N   -0.087077   -0.076705   -1.530392
 C    0.645012   -1.136217   -1.040737
 C    1.740881   -0.650789   -0.346689
 C    0.917203    3.421602   -0.954134
 C    0.127165    2.412657   -1.436565
 C    0.114590   -2.523086   -1.127127
 C   -1.353192   -0.165697   -2.200654
 O   -1.073635   -2.740698   -1.099774
 C    3.801857   -2.160310   -0.304185
 N    5.070920   -2.194317    0.247076
 C    5.247044   -1.980201    1.480867
 C    4.152424   -1.687950    2.445134
 C    2.965676   -1.147256    1.722266
 O    3.537791   -2.792377   -1.310247
 O    0.993625   -3.506622   -1.207449
 F   -3.975908   -0.373755   -3.066670
 C   -3.275603    0.043909    2.423600
 O   -2.222548    0.176115    3.008603
 N   -4.475084   -0.019734    3.129435
 N   -5.870531   -0.240098    1.267412
 C   -5.686644   -0.154217    2.526738
 F    0.572923    4.702596   -1.190612
 C    2.081050    3.155020   -0.211962
 C    2.447422    1.826320    0.050964
 O    3.582911    1.788789    0.773537
 C    3.088379    3.953351    0.408691
 C    3.951573    3.078825    0.975845
 H   -1.383127    0.066616    0.578159
 H   -5.915699   -0.414305   -1.343929
 H   -0.763658    2.649135   -1.994214
 H   -1.442683    0.669704   -2.903193
 H   -1.399888   -1.094293   -2.776792
 H    6.269607   -1.994369    1.841110
 H    4.502655   -0.975852    3.196917
 H    3.876097   -2.598235    2.991703
 H    2.223732   -0.620185    2.304540
 H    1.934654   -3.216270   -1.340123
 H   -4.403086    0.040855    4.137871
 H   -6.550906   -0.187580    3.176879
 H    3.143071    5.021934    0.418586
 H    4.850139    3.234906    1.539575
