14 
2ypi_ligand_xtb.xyz
 P   -1.139229   -0.021126    0.143670
 O   -1.382390   -1.444200   -0.479801
 O   -2.559668    0.614789   -0.145954
 O   -0.668242    0.106990    1.525230
 O   -0.198808    0.812187   -0.897819
 C    1.080957    1.123189   -0.432243
 C    1.840830   -0.150043   -0.087010
 O    1.338497   -1.231841   -0.189677
 O    3.094312    0.009531    0.330578
 H   -0.582870   -1.974480   -0.429534
 H   -2.821314    1.164045    0.591549
 H    1.021210    1.738081    0.476326
 H    1.588589    1.675793   -1.230025
 H    3.362486    0.934921    0.411707
