25 
2ypp_ligand_xtb.xyz
 N    1.277676   -1.206651   -0.860498
 C    1.730060    0.157567   -0.486223
 C    3.212001   -0.001496   -0.108449
 O    3.663403   -1.111841    0.017803
 C    0.932308    0.638594    0.747031
 C   -0.537414    0.423549    0.507908
 C   -1.319834    1.396705   -0.100355
 C   -1.119518   -0.807292    0.826608
 C   -2.651046    1.158452   -0.379753
 C   -2.448373   -1.055175    0.542450
 C   -3.228363   -0.073707   -0.071547
 O   -4.509306   -0.367269   -0.335763
 O    3.829768    1.130115    0.073154
 H    1.201057   -1.352962   -1.870046
 H    0.349839   -1.384698   -0.401743
 H    2.035446   -1.834888   -0.486938
 H    1.609058    0.860531   -1.311291
 H    1.153459    1.691836    0.912434
 H    1.254793    0.079374    1.627431
 H   -0.889877    2.356612   -0.342233
 H   -0.563781   -1.549128    1.388210
 H   -3.251940    1.932641   -0.834284
 H   -2.910148   -1.993500    0.801917
 H   -4.979787    0.386647   -0.714469
 H    4.758307    1.022883    0.346933
