101 
2yxj_ligand_dft.xyz
 O   -8.541821  -11.331311    8.409517
 N   -9.596902  -11.165841    9.028051
 O  -10.685040  -11.467669    8.562420
 C   -9.551907  -10.593288   10.357448
 C   -8.329860  -10.392095   11.067443
 N   -7.124460  -10.666500   10.530713
 C   -5.833965  -10.594385   11.193245
 C   -5.606110  -11.753865   12.181286
 S   -5.746819  -13.431379   11.475903
 C   -7.521822  -13.645145   11.455340
 C   -8.279038  -13.480056   12.616746
 C   -9.662302  -13.607583   12.575146
 C  -10.296832  -13.949374   11.383107
 C   -9.541419  -14.152692   10.231322
 C   -8.157707  -13.988049   10.260760
 C   -4.739439  -10.516286   10.125795
 C   -4.852471   -9.267229    9.251985
 N   -3.937915   -9.282519    8.122201
 C   -4.275940   -8.238057    7.171729
 C   -2.548441   -9.174868    8.528123
 C   -8.454515   -9.877632   12.385358
 C   -9.673308   -9.552214   12.931923
 C  -10.780924  -10.246627   10.910391
 C  -10.843312   -9.717554   12.181865
 S  -12.411877   -9.227085   12.839060
 O  -12.185997   -8.543161   14.092103
 O  -13.216940   -8.637185   11.781991
 N  -13.201266  -10.704531   13.094950
 C  -12.612711  -11.775672   13.752750
 O  -11.673883  -11.600651   14.508638
 C  -13.109928  -13.130263   13.396460
 C  -12.675396  -14.196699   14.183979
 C  -12.839262  -15.509556   13.776078
 C  -13.805868  -13.423191   12.217011
 C  -13.979985  -14.731762   11.804636
 C  -13.440296  -15.805169   12.539879
 N  -13.481891  -17.101180   12.012125
 C  -12.960936  -18.152920   12.881913
 C  -13.129332  -19.528544   12.254434
 C  -12.957176  -17.193988   10.639572
 C  -13.095682  -18.598171   10.073258
 N  -12.469333  -19.540229   10.971197
 C  -12.176493  -20.836997   10.406712
 C  -11.043301  -20.770008    9.396350
 C  -11.204816  -21.397974    8.161799
 C  -10.212846  -21.360567    7.186661
 C   -9.034689  -20.669009    7.437099
 C   -8.861632  -20.030844    8.660779
 C   -9.844746  -20.073478    9.653405
 C   -9.579031  -19.352057   10.931862
 C   -9.578679  -20.012574   12.163007
 C   -9.353974  -19.322886   13.348003
 C   -9.289582  -17.985823   10.913087
 C   -9.056929  -17.277908   12.087874
 C   -9.109246  -17.953573   13.299144
Cl   -8.875895  -17.065227   14.790274
 H   -7.151826  -11.086850    9.610332
 H   -5.796216   -9.664332   11.778289
 H   -4.592460  -11.684601   12.588533
 H   -6.295115  -11.677148   13.026195
 H   -7.792404  -13.246835   13.558891
 H  -10.239135  -13.434689   13.476022
 H  -11.375070  -14.059050   11.354005
 H  -10.030944  -14.402466    9.294740
 H   -7.574631  -14.097737    9.351856
 H   -3.774409  -10.538039   10.643666
 H   -4.777966  -11.407421    9.487715
 H   -5.870062   -9.209899    8.850226
 H   -4.711254   -8.362895    9.881463
 H   -4.181882   -7.219553    7.596425
 H   -3.615252   -8.304693    6.301588
 H   -5.305863   -8.370360    6.825641
 H   -1.909007   -9.178375    7.640189
 H   -2.339046   -8.248274    9.098848
 H   -2.257136  -10.030401    9.143753
 H   -7.561588   -9.732748   12.980308
 H   -9.741134   -9.163811   13.941824
 H  -11.673816  -10.392281   10.314675
 H  -14.008869  -10.822809   12.498339
 H  -12.137118  -13.980073   15.101041
 H  -12.424887  -16.293794   14.395933
 H  -14.174362  -12.635714   11.565583
 H  -14.515613  -14.925729   10.882334
 H  -11.888435  -18.006988   13.086798
 H  -13.507139  -18.120094   13.829795
 H  -12.650263  -20.261588   12.912374
 H  -14.204071  -19.784813   12.181314
 H  -13.498075  -16.500145    9.994441
 H  -11.891866  -16.913430   10.630938
 H  -14.164627  -18.836780    9.905572
 H  -12.587593  -18.630037    9.103926
 H  -11.895480  -21.499907   11.233859
 H  -13.057472  -21.303949    9.927125
 H  -12.136654  -21.919918    7.956934
 H  -10.367458  -21.859816    6.234925
 H   -8.251813  -20.623243    6.686190
 H   -7.938396  -19.495358    8.865128
 H   -9.761204  -21.082779   12.198784
 H   -9.365162  -19.840396   14.301394
 H   -9.271462  -17.452951    9.966274
 H   -8.846882  -16.215130   12.060907
