31 
2yz3_ligand_dft.xyz
 C    2.028506   -0.705235    1.297645
 C    3.012727    0.271132    1.404839
 C    3.742424    0.654066    0.280827
 C    3.481378    0.049532   -0.944614
 C    2.493171   -0.928536   -1.045800
 C    1.751436   -1.318297    0.070881
 C    0.633034   -2.330166   -0.036366
 C   -0.747185   -1.680444    0.155503
 C   -1.104424   -0.692226   -0.965596
 C   -1.963521    0.502430   -0.504661
 C   -3.197130    0.002276    0.219055
 O   -4.003362   -0.709066   -0.595267
 O   -3.455862    0.177801    1.386445
 C   -1.210139    1.496743    0.387802
 S    0.125013    2.409372   -0.458764
 H    1.463737   -0.997231    2.180430
 H    3.207611    0.738368    2.365391
 H    4.506820    1.420724    0.360695
 H    4.042646    0.341309   -1.827412
 H    2.291685   -1.392913   -2.008162
 H    0.674265   -2.827266   -1.013052
 H    0.768046   -3.110957    0.721865
 H   -1.513989   -2.461588    0.214686
 H   -0.758461   -1.176844    1.129611
 H   -0.194984   -0.277036   -1.412539
 H   -1.629038   -1.219651   -1.768449
 H   -2.307023    1.030051   -1.402390
 H   -4.749570   -1.001618   -0.047641
 H   -1.901867    2.261164    0.748685
 H   -0.801997    1.007902    1.275080
 H    1.054043    1.438104   -0.423087
