56 
2z3h_ligand_dft.xyz
 O   -2.339644    2.920687   -0.491274
 C   -2.318155    2.050326    0.369720
 C   -3.445280    1.044095    0.544481
 C   -4.154415    0.730943   -0.786637
 C   -5.013247   -0.540177   -0.685624
 C   -4.278193   -1.879190   -0.833326
 N   -3.349601   -2.234462    0.248157
 C   -2.013747   -2.195441    0.086580
 N   -1.458360   -1.463044   -0.867988
 N   -1.220389   -2.863758    0.951964
 C   -3.936886   -2.846854    1.433615
 N   -3.168400    0.574425   -1.870365
 N   -1.259593    1.891802    1.206743
 C    0.008807    2.574272    0.979153
 C    0.972578    2.191220    2.073351
 C    1.668181    1.062973    1.951046
 C    0.620173    2.110015   -0.360037
 C    1.877154    2.901637   -0.700857
 O    2.984716    2.439914   -0.809523
 O    1.583443    4.195553   -0.869113
 O    0.853183    0.721678   -0.353533
 C    1.435050    0.130886    0.792423
 N    2.628301   -0.614568    0.410873
 C    3.898212   -0.051632    0.434303
 C    4.990854   -0.708900    0.019690
 C    4.877469   -2.056094   -0.518775
 O    5.766590   -2.765518   -0.923729
 N    3.536315   -2.518935   -0.546909
 C    2.418521   -1.864857   -0.139037
 O    1.293656   -2.365894   -0.246803
 H   -4.181593    1.461306    1.241613
 H   -3.059811    0.128540    1.002701
 H   -4.827219    1.570846   -1.000592
 H   -5.580324   -0.519001    0.252840
 H   -5.762251   -0.522529   -1.486732
 H   -3.730999   -1.919479   -1.776851
 H   -5.024644   -2.679422   -0.874455
 H   -0.447363   -1.504350   -0.969776
 H   -1.573377   -3.703377    1.386089
 H   -0.223165   -2.857894    0.735557
 H   -3.343217   -2.613601    2.320394
 H   -4.034863   -3.934401    1.327174
 H   -4.933554   -2.427537    1.580891
 H   -3.650865    0.347774   -2.738249
 H   -1.993499   -0.699931   -1.337434
 H   -2.726381    1.480439   -2.018757
 H   -1.251993    1.107220    1.840637
 H   -0.162133    3.651895    0.940317
 H    1.081328    2.832526    2.941650
 H    2.361503    0.729576    2.717594
 H   -0.106545    2.285574   -1.156024
 H    2.406657    4.659327   -1.096730
 H    0.727059   -0.637011    1.119660
 H    3.938906    0.964020    0.801877
 H    5.970088   -0.252431    0.056847
 H    3.392316   -3.438994   -0.946174
