56 
2z3h_ligand_xtb.xyz
 O   -1.921949    2.839168   -0.769613
 C   -1.991472    2.139781    0.218756
 C   -3.167351    1.218965    0.519210
 C   -4.040474    0.976553   -0.724887
 C   -5.077389   -0.135557   -0.482412
 C   -4.574688   -1.569079   -0.705906
 N   -3.639907   -2.058240    0.293861
 C   -2.320357   -2.116316    0.064509
 N   -1.772973   -1.451968   -0.937255
 N   -1.526557   -2.801848    0.904666
 C   -4.210025   -2.664588    1.480240
 N   -3.196668    0.623263   -1.870792
 N   -1.006314    2.083319    1.142002
 C    0.298124    2.696644    0.934966
 C    1.239348    2.253588    2.016171
 C    1.805606    1.059131    1.916198
 C    0.901329    2.170553   -0.393012
 C    2.253906    2.836256   -0.627924
 O    3.314113    2.279442   -0.562610
 O    2.103673    4.125608   -0.897306
 O    0.954061    0.764422   -0.377011
 C    1.457688    0.136148    0.789426
 N    2.549556   -0.754313    0.414467
 C    3.867508   -0.368875    0.446902
 C    4.860790   -1.159357    0.015584
 C    4.580476   -2.468021   -0.540878
 O    5.362431   -3.276546   -0.963060
 N    3.199751   -2.754402   -0.554906
 C    2.186003   -1.967222   -0.130630
 O    1.014068   -2.321096   -0.196278
 H   -3.781159    1.688817    1.290346
 H   -2.784567    0.278942    0.913547
 H   -4.587573    1.910975   -0.919426
 H   -5.475225   -0.033329    0.527494
 H   -5.907409    0.010237   -1.175263
 H   -4.113584   -1.654915   -1.689600
 H   -5.441301   -2.235209   -0.687819
 H   -0.768740   -1.522538   -1.038847
 H   -1.894408   -3.562868    1.448861
 H   -0.545846   -2.852120    0.642420
 H   -3.612882   -2.423815    2.359609
 H   -4.290349   -3.751197    1.383472
 H   -5.208739   -2.262883    1.631312
 H   -3.773710    0.500344   -2.697467
 H   -2.280067   -0.655284   -1.410595
 H   -2.571383    1.405480   -2.055293
 H   -1.104180    1.484727    1.946391
 H    0.195167    3.784320    0.878547
 H    1.448278    2.919937    2.836332
 H    2.492736    0.676309    2.653237
 H    0.240552    2.429761   -1.225551
 H    2.958429    4.556736   -1.068779
 H    0.652998   -0.541785    1.133628
 H    4.051235    0.621370    0.830513
 H    5.888137   -0.842671    0.055558
 H    2.940064   -3.649613   -0.957789
