76 
2z4o_ligand_dft.xyz
 C   -6.088048   -1.033597    0.215351
 O   -7.308272   -0.525813    0.538062
 C   -7.499019    0.595864   -0.318869
 O   -6.244075    0.906445   -0.913714
 C   -5.441969   -0.169691   -0.662794
 C   -4.178556   -0.421190   -1.139037
 C   -3.581522   -1.608675   -0.686768
 C   -4.219967   -2.485008    0.184757
 C   -5.507743   -2.203585    0.655996
 S   -1.902700   -1.955217   -1.165648
 O   -1.733648   -3.395395   -1.232214
 O   -1.620556   -1.106532   -2.322960
 N   -0.941517   -1.397020    0.054341
 C   -0.625641   -2.259679    1.194893
 C    0.869933   -2.242128    1.540428
 C    1.705941   -2.817372    0.397761
 C    1.099594   -3.015505    2.840150
 C   -0.886992    0.053417    0.270039
 C    0.352187    0.684670   -0.386415
 O    0.159165    1.012774   -1.742001
 C    0.869154    1.946597    0.330534
 N    2.284404    2.132569    0.037035
 C    3.196811    1.380652    0.711257
 O    2.985105    0.780948    1.749226
 O    4.391274    1.406264    0.081166
 C    5.443779    0.689977    0.720705
 C    5.267532   -0.833074    0.732045
 O    6.588787   -1.306442    0.917615
 C    7.447914   -0.511017    0.155122
 O    7.652749   -1.072657   -1.121622
 C    7.646938   -0.033727   -2.081950
 C    6.584659    0.947957   -1.590599
 C    6.748833    0.861727   -0.065043
 C    0.112266    3.235470   -0.021401
 C   -1.798012    3.088725    1.620266
 C   -3.145713    2.914053    1.919951
 C   -4.080138    2.812935    0.893007
 C   -3.659689    2.901005   -0.431307
 C   -2.309021    3.061789   -0.726603
 C   -1.360869    3.149451    0.294535
 H   -7.842036    1.448033    0.270807
 H   -8.222671    0.336683   -1.101911
 H   -3.668560    0.242351   -1.825778
 H   -3.723242   -3.402858    0.479467
 H   -6.028723   -2.873434    1.329479
 H   -1.219889   -1.940562    2.064824
 H   -0.919491   -3.280898    0.939039
 H    1.182322   -1.203108    1.713025
 H    1.473402   -3.877668    0.241482
 H    2.774713   -2.733256    0.620046
 H    1.510348   -2.297227   -0.545145
 H    0.529329   -2.585913    3.671533
 H    0.802391   -4.065922    2.729576
 H    2.158747   -2.995417    3.115424
 H   -1.798090    0.535602   -0.094942
 H   -0.863878    0.213992    1.352535
 H    1.152188   -0.063543   -0.288010
 H   -0.285343    0.260006   -2.168547
 H    0.812940    1.772336    1.408427
 H    2.522751    2.368677   -0.916891
 H    5.548308    1.050779    1.747370
 H    4.652754   -1.191635    1.556188
 H    4.840123   -1.176683   -0.221958
 H    8.399832   -0.462003    0.694657
 H    7.423257   -0.478909   -3.054134
 H    8.635873    0.447847   -2.140523
 H    6.721049    1.961138   -1.975433
 H    5.591542    0.604625   -1.892880
 H    7.350426    1.688784    0.318427
 H    0.577014    4.054757    0.538767
 H    0.248833    3.444230   -1.086646
 H   -1.071463    3.164818    2.426660
 H   -3.465382    2.855184    2.956447
 H   -5.131999    2.663564    1.117245
 H   -4.388995    2.826686   -1.232339
 H   -1.975490    3.086604   -1.760089
