76 
2z4o_ligand_xtb.xyz
 C   -6.013448   -0.582009    0.176719
 O   -7.220408    0.016859    0.378188
 C   -7.376202    0.949559   -0.672653
 O   -6.231489    0.910438   -1.499329
 C   -5.409643   -0.036578   -0.962563
 C   -4.171488   -0.451973   -1.387342
 C   -3.566060   -1.451550   -0.632758
 C   -4.155632   -2.002855    0.485224
 C   -5.407462   -1.569739    0.917709
 S   -1.934746   -2.030908   -1.105801
 O   -1.935074   -3.459027   -1.175407
 O   -1.535367   -1.293406   -2.276878
 N   -0.948806   -1.569496    0.131739
 C   -0.602840   -2.496942    1.182226
 C    0.914139   -2.595136    1.405685
 C    1.590792   -3.142627    0.152741
 C    1.195600   -3.493803    2.606943
 C   -0.906488   -0.151060    0.394715
 C    0.279998    0.523079   -0.324830
 O   -0.034999    0.899495   -1.637502
 C    0.803549    1.763334    0.439837
 N    2.198397    1.982391    0.111526
 C    3.152899    1.253888    0.732703
 O    2.995397    0.617558    1.745337
 O    4.339428    1.372450    0.085391
 C    5.431139    0.710052    0.699750
 C    5.393947   -0.821073    0.535096
 O    6.741312   -1.215788    0.685234
 C    7.536937   -0.271536    0.042390
 O    7.762633   -0.622750   -1.302940
 C    7.725589    0.550433   -2.086310
 C    6.658771    1.442970   -1.446771
 C    6.766782    1.081215    0.038491
 C    0.010013    3.037673    0.134909
 C   -1.829985    2.774341    1.827427
 C   -3.163088    2.609882    2.158012
 C   -4.128014    2.586088    1.164863
 C   -3.752720    2.733192   -0.159288
 C   -2.416268    2.882032   -0.488188
 C   -1.440272    2.901114    0.499087
 H   -7.495727    1.960855   -0.253447
 H   -8.268936    0.693043   -1.264303
 H   -3.681181   -0.050232   -2.256688
 H   -3.637875   -2.785720    1.014450
 H   -5.885362   -1.986385    1.787734
 H   -1.101869   -2.207923    2.117642
 H   -0.979697   -3.468704    0.858915
 H    1.305639   -1.594760    1.618758
 H    1.276604   -4.168633   -0.025223
 H    2.672527   -3.121517    0.262529
 H    1.312213   -2.553156   -0.717611
 H    0.737604   -3.091345    3.507631
 H    0.801380   -4.492928    2.434096
 H    2.266689   -3.569209    2.773677
 H   -1.838799    0.304927    0.047567
 H   -0.828738    0.003953    1.472883
 H    1.102391   -0.212193   -0.333713
 H   -0.504862    0.155003   -2.059598
 H    0.783445    1.541051    1.510886
 H    2.399857    2.311456   -0.820595
 H    5.442415    0.956667    1.768153
 H    4.803306   -1.321776    1.300188
 H    5.013830   -1.076876   -0.462962
 H    8.494500   -0.236461    0.582706
 H    7.496098    0.255044   -3.110238
 H    8.708462    1.044572   -2.064209
 H    6.838226    2.498911   -1.631491
 H    5.671115    1.182246   -1.822872
 H    7.295315    1.847392    0.603463
 H    0.462714    3.857935    0.696546
 H    0.099524    3.245729   -0.931106
 H   -1.083565    2.806274    2.608067
 H   -3.452482    2.506945    3.193696
 H   -5.168687    2.461796    1.428257
 H   -4.498101    2.732789   -0.940568
 H   -2.123906    2.977049   -1.522947
