49 
2z52_ligand_dft.xyz
 C   -9.879434    1.636213    0.308266
 C   -8.437952    1.456092   -0.164354
 C   -7.840633    0.109724    0.245671
 C   -6.398995   -0.082220   -0.224948
 C   -5.805593   -1.426156    0.202042
 C   -4.404629   -1.704168   -0.350842
 C   -3.331256   -0.724283    0.126893
 C   -1.927600   -1.105740   -0.342790
 C   -0.850950   -0.123677    0.117715
 C    0.549099   -0.522079   -0.347768
 C    1.605123    0.479766    0.125870
 C    3.027410    0.219733   -0.409789
 P    4.090330    1.690107   -0.012921
 O    4.297619    1.509489    1.606203
 O    5.516384    1.411977   -0.661853
 O    3.498170    2.987408   -0.386914
 P    3.699143   -1.387006    0.227622
 O    5.261998   -1.300827   -0.267751
 O    3.767103   -1.189678    1.808919
 O    3.036652   -2.623691   -0.211687
 O    3.069129    0.085158   -1.821076
 H  -10.529004    0.856925   -0.106915
 H   -9.944944    1.574584    1.400760
 H  -10.283256    2.606977    0.002546
 H   -7.814900    2.265524    0.239241
 H   -8.394656    1.552241   -1.257568
 H   -8.465554   -0.701342   -0.154989
 H   -7.881310    0.013523    1.340280
 H   -5.784844    0.739872    0.166065
 H   -6.359806   -0.000643   -1.321052
 H   -6.479944   -2.229512   -0.123970
 H   -5.778700   -1.476309    1.300031
 H   -4.439281   -1.693668   -1.449648
 H   -4.106322   -2.721562   -0.064142
 H   -3.347272   -0.676743    1.225549
 H   -3.563578    0.288597   -0.227915
 H   -1.915418   -1.168692   -1.440095
 H   -1.680487   -2.111695    0.023508
 H   -0.866819   -0.056995    1.214968
 H   -1.092087    0.882612   -0.254170
 H    0.572981   -0.582683   -1.442148
 H    0.789944   -1.526592    0.014604
 H    1.639720    0.503513    1.221752
 H    1.320369    1.491666   -0.193362
 H    4.313097    2.366221    2.056776
 H    5.733605    0.457893   -0.674057
 H    5.462576   -2.060918   -0.833182
 H    4.052409   -0.295574    2.079831
 H    2.597409    0.838354   -2.205742
