48 
2z60_ligand_xtb.xyz
 N    0.202879    2.981214   -0.605603
 C   -0.720494    2.041975   -0.573590
 C   -0.477080    0.689876   -0.278455
 C    0.824841    0.280273   -0.011160
 C    1.828420    1.237038   -0.067248
 C    1.438052    2.574448   -0.351779
 C    3.244159    1.261455    0.143691
 C    3.627064    2.567260   -0.006165
 N    2.547727    3.355045   -0.306344
 C    4.121234    0.138407    0.466475
 C    4.020032   -1.083885   -0.223377
 C    4.865582   -2.132086    0.115507
 C    5.812417   -1.975457    1.114756
 C    5.930632   -0.772263    1.783534
 C    5.086208    0.273668    1.455952
 O    3.091644   -1.139138   -1.221278
 C   -1.580528   -0.273753   -0.268816
 C   -1.420080   -1.556524   -0.798585
 N   -2.371280   -2.469457   -0.814403
 C   -3.550147   -2.162204   -0.305654
 C   -3.844514   -0.908900    0.226644
 C   -2.832776    0.042747    0.253094
 C   -5.176431   -0.652851    0.859818
 O   -5.509446   -1.244251    1.870645
 N   -5.965077    0.267100    0.257210
 C   -5.659275    0.939024   -0.979167
 C   -7.238841    0.603151    0.848832
 C    2.941317   -2.335597   -1.942653
 H   -1.722240    2.376009   -0.809933
 H    1.037436   -0.743476    0.253771
 H    4.611238    2.990059    0.059909
 H    4.800087   -3.078321   -0.398368
 H    6.460076   -2.803111    1.363042
 H    6.671097   -0.649278    2.559088
 H    5.158544    1.213884    1.982472
 H   -0.477995   -1.854489   -1.240323
 H   -4.297566   -2.943426   -0.325485
 H   -3.008253    1.012049    0.698541
 H   -5.457258    2.000346   -0.802983
 H   -4.793803    0.488687   -1.458938
 H   -6.513872    0.861473   -1.656124
 H   -7.337892    0.042324    1.776134
 H   -7.286061    1.673609    1.060549
 H   -8.056498    0.337221    0.174754
 H    3.860999   -2.609016   -2.470191
 H    2.634831   -3.164059   -1.294918
 H    2.156049   -2.141031   -2.672154
 H    2.565008    4.345539   -0.479734
