43 
2z7g_ligand_xtb.xyz
 C    3.100617   -2.153909   -0.139773
 C    2.253027   -1.324939    0.616059
 C    1.750663   -0.183159   -0.031877
 C    2.831421   -0.705277   -1.895971
 C    1.040405   -0.305732    2.014720
 N    2.028470    0.153491   -1.296252
 N    3.366736   -1.808030   -1.403028
 N    0.975088    0.460138    0.886217
 N    1.782874   -1.365079    1.903874
 C    0.198142    1.665662    0.694707
 C   -1.003221    1.376586   -0.211148
 N    3.647249   -3.277712    0.350867
 C   -1.996205    0.411983    0.431791
 C   -3.202022    0.162437   -0.470922
 C   -4.196307   -0.811944    0.155758
 C   -5.420304   -1.031539   -0.730123
 C   -6.405678   -2.011074   -0.104707
 C    1.094389    2.804708    0.129029
 O    1.179086    2.782079   -1.265685
 C    0.555396    4.172158    0.541759
 H    3.085712   -0.475311   -2.921855
 H    0.515998   -0.035300    2.910434
 H   -0.153898    1.964349    1.688957
 H   -0.641326    0.961248   -1.153019
 H   -1.499224    2.321148   -0.436245
 H    4.267089   -3.814131   -0.228466
 H    3.478174   -3.528981    1.307377
 H   -2.339775    0.823014    1.385131
 H   -1.502309   -0.540670    0.641315
 H   -3.704218    1.111966   -0.670678
 H   -2.859572   -0.236881   -1.428200
 H   -3.701648   -1.770275    0.331637
 H   -4.519844   -0.425246    1.125413
 H   -5.097898   -1.411518   -1.702240
 H   -5.918540   -0.074045   -0.898740
 H   -7.271561   -2.146949   -0.748388
 H   -5.935507   -2.980316    0.047452
 H   -6.749307   -1.643169    0.859870
 H    2.099388    2.676332    0.573850
 H    1.523309    1.907246   -1.539741
 H   -0.457862    4.301601    0.173073
 H    1.179105    4.942705    0.098324
 H    0.566157    4.281126    1.622650
