43 
2z7g_ligand_dft.xyz
 C    2.944546   -2.277380   -0.132045
 C    2.155547   -1.382364    0.615950
 C    1.759592   -0.220751   -0.037209
 C    2.811037   -0.810700   -1.897114
 C    1.020142   -0.293999    2.016594
 N    2.066553    0.116667   -1.300693
 N    3.258554   -1.967580   -1.398977
 N    1.024506    0.484022    0.882428
 N    1.683917   -1.414752    1.911252
 C    0.276032    1.731632    0.680270
 C   -0.964823    1.478485   -0.179801
 N    3.387504   -3.440520    0.382503
 C   -1.943609    0.478097    0.431507
 C   -3.176000    0.253040   -0.444261
 C   -4.165206   -0.746343    0.154073
 C   -5.382618   -0.996452   -0.736597
 C   -6.370205   -1.991872   -0.130571
 C    1.188577    2.856675    0.120061
 O    1.283317    2.836976   -1.279658
 C    0.663294    4.231752    0.511593
 H    3.095415   -0.602115   -2.925191
 H    0.493967    0.034886    2.903802
 H   -0.037056    2.028611    1.688786
 H   -0.641999    1.138012   -1.169072
 H   -1.467244    2.439768   -0.338620
 H    3.996423   -4.020056   -0.171592
 H    3.215031   -3.663507    1.348889
 H   -2.261276    0.829650    1.424494
 H   -1.440238   -0.484959    0.590631
 H   -3.684365    1.212634   -0.613742
 H   -2.853306   -0.101570   -1.433101
 H   -3.651182   -1.700093    0.340220
 H   -4.501882   -0.383107    1.135819
 H   -5.043203   -1.364571   -1.713988
 H   -5.892151   -0.042611   -0.927884
 H   -7.225891   -2.159083   -0.792800
 H   -5.890436   -2.960973    0.048651
 H   -6.755120   -1.628896    0.829543
 H    2.179948    2.718209    0.584332
 H    1.641854    1.965190   -1.541411
 H   -0.338878    4.395942    0.102764
 H    1.323078    4.997921    0.097049
 H    0.626898    4.351133    1.599406
