12 
2z9g_ligand_xtb.xyz
 C   -0.961983   -0.995890   -0.000132
 C   -1.343658    0.335061   -0.000048
 C   -0.381551    1.330835    0.000186
 C    0.961962    0.995894   -0.000144
 C    1.343626   -0.335050   -0.000036
 C    0.381590   -1.330801    0.000172
 H   -1.712528   -1.773242   -0.000394
 H   -2.392058    0.596652   -0.000199
 H   -0.679587    2.369361    0.000663
 H    1.712895    1.772777   -0.000521
 H    2.392049   -0.596389   -0.000072
 H    0.679316   -2.369451    0.000542
