56 
2za5_ligand_dft.xyz
 C   -3.513658    1.697117    0.015523
 C   -4.045684    0.461698   -0.283883
 C   -5.276222    0.371968   -0.937737
 C   -6.002844    1.498408   -1.309953
 C   -5.460975    2.740143   -0.996505
 C   -4.230549    2.854151   -0.336676
 O   -5.659654   -0.887986   -1.173739
 C   -4.723816   -1.777945   -0.522750
 C   -3.494131   -0.930312   -0.082404
 C   -2.279220   -1.163836   -1.009959
 C   -1.578767   -2.500831   -0.738465
 N   -1.222084   -2.616090    0.673531
 C   -2.389216   -2.538231    1.544640
 C   -3.099005   -1.193568    1.382420
 C   -0.067153   -2.033447    1.174096
 C    1.158805   -2.201843    0.365282
 O    2.107626   -1.250622    0.534738
 C    3.192544   -1.631586   -0.186249
 C    2.948686   -2.828437   -0.808549
 C    1.627185   -3.196181   -0.448350
 C    4.318033   -0.780416   -0.185469
 C    5.295982   -0.067293   -0.196353
 C    6.450221    0.775403   -0.202894
 C    6.603802    1.766392    0.777058
 C    7.727245    2.582779    0.768965
 C    8.704950    2.419993   -0.209973
 C    8.557592    1.435986   -1.184895
 C    7.436973    0.615474   -1.185935
 O   -0.036521   -1.467018    2.255218
 C   -3.702622    4.195950    0.042021
 N   -4.149509    4.529605    1.476009
 H   -2.540075    1.771003    0.499047
 H   -6.948528    1.403879   -1.830469
 H   -6.002531    3.637316   -1.288832
 H   -4.480437   -2.564241   -1.239933
 H   -5.241070   -2.226262    0.331938
 H   -1.551179   -0.357896   -0.850624
 H   -2.596222   -1.108315   -2.058147
 H   -0.686754   -2.577822   -1.358442
 H   -2.228310   -3.346436   -0.996041
 H   -2.063311   -2.672138    2.575750
 H   -3.056090   -3.370284    1.284561
 H   -3.987614   -1.147363    2.022861
 H   -2.405831   -0.416186    1.723504
 H    3.642203   -3.370560   -1.433548
 H    1.098540   -4.097455   -0.724815
 H    5.841072    1.883220    1.540119
 H    7.842896    3.346483    1.531711
 H    9.583045    3.058256   -0.211723
 H    9.319425    1.306335   -1.947108
 H    7.316956   -0.153275   -1.942354
 H   -4.088524    5.006114   -0.579737
 H   -2.611751    4.244735    0.062286
 H   -3.815292    5.443474    1.800061
 H   -5.172954    4.517319    1.532951
 H   -3.807059    3.811276    2.122423
