41 
2zaz_ligand_dft.xyz
 O   -7.066862    2.090359   -0.332477
 C   -7.140901    0.898830   -0.171596
 C   -5.959049    0.008980   -0.042141
 S   -6.170150   -1.707743    0.182343
 C   -4.469179   -1.869953    0.222343
 N   -4.721846    0.401879   -0.079430
 C   -3.855169   -0.648475    0.071750
 C   -2.399725   -0.400073    0.048734
 C   -1.920023    0.833244   -0.330121
 C   -1.480169   -1.412778    0.425094
 C   -0.130677   -1.184518    0.381973
 C    0.383213    0.066265   -0.041279
 C   -0.530139    1.100358   -0.375831
 N   -0.143557    2.358519   -0.735483
 C    1.147765    2.587557   -0.766521
 C    2.150793    1.637275   -0.487785
 C    1.783115    0.356585   -0.131934
 N    2.700659   -0.648589    0.147288
 C    4.101463   -0.432255    0.159331
 C    4.683022    0.344911    1.177160
 C    3.853686    0.965512    2.269256
 C    4.884862   -1.045217   -0.815309
 C    6.268998   -0.896740   -0.798999
 O    6.974961   -1.529396   -1.773873
 C    6.865363   -0.111766    0.185098
 C    6.068359    0.494720    1.150187
 H   -8.118803    0.377215   -0.108917
 H   -4.010972   -2.841771    0.336199
 H   -2.599408    1.634196   -0.599056
 H   -1.841698   -2.372950    0.780226
 H    0.546364   -1.963002    0.720382
 H    1.449494    3.594258   -1.052521
 H    3.196120    1.908374   -0.585990
 H    2.428684   -1.562927   -0.184971
 H    3.349566    1.879073    1.932271
 H    3.070804    0.276628    2.602222
 H    4.478129    1.223680    3.129184
 H    4.426636   -1.632155   -1.605437
 H    7.912251   -1.328693   -1.666673
 H    7.944907    0.017886    0.207864
 H    6.545085    1.088926    1.925452
