41 
2zaz_ligand_xtb.xyz
 O   -7.072443    2.036824   -0.439924
 C   -7.093433    0.858998   -0.205893
 C   -5.925797    0.006700   -0.039432
 S   -6.150200   -1.711973    0.302655
 C   -4.455143   -1.867993    0.332133
 N   -4.690172    0.357263   -0.111019
 C   -3.828653   -0.659807    0.091911
 C   -2.392530   -0.416301    0.039300
 C   -1.930416    0.840488   -0.282992
 C   -1.465182   -1.441726    0.319567
 C   -0.121776   -1.202830    0.252993
 C    0.378004    0.066829   -0.095620
 C   -0.551807    1.113092   -0.352244
 N   -0.171999    2.369054   -0.661921
 C    1.106556    2.619913   -0.740133
 C    2.114818    1.676212   -0.529833
 C    1.768068    0.377762   -0.197329
 N    2.703959   -0.600829    0.019082
 C    4.087562   -0.396332    0.102717
 C    4.635912    0.459511    1.067061
 C    3.780433    1.175405    2.067541
 C    4.916227   -1.129392   -0.738718
 C    6.294788   -0.994168   -0.669420
 O    7.056881   -1.737406   -1.516543
 C    6.845230   -0.111444    0.251400
 C    6.016585    0.591962    1.105431
 H   -8.042724    0.297367   -0.091658
 H   -4.013753   -2.826030    0.517407
 H   -2.622367    1.640807   -0.488977
 H   -1.815955   -2.423730    0.596634
 H    0.562608   -2.004949    0.491566
 H    1.370074    3.636659   -1.004462
 H    3.150140    1.946414   -0.665173
 H    2.426620   -1.539217   -0.227706
 H    3.426091    2.130753    1.679496
 H    2.906107    0.579256    2.321065
 H    4.349712    1.369611    2.973485
 H    4.496367   -1.810021   -1.463666
 H    7.990337   -1.542960   -1.370731
 H    7.918138    0.009981    0.310480
 H    6.457105    1.252604    1.837848
