47 
2zb1_ligand_dft.xyz
 O    4.608811    0.771260    2.113791
 C    4.139233    0.311500    1.082413
 N    4.888312   -0.403901    0.196838
 C    6.311686   -0.606034    0.399573
 C    6.797533   -1.765887   -0.431171
 C    7.079968   -1.558699   -1.900143
 C    8.212613   -1.780960   -0.933713
 C    2.692433    0.499906    0.721277
 C    1.996875   -0.351654   -0.138548
 C    0.657082   -0.119061   -0.426250
 C    2.016412    1.571037    1.306865
 C    0.681203    1.805710    1.013249
 C   -0.016976    0.968531    0.136093
 C   -1.458133    1.189793   -0.167480
 C   -1.936169    2.407260   -0.691768
 C   -1.020356    3.565680   -1.002940
 C   -3.303188    2.528382   -0.950719
 C   -4.190950    1.489606   -0.709073
 C   -2.349034    0.142599    0.062742
 C   -3.711668    0.282165   -0.202361
 C   -4.604306   -0.843564    0.054838
 N   -4.305231   -2.025989    0.486315
 N   -5.499010   -2.731038    0.561815
 O   -5.935791   -0.704115   -0.168821
 C   -6.426046   -1.922825    0.170347
 C   -7.884165   -2.165229    0.057496
 H    4.536743   -0.552231   -0.737029
 H    6.472080   -0.784696    1.465690
 H    6.873081    0.304588    0.141809
 H    6.369687   -2.726741   -0.154199
 H    6.954881   -0.557086   -2.304504
 H    6.829767   -2.356196   -2.592652
 H    8.734223   -2.732053   -0.962511
 H    8.845675   -0.931782   -0.691933
 H    2.484067   -1.223797   -0.565868
 H    0.123670   -0.788091   -1.095551
 H    2.556468    2.204827    2.002404
 H    0.164555    2.635900    1.485600
 H   -0.831816    4.179252   -0.114502
 H   -0.048813    3.225162   -1.371380
 H   -1.468010    4.216410   -1.759652
 H   -3.679534    3.460821   -1.363159
 H   -5.247987    1.612281   -0.920827
 H   -1.986059   -0.796679    0.468893
 H   -8.093137   -3.189449    0.368614
 H   -8.443598   -1.474362    0.695565
 H   -8.222878   -2.026277   -0.973712
