55 
2zdl_ligand_xtb.xyz
 O   -1.782903   -0.010654    2.269320
 C   -2.161809    0.813889    1.441108
 C   -1.647873    2.253470    1.477401
 O   -1.048192    2.655834    0.269447
 C    0.116334    1.922532   -0.074449
 C    0.432315    2.154580   -1.553650
 C    1.937115    1.935364   -1.632316
 C    2.457002    2.632287   -0.374295
 C    1.377856    2.383798    0.688998
 N   -3.016687    0.508534    0.461908
 C   -3.593970   -0.828057    0.329260
 C   -4.805502   -0.620219   -0.572979
 C   -4.359409    0.537817   -1.461994
 C   -3.596466    1.437408   -0.495330
 C   -2.570197   -1.789219   -0.319378
 O   -2.676739   -2.190775   -1.460060
 N   -1.590969   -2.140383    0.525717
 C   -0.490545   -2.993467    0.132268
 C    0.831737   -2.269179    0.108830
 C    1.292111   -1.604308    1.240453
 C    2.530227   -0.991538    1.236827
 C    3.333882   -1.017333    0.100083
 C    4.685788   -0.400131    0.125482
 N    5.127499    0.111954   -1.062758
 N    5.472764   -0.371291    1.124384
 C    2.862031   -1.664129   -1.038637
 C    1.625661   -2.283401   -1.030198
 H   -0.945910    2.328233    2.318053
 H   -2.481249    2.942499    1.643563
 H   -0.057645    0.851627    0.105612
 H    0.178295    3.186760   -1.797437
 H   -0.132114    1.488925   -2.204265
 H    2.141749    0.863802   -1.584922
 H    2.370612    2.340099   -2.546284
 H    2.556686    3.701058   -0.566396
 H    3.427899    2.253607   -0.057359
 H    1.693154    1.620462    1.398281
 H    1.154339    3.295666    1.242528
 H   -3.848893   -1.213035    1.322635
 H   -5.019310   -1.518281   -1.147952
 H   -5.680448   -0.346369    0.017037
 H   -3.689479    0.157538   -2.232569
 H   -5.190695    1.054117   -1.936486
 H   -4.280808    2.117273    0.027678
 H   -2.820813    2.029439   -0.980890
 H   -1.535890   -1.661513    1.421439
 H   -0.428900   -3.830638    0.839436
 H   -0.729673   -3.385060   -0.859326
 H    0.682620   -1.569691    2.131813
 H    2.882559   -0.486970    2.126134
 H    5.999813    0.612180   -1.005066
 H    4.451876    0.458007   -1.722170
 H    5.124322   -0.848647    1.948672
 H    3.479189   -1.707500   -1.924210
 H    1.275411   -2.791503   -1.916879
