57 
2zdn_ligand_xtb.xyz
 C   -3.420862    2.112230   -1.015251
 C   -2.138395    2.800603   -1.465788
 C   -1.076912    2.265557   -0.496182
 C   -1.842398    1.976402    0.813192
 C   -3.330283    2.198922    0.505518
 C    0.088137    3.238545   -0.321845
 C    1.233615    2.629149    0.485198
 C    1.986794    1.591140   -0.319863
 O    1.818497    1.435296   -1.524358
 N    2.871372    0.840474    0.359772
 C    3.742033   -0.119175   -0.317815
 C    2.978207   -1.441073   -0.551256
 O    3.244749   -2.470365    0.036802
 C    4.903544   -0.305857    0.650998
 C    4.224418   -0.152975    2.009845
 C    3.194513    0.950753    1.769506
 N    2.009710   -1.314778   -1.469918
 C    1.047418   -2.364092   -1.734479
 C   -0.245988   -2.116134   -1.000852
 C   -1.430633   -1.870597   -1.680910
 C   -2.610654   -1.666967   -0.989165
 C   -2.624602   -1.683557    0.402167
 C   -3.885156   -1.459477    1.156819
 N   -5.020162   -1.919162    0.548900
 N   -4.001226   -0.840406    2.262268
 C   -1.428779   -1.896915    1.083548
 C   -0.255637   -2.116786    0.389859
 H   -3.410838    1.067841   -1.329495
 H   -4.318539    2.586840   -1.409511
 H   -2.238789    3.881282   -1.344827
 H   -1.884115    2.593268   -2.503953
 H   -0.682221    1.327900   -0.896895
 H   -1.514253    2.634739    1.618527
 H   -1.668037    0.947946    1.130361
 H   -3.966961    1.470258    1.004606
 H   -3.634309    3.195232    0.830555
 H    0.467608    3.513334   -1.307697
 H   -0.265297    4.144346    0.175758
 H    1.945104    3.406805    0.778277
 H    0.847017    2.170463    1.396480
 H    4.040930    0.288178   -1.289341
 H    5.357612   -1.286655    0.530433
 H    5.656381    0.468011    0.499349
 H    4.920401    0.101143    2.806194
 H    3.723067   -1.086716    2.262243
 H    3.618284    1.940271    1.980467
 H    2.302769    0.818774    2.388241
 H    1.814872   -0.382758   -1.832074
 H    0.873112   -2.421058   -2.812116
 H    1.497396   -3.300072   -1.388388
 H   -1.433242   -1.849006   -2.761368
 H   -3.526274   -1.478133   -1.530650
 H   -5.850485   -1.869198    1.117115
 H   -4.944995   -2.709108   -0.068781
 H   -3.135985   -0.451501    2.621464
 H   -1.428336   -1.917624    2.165022
 H    0.664026   -2.305330    0.923821
