25 
2zjv_ligand_xtb.xyz
 N   -1.089993    1.331186    0.633652
 C   -1.930830    0.578552   -0.147553
 N   -2.807551    1.256705   -0.935125
 N   -1.954811   -0.702638   -0.222723
 C   -0.004636    0.763786    1.389835
 C    1.188625    0.407049    0.552119
 C   -3.192601    2.628908   -0.698736
 S    2.741083    0.106032    1.272372
 C    3.356642   -0.194644   -0.348781
 N    2.490312   -0.074389   -1.282976
 C    1.271135    0.260552   -0.797998
Cl    4.973144   -0.608415   -0.599668
 N   -3.878737   -1.428488   -0.242013
 O   -4.412818   -0.967977    0.731085
 O   -3.515655   -2.791694   -0.064837
 H   -0.977396    2.295410    0.364666
 H   -3.091363   -3.044111   -0.894185
 H   -3.529798    0.639587   -1.280044
 H   -1.304986   -1.217978    0.352618
 H   -0.370363   -0.129629    1.911493
 H    0.291810    1.485232    2.156940
 H   -3.480574    2.806692    0.342040
 H   -2.376728    3.307062   -0.963479
 H   -4.039619    2.862538   -1.337887
 H    0.461476    0.377247   -1.494755
