25 
2zjv_ligand_dft.xyz
 N   -1.420868    1.614001    0.473886
 C   -2.404909    0.537676    0.473608
 N   -3.554047    0.825435   -0.331013
 N   -1.676629   -0.640218    0.005557
 C   -0.259661    1.403943    1.333065
 C    0.922714    0.926216    0.530865
 C   -3.341955    1.406641   -1.647016
 S    2.253454    0.065770    1.237118
 C    2.999137    0.027710   -0.335475
 N    2.340070    0.584799   -1.288754
 C    1.158939    1.097935   -0.798355
Cl    4.532755   -0.729218   -0.546294
 N   -2.330728   -1.853004    0.070625
 O   -1.986698   -2.684406   -0.752295
 O   -3.143009   -2.006789    0.964660
 H   -1.897039    2.476288    0.710813
 H   -2.764435    0.282698    1.478291
 H   -4.277791    1.293089    0.197957
 H   -1.199444   -0.564902   -0.885367
 H   -0.474270    0.692791    2.145243
 H   -0.002999    2.357088    1.809550
 H   -2.879299    2.403730   -1.642364
 H   -2.702914    0.745723   -2.241209
 H   -4.305924    1.466262   -2.158173
 H    0.479495    1.603366   -1.472815
