42 
2zkj_ligand_xtb.xyz
 P    0.440450   -2.078189   -0.901409
 O    1.080816   -2.731559    0.353070
 O    0.951980   -3.011026   -2.067051
 O    0.616424   -0.644607   -1.123013
 P   -2.122221   -1.871015    0.202935
 O   -1.667852   -1.902658    1.588751
 O   -3.457208   -2.691905   -0.061982
 O   -1.131148   -2.500471   -0.866152
 O   -2.435188   -0.450290   -0.426438
 C   -3.315540    0.387108    0.318469
 C   -2.728520    1.787446    0.512822
 O   -1.645676    1.747035    1.435272
 C   -2.212772    2.435390   -0.783160
 O   -2.567698    3.789045   -0.815341
 C   -0.690445    2.251880   -0.687500
 O   -0.027164    3.327124   -1.282363
 C   -0.457334    2.175134    0.842219
 N    0.617237    1.257635    1.130399
 C    0.583526    0.103133    1.839841
 N    1.682337   -0.597528    1.748450
 C    2.504438    0.131234    0.921157
 C    3.776034   -0.085186    0.365291
 N    4.534971   -1.157474    0.656529
 N    4.262965    0.834463   -0.473238
 C    3.534170    1.895152   -0.765023
 N    2.324891    2.205080   -0.328768
 C    1.835545    1.293872    0.515382
 H    1.308670   -2.054160    1.054120
 H    0.879332   -2.569522   -2.912379
 H   -3.505515   -3.460699    0.505837
 H   -4.260139    0.457116   -0.227125
 H   -3.489709   -0.049961    1.305147
 H   -3.510300    2.425096    0.945509
 H   -2.617738    1.918419   -1.662480
 H   -1.809307    4.264031   -1.189890
 H   -0.400028    1.292544   -1.131879
 H    0.932484    3.169967   -1.158461
 H   -0.174948    3.172202    1.227473
 H   -0.275270   -0.194690    2.406000
 H    4.121859   -1.923577    1.157507
 H    5.377082   -1.297088    0.126200
 H    3.980380    2.596654   -1.457074
