42 
2zkj_ligand_dft.xyz
 P   46.328485    4.402855   43.455649
 O   46.818294    5.295693   44.500190
 O   46.792096    4.765897   41.971274
 O   46.619722    2.850907   43.674105
 P   43.867867    3.622194   42.229393
 O   44.807534    2.817942   41.413541
 O   42.792534    2.755251   42.996675
 O   44.672913    4.468348   43.344919
 O   43.051654    4.723659   41.417119
 C   42.794116    6.045039   41.897408
 C   41.648202    6.085620   42.907664
 O   41.861897    5.109214   43.950149
 C   41.597079    7.435152   43.615382
 O   40.284279    7.688406   44.042838
 C   42.511555    7.186735   44.812531
 O   42.299133    8.135853   45.804227
 C   42.097693    5.757457   45.199385
 N   43.117188    5.043866   45.935303
 C   43.230606    3.671691   46.060847
 N   44.302837    3.281718   46.686090
 C   44.935812    4.461238   47.020503
 C   46.155374    4.727741   47.670266
 N   46.960501    3.741090   48.113851
 N   46.513598    6.002170   47.880096
 C   45.706061    6.965676   47.441064
 N   44.548534    6.848720   46.789407
 C   44.220319    5.564064   46.581299
 H   46.420389    4.138575   41.321730
 H   46.231352    2.304702   42.965957
 H   42.168518    3.365693   43.444500
 H   43.712527    6.458511   42.322467
 H   42.518933    6.628286   41.016426
 H   40.697396    5.847527   42.424895
 H   41.978586    8.247361   42.979274
 H   40.359700    8.297191   44.793628
 H   43.559061    7.165008   44.485493
 H   43.075903    8.040605   46.398157
 H   41.164182    5.771666   45.770487
 H   42.478050    3.007626   45.659928
 H   47.897050    3.999925   48.383809
 H   46.806121    2.806957   47.766860
 H   46.032347    7.982173   47.644217
