36 
2zm1_ligand_xtb.xyz
Cl    2.354660   -1.368830    1.607562
 C    3.446527   -0.833296    0.387873
 C    3.235403    0.374255   -0.281689
 C    4.218279    0.823268   -1.162001
 C    5.351870    0.074170   -1.407388
 C    5.523353   -1.146584   -0.775802
 C    4.574950   -1.593762    0.125704
 N    2.108887    1.167500   -0.053421
 C    0.815814    0.731278   -0.089000
 N    0.547302   -0.507254   -0.416297
 C   -0.741119   -0.901311   -0.435952
 C   -1.811587   -0.101780   -0.153447
 N   -1.530422    1.204012    0.198076
 C   -2.299699    2.239512    0.598870
 N   -1.582675    3.306278    0.868707
 C   -0.299274    2.977178    0.650682
 C   -0.216490    1.658964    0.233266
 C   -3.200618   -0.559671   -0.239183
 C   -3.566508   -1.779122    0.327423
 C   -4.868205   -2.233182    0.229499
 C   -5.820591   -1.480766   -0.437868
 C   -5.462492   -0.273753   -1.014865
 C   -4.162597    0.186203   -0.918227
 H    4.075037    1.771587   -1.659970
 H    6.097521    0.440352   -2.096114
 H    6.400712   -1.743026   -0.971366
 H    4.711421   -2.526849    0.649164
 H    2.240362    2.165578   -0.125784
 H   -0.893507   -1.928852   -0.730613
 H   -3.363629    2.185985    0.703081
 H    0.488322    3.685869    0.811879
 H   -2.825819   -2.359589    0.857376
 H   -5.141903   -3.176296    0.678872
 H   -6.837669   -1.835513   -0.511631
 H   -6.198482    0.311571   -1.546200
 H   -3.885340    1.115938   -1.394065
