36 
2zm1_ligand_dft.xyz
Cl    2.793301   -0.980931    1.996355
 C    3.620328   -0.690317    0.493243
 C    3.196808    0.328490   -0.368036
 C    3.928892    0.565671   -1.531400
 C    5.052897   -0.191104   -1.838104
 C    5.447233   -1.216702   -0.985522
 C    4.729465   -1.467628    0.178582
 N    2.086086    1.146471   -0.057683
 C    0.787926    0.694727   -0.096086
 N    0.538958   -0.554433   -0.373067
 C   -0.772385   -0.950177   -0.385452
 C   -1.845072   -0.150983   -0.149633
 N   -1.560587    1.184891    0.154188
 C   -2.345650    2.236917    0.513920
 N   -1.632048    3.317514    0.771122
 C   -0.335130    2.966506    0.585096
 C   -0.248404    1.641605    0.200222
 C   -3.248759   -0.604485   -0.212451
 C   -3.636378   -1.761117    0.470821
 C   -4.943621   -2.228912    0.382865
 C   -5.882993   -1.540203   -0.378405
 C   -5.507031   -0.385090   -1.060185
 C   -4.198975    0.077885   -0.982557
 H    3.593011    1.349790   -2.203977
 H    5.608576    0.011732   -2.747903
 H    6.316579   -1.822621   -1.219852
 H    5.032756   -2.256237    0.858381
 H    2.217745    2.140470   -0.167863
 H   -0.944324   -1.990935   -0.641149
 H   -3.419557    2.158304    0.585306
 H    0.469060    3.669869    0.754259
 H   -2.907652   -2.284351    1.082821
 H   -5.230327   -3.127725    0.920307
 H   -6.905127   -1.901027   -0.440707
 H   -6.232657    0.152317   -1.663237
 H   -3.905956    0.964624   -1.537842
