54 
2zmm_ligand_dft.xyz
 C   -4.878982   -2.739873    3.000340
 C   -4.537676   -0.806182    1.565504
 C   -2.829819   -0.991022   -0.192571
 C   -3.272744   -1.884288   -1.174320
 C   -2.357537   -2.588520   -1.946993
 C   -0.991571   -2.393692   -1.767999
 N   -4.257293   -2.122442    1.846399
 C   -0.537354   -1.511231   -0.785567
 O   -5.420037   -0.190958    2.146060
 C   -1.461938   -0.840276    0.020431
 C    0.900064   -1.263446   -0.591260
 C    1.556652   -0.064923   -0.508081
 C    2.969178   -0.191932   -0.303269
 C    3.370815   -1.508159   -0.268857
 C    4.755644   -1.984371   -0.097561
 C    3.633868    1.867939    0.711427
 C    4.851625    2.060015    1.616464
 C   -4.026700    1.172125    0.197073
 C   -4.232845    1.371633   -1.324065
 C   -2.991709    1.942362   -2.013788
 C   -2.646747    3.338033   -1.454156
 C   -3.044334    3.481536    0.030271
 C   -2.954658    2.131999    0.744714
 N   -3.761360   -0.231566    0.564465
 S    2.010815   -2.577438   -0.435515
 O    5.650040   -1.302691    0.347232
 O    5.015439   -3.255329   -0.448673
 O    3.840087    0.826986   -0.249728
 O    5.801350    1.142718    1.588044
 O    4.887198    3.029816    2.331341
Br    0.716476    1.591226   -0.790232
 H   -4.447073   -2.393783    3.948056
 H   -5.941693   -2.495524    3.003343
 H   -4.761355   -3.823748    2.926783
 H   -4.340283   -2.016454   -1.317566
 H   -2.708943   -3.275647   -2.709880
 H   -0.278848   -2.910089   -2.404347
 H   -3.368361   -2.493241    1.549291
 H   -1.117949   -0.193910    0.819125
 H    3.451729    2.805178    0.183945
 H    2.769512    1.654791    1.347007
 H   -4.965556    1.393213    0.707028
 H   -5.067281    2.068536   -1.468989
 H   -4.542627    0.430793   -1.789071
 H   -3.151128    1.996909   -3.095900
 H   -2.144449    1.262376   -1.862916
 H   -3.148889    4.113900   -2.043083
 H   -1.570027    3.516629   -1.569715
 H   -4.071238    3.861066    0.110498
 H   -2.405728    4.220690    0.524647
 H   -1.949842    1.727380    0.579051
 H   -3.085354    2.234265    1.826877
 H    4.290007   -3.645704   -0.955345
 H    5.604209    0.395845    0.980844
