59 
2zn7_ligand_dft.xyz
 C    1.696188    4.760237    1.864457
 C    2.515362    4.494338    0.770181
 C    3.085890    3.235903    0.615364
 C    2.849355    2.238108    1.562681
 C    2.053973    2.519291    2.674734
 C    1.467339    3.771205    2.817867
 C    3.474146    0.874238    1.491406
 O    3.921528    0.347554    2.497731
 N    3.538347    0.254893    0.251798
 C    2.592202    0.575961   -0.768883
 C    3.018572    1.020897   -2.020289
 C    2.088575    1.305321   -3.013470
 C    0.729303    1.145817   -2.769142
 C    0.293918    0.696212   -1.519582
 C    1.232086    0.420268   -0.523187
 C   -1.137606    0.504740   -1.239246
 C   -1.769478   -0.553842   -0.642840
 C   -3.187005   -0.387007   -0.519113
 C   -3.618626    0.801560   -1.062917
 S   -2.280053    1.727170   -1.671527
 C   -5.015563    1.267790   -1.123464
 O   -5.294886    2.258810   -1.987545
 O   -5.905012    0.818801   -0.437761
 O   -4.035920   -1.304424   -0.030755
 C   -3.830350   -1.804156    1.295011
 C   -5.080396   -1.647465    2.161949
 O   -5.119096   -2.218152    3.223020
 O   -6.054449   -0.874841    1.716517
Br   -0.896700   -2.143581   -0.157151
 C    4.117588   -1.106447    0.234968
 C    4.827533   -1.432677   -1.079778
 C    5.472804   -2.821150   -1.003899
 C    4.437320   -3.897441   -0.665770
 C    3.704027   -3.564921    0.636297
 C    3.069187   -2.172636    0.578178
 H    1.244089    5.740942    1.978992
 H    2.712213    5.269356    0.035632
 H    3.727043    3.034421   -0.236348
 H    1.908094    1.747942    3.424168
 H    0.838682    3.978438    3.678433
 H    4.080489    1.150506   -2.201235
 H    2.424844    1.650750   -3.985664
 H    0.007284    1.347288   -3.555005
 H    0.906076    0.080473    0.453777
 H   -4.565947    2.417264   -2.603094
 H   -3.005881   -1.282695    1.790353
 H   -3.585943   -2.865817    1.241840
 H   -5.849789   -0.449048    0.854893
 H    4.861478   -1.095999    1.035662
 H    5.584647   -0.668391   -1.291702
 H    4.109023   -1.422497   -1.909920
 H    6.255937   -2.815947   -0.233343
 H    5.966551   -3.050850   -1.954665
 H    4.921239   -4.877662   -0.590128
 H    3.707696   -3.965264   -1.485211
 H    4.415423   -3.600394    1.472640
 H    2.935009   -4.316961    0.845543
 H    2.275337   -2.163911   -0.181908
 H    2.607910   -1.922403    1.539713
