43 
2znt_ligand_xtb.xyz
 C   -2.574283    3.291028   -0.059897
 N   -1.758891    2.070344    0.051274
 C   -2.336740    0.854465   -0.589201
 C   -3.119099    0.107290    0.528861
 O   -2.344037    0.160675    1.698225
 C   -3.384851   -1.338384    0.093488
 O   -2.149705   -1.982735   -0.114027
 C   -1.462968   -1.511095   -1.242112
 C   -0.043611   -2.090192   -1.206984
 C   -1.183089    0.003009   -1.131789
 O   -0.099711    0.067310   -0.211340
 C    0.794443   -0.999874   -0.472035
 C    1.248449   -1.532194    0.896801
 O    0.248762   -1.803840    1.683853
 O    2.413151   -1.672898    1.209545
 C    1.957612   -0.538930   -1.386974
 C    2.954277    0.511806   -0.859715
 C    2.318388    1.636629   -0.018271
 O    1.300935    2.198025   -0.306727
 O    3.070885    1.921420    1.029695
 N    4.055560   -0.142306   -0.105704
 H   -2.104528    4.101898    0.492181
 H   -3.565845    3.119540    0.353006
 H   -2.668529    3.587730   -1.102709
 H   -0.799705    2.239275   -0.289015
 H   -1.678180    1.763168    1.051220
 H   -3.003111    1.133727   -1.407652
 H   -4.061848    0.622821    0.734170
 H   -1.786733   -0.633950    1.727438
 H   -3.882873   -1.888377    0.893478
 H   -4.008392   -1.363496   -0.807616
 H   -2.003672   -1.762168   -2.162892
 H    0.332751   -2.262467   -2.212000
 H   -0.060204   -3.034864   -0.667814
 H   -0.864276    0.393889   -2.109666
 H    0.523606   -2.191274    2.536522
 H    2.523389   -1.421080   -1.690346
 H    1.488579   -0.127791   -2.282178
 H    3.384287    1.023611   -1.731642
 H    2.748178    2.679658    1.547185
 H    4.730085   -0.600346   -0.726896
 H    3.597265   -0.879888    0.523321
 H    4.549655    0.539115    0.486093
