59 
2zq1_ligand_dft.xyz
 C   -2.670859   -6.485176    3.146860
 O   -1.794867   -7.325652    3.303786
 C   -3.816080   -6.723579    2.167268
 N   -3.997083   -8.143874    1.985409
 C   -4.541129   -8.535961    0.694277
 C   -4.532673  -10.065220    0.610382
 C   -5.181073  -10.584319   -0.674265
 C   -6.607846  -10.049933   -0.821048
 C   -6.606580   -8.521728   -0.768996
 C   -5.962936   -7.991835    0.513526
 N   -2.655669   -5.303955    3.818948
 C   -3.646523   -4.239943    3.729638
 C   -3.734580   -3.642895    2.319203
 O   -2.734295   -3.285155    1.718431
 C   -3.116138   -3.173390    4.713086
 C   -2.241743   -3.967783    5.686787
 C   -1.594474   -5.010900    4.780013
 N   -4.995316   -3.486993    1.836805
 C   -5.251915   -2.908113    0.526702
 C   -5.339157   -3.926625   -0.589197
 C   -4.192002   -4.609320   -1.010659
 C   -4.258357   -5.522195   -2.051967
 C   -5.471123   -5.771195   -2.703079
 C   -5.497709   -6.739750   -3.840326
 N   -4.408033   -6.985617   -4.462712
 N   -6.753245   -7.252869   -4.148171
 C   -6.615707   -5.094771   -2.281898
 C   -6.547760   -4.183642   -1.230872
 H   -4.743422   -6.265235    2.533228
 H   -3.556735   -6.191788    1.231045
 H   -3.091824   -8.582920    2.140527
 H   -3.931081   -8.135950   -0.142907
 H   -3.500371  -10.429748    0.688288
 H   -5.073893  -10.452777    1.483904
 H   -5.178659  -11.680251   -0.677713
 H   -4.586288  -10.262956   -1.541012
 H   -7.231769  -10.445974   -0.007633
 H   -7.051566  -10.399280   -1.761611
 H   -7.625569   -8.124623   -0.866723
 H   -6.030332   -8.146699   -1.622750
 H   -6.556973   -8.289214    1.389102
 H   -5.945166   -6.894556    0.482578
 H   -4.629353   -4.607358    4.058170
 H   -3.930387   -2.625707    5.193572
 H   -2.498722   -2.462122    4.155884
 H   -2.859233   -4.461276    6.445488
 H   -1.507934   -3.340020    6.198127
 H   -1.300632   -5.929174    5.290663
 H   -0.715721   -4.608654    4.261388
 H   -5.756458   -3.954644    2.305350
 H   -6.179449   -2.329926    0.586106
 H   -4.432138   -2.211525    0.334106
 H   -3.243711   -4.402167   -0.522010
 H   -3.371258   -6.043873   -2.394424
 H   -4.549593   -7.678463   -5.200473
 H   -6.752544   -8.027941   -4.797461
 H   -7.369950   -7.410356   -3.362390
 H   -7.559687   -5.243989   -2.797304
 H   -7.445708   -3.650447   -0.927044
