60 
2zq1_ligand_xtb.xyz
 N   -1.245242   -2.160291   -0.285522
 C   -0.266252   -1.297912   -0.557236
 O   -0.458325   -0.275663   -1.222529
 C    1.113870   -1.654394   -0.033655
 C   -1.144899   -3.357071    0.533323
 C   -2.596720   -3.730503    0.832612
 C   -3.354569   -3.186728   -0.376194
 C   -2.624648   -1.870785   -0.646680
 C   -3.131455   -0.734455    0.259207
 N   -4.263731   -0.131543   -0.174553
 C   -4.617487    1.191170    0.340146
 C   -3.376071    2.031388    0.183215
 C   -2.819610    2.144113   -1.089260
 C   -1.493078    2.473168   -1.241069
 C   -0.717866    2.752062   -0.115408
 C    0.741555    2.766038   -0.245481
 N    1.462183    3.711882    0.340837
 N    1.268240    1.790755   -0.932798
 C   -1.318136    2.821361    1.139424
 C   -2.639274    2.442996    1.285079
 O   -2.551676   -0.424302    1.274999
 N    2.121354   -0.833985   -0.678182
 C    3.480282   -1.032282   -0.173730
 C    4.483699   -0.539687   -1.217244
 C    5.915886   -0.678874   -0.708737
 C    6.100705    0.089224    0.595599
 C    5.106439   -0.403440    1.641646
 C    3.673683   -0.260344    1.135156
 H    1.294801   -2.734098   -0.164592
 H    1.121090   -1.442330    1.040264
 H   -0.581215   -3.161868    1.446736
 H   -0.643919   -4.150186   -0.033683
 H   -2.726375   -4.801611    0.964295
 H   -2.929050   -3.219863    1.735906
 H   -4.413012   -3.037914   -0.174624
 H   -3.246999   -3.856428   -1.230229
 H   -2.669400   -1.547435   -1.691037
 H   -4.635161   -0.394435   -1.073256
 H   -4.893621    1.106238    1.393454
 H   -5.464109    1.571381   -0.230645
 H   -3.407021    1.888329   -1.957987
 H   -1.041804    2.479038   -2.219845
 H    2.469803    3.715307    0.294050
 H    1.009186    4.479236    0.809919
 H    0.674663    0.955287   -1.162989
 H   -0.729234    3.056302    2.013140
 H   -3.074696    2.393224    2.270322
 H    2.267743    1.656500   -0.997467
 H    2.104432   -1.029367   -1.676123
 H    3.677828   -2.101099    0.019834
 H    4.363690   -1.110925   -2.140728
 H    4.280140    0.510061   -1.447373
 H    6.609368   -0.307676   -1.464604
 H    6.138422   -1.734222   -0.541016
 H    5.947996    1.156625    0.417007
 H    7.119079   -0.043458    0.961604
 H    5.307034   -1.453262    1.863208
 H    5.225476    0.160690    2.568096
 H    2.980261   -0.625356    1.894009
 H    3.448676    0.795045    0.961842
