37 
2zv9_ligand_xtb.xyz
 C   -2.179542    0.552598    0.013889
 N   -3.295972    1.291219    0.008440
 C   -3.062252    2.582044   -0.050513
 N   -1.893836    3.199583   -0.155894
 C   -0.776751    2.474908   -0.168904
 C   -0.861520    1.074477   -0.021998
 C   -0.035521   -0.085805    0.004849
 N   -0.792192   -1.167061    0.031408
 N   -2.072894   -0.791858    0.042329
 C    1.416125   -0.192394    0.022053
 C    2.201420    0.729906    0.711940
 C    3.579225    0.616761    0.716893
 C    4.179831   -0.428827    0.033819
 C    3.414436   -1.371953   -0.635403
 C    2.039221   -1.252146   -0.635770
 C   -3.164024   -1.755152    0.084399
 C   -4.009216   -1.570676   -1.178435
 C   -4.004293   -1.472045    1.331430
 C   -2.569167   -3.158732    0.138489
 N    0.386459    3.148229   -0.309363
Cl    5.904311   -0.565400    0.027792
 H   -3.931359    3.227023   -0.036855
 H    1.731123    1.520426    1.278052
 H    4.185117    1.329976    1.253602
 H    3.894924   -2.189646   -1.149306
 H    1.426590   -1.979038   -1.144983
 H   -4.400345   -0.557251   -1.214889
 H   -3.406780   -1.749030   -2.066753
 H   -4.840454   -2.270160   -1.175080
 H   -3.400909   -1.589393    2.228993
 H   -4.387378   -0.455658    1.293835
 H   -4.840724   -2.163595    1.380267
 H   -1.960165   -3.346648   -0.741227
 H   -1.938885   -3.269353    1.016406
 H   -3.369526   -3.892207    0.179895
 H    0.311801    4.125451   -0.536418
 H    1.224877    2.652315   -0.556867
