34 
2zxa_ligand_dft.xyz
 C   -4.716507    0.083236   -0.428067
 C   -3.270927    0.091347   -0.011000
 O   -2.668949    1.158892    0.159635
 N   -2.667054   -1.108182    0.158525
 C   -1.339632   -1.283687    0.725216
 C   -0.206535   -0.632106   -0.076937
 N   -0.061342    0.810487    0.295155
 C    0.927400    1.557467   -0.548340
 C    0.873849    3.039334   -0.211965
 C    2.282846    0.905459   -0.274467
 O    2.531205    1.079535    1.103322
 C    2.261226   -0.593641   -0.606558
 O    3.458139   -1.204698   -0.160453
 C    1.139811   -1.323381    0.140196
 O    0.990912   -2.638699   -0.316330
 H   -4.819348    0.654801   -1.353735
 H   -5.298006    0.600079    0.340336
 H   -5.127555   -0.917893   -0.573972
 H   -3.219381   -1.941356    0.021500
 H   -1.317411   -0.918127    1.761263
 H   -1.136157   -2.355130    0.749440
 H   -0.458216   -0.659064   -1.141961
 H    0.271132    0.883620    1.264437
 H   -1.041250    1.206159    0.258747
 H    0.635244    1.388461   -1.589473
 H   -0.128721    3.443257   -0.379532
 H    1.168705    3.217267    0.825279
 H    1.568429    3.582495   -0.857796
 H    3.045415    1.411011   -0.884967
 H    3.284200    0.513525    1.332168
 H    2.109436   -0.743520   -1.684518
 H    4.144232   -1.114035   -0.833545
 H    1.382991   -1.301385    1.214916
 H    1.835395   -3.090693   -0.182207
