33 
2zxb_ligand_dft.xyz
 C   -3.972027   26.728656   28.071731
 C   -5.263982   26.219701   28.139307
 C   -6.345596   26.992601   27.720788
 C   -6.124412   28.279459   27.243051
 C   -4.827263   28.784758   27.177340
 C   -3.733114   28.017519   27.584323
 C   -2.325398   28.547271   27.456868
 C   -1.476396   27.798567   26.416719
 N   -0.182231   28.465248   26.311150
 C    0.694761   27.841833   25.325304
 C    0.055299   27.776941   23.940278
 O    0.927680   27.126195   23.045521
 C   -1.275800   27.031233   24.018620
 O   -1.896265   26.995427   22.747321
 C   -2.203402   27.639318   25.067494
 O   -2.625803   28.901038   24.544659
 H   -3.134293   26.119086   28.402235
 H   -5.428929   25.216532   28.521358
 H   -7.354215   26.594314   27.773217
 H   -6.960829   28.895180   26.925439
 H   -4.664982   29.803701   26.828505
 H   -2.361893   29.606338   27.173474
 H   -1.798944   28.496973   28.415599
 H   -1.284193   26.780497   26.788023
 H   -0.345163   29.433095   26.039846
 H    1.637651   28.394701   25.279495
 H    0.933945   26.823236   25.657835
 H   -0.149315   28.808002   23.601642
 H    0.393017   26.923308   22.264593
 H   -1.061512   25.990291   24.290487
 H   -2.336440   27.855824   22.666424
 H   -3.073483   26.980874   25.186619
 H   -3.504473   29.080280   24.900736
