37 
2zz2_ligand_xtb.xyz
 O    2.445807   -2.038594    1.685685
 P    2.544709   -1.576583    0.187836
 O    1.644860   -2.215689   -0.782198
 O    4.087146   -1.760882   -0.149139
 O    2.398586    0.014332    0.292213
 C    2.603264    0.743644   -0.907907
 C    1.529887    1.818051   -1.083100
 C    1.245499    2.619227    0.197589
 O    1.137913    3.977391   -0.111078
 C   -0.101029    2.048761    0.685024
 O   -0.836516    3.050620    1.318471
 O    0.302634    1.220900   -1.498752
 C   -0.738084    1.550733   -0.631648
 N   -1.614034    0.398061   -0.460871
 C   -1.114233   -0.952284   -0.660828
 C   -2.228312   -1.838226   -1.211515
 C   -3.459292   -1.749156   -0.333850
 O   -4.274898   -2.620569   -0.202751
 N   -3.594943   -0.534672    0.303930
 C   -2.787388    0.586230    0.190678
 O   -3.139727    1.657038    0.645298
 C   -0.623008   -1.452754    0.607286
 N   -0.272775   -1.773519    1.647941
 H    1.527784   -2.103245    1.987158
 H    4.257943   -2.650185   -0.456963
 H    2.561915    0.065793   -1.765398
 H    3.588405    1.214811   -0.862671
 H    1.852310    2.509089   -1.871600
 H    2.035219    2.455771    0.941742
 H    0.457140    4.343639    0.476156
 H    0.075032    1.189208    1.350156
 H   -1.778664    2.801730    1.301909
 H   -1.360429    2.358887   -1.056205
 H   -0.261621   -0.913315   -1.349052
 H   -1.901607   -2.876225   -1.278276
 H   -2.503093   -1.499322   -2.214032
 H   -4.438964   -0.398724    0.850180
