34 
2zz6_ligand_xtb.xyz
 O   -1.286219   -3.360175    1.266213
 P   -1.275791   -2.090664    0.541223
 O   -1.967397   -0.875580    1.289446
 O   -1.964329   -2.160568   -0.895491
 O    0.138353   -1.427515    0.236711
 C    1.057073   -2.098638   -0.609039
 C    2.201868   -1.131440   -0.931517
 C    2.895567   -0.585233    0.325351
 O    4.228521   -0.282409    0.042490
 C    2.070668    0.677100    0.636985
 O    2.889669    1.671983    1.166104
 O    1.729386    0.014558   -1.628058
 C    1.466473    1.055993   -0.745610
 N    0.024646    1.324570   -0.635658
 C   -0.883308    0.699843   -1.435653
 C   -2.207293    0.891566   -1.315564
 C   -2.729494    1.768637   -0.292120
 O   -3.889330    1.989512   -0.034929
 N   -1.716673    2.412912    0.428392
 C   -0.369807    2.245088    0.311187
 O    0.426929    2.870488    0.987144
 H   -2.211968   -1.144386    2.174372
 H   -2.591084   -2.883413   -0.913990
 H    1.440145   -2.992387   -0.107894
 H    0.556898   -2.394365   -1.535875
 H    2.925329   -1.624867   -1.585994
 H    2.838370   -1.305266    1.152800
 H    4.429956    0.555318    0.486675
 H    1.256772    0.418122    1.325309
 H    2.313173    2.432637    1.354677
 H    1.945714    1.972385   -1.124993
 H   -0.451277    0.049033   -2.180198
 H   -2.908262    0.387350   -1.956087
 H   -2.017850    3.067594    1.142541
