54 
3a2c_ligand_xtb.xyz
 C    3.903925   -2.807788   -0.704709
 C    4.351288   -1.716855   -1.673393
 C    5.571373   -0.993084   -1.112904
 N    5.220190   -0.406456    0.179009
 C    4.868377   -1.418442    1.170208
 C    3.673317   -2.268944    0.718445
 N    2.364691   -1.638794    0.867310
 C    1.913983   -0.406163    0.569463
 C    0.532267   -0.117197    0.702336
 C   -0.385016   -1.139432    1.315146
 N    2.782541    0.543187    0.178433
 C    2.362875    1.811557   -0.068058
 C    2.983657    2.988251   -0.424527
 C    1.930979    3.910256   -0.542672
 N    0.760370    3.360290   -0.292076
 N    1.020761    2.082504   -0.001047
 C    0.071676    1.146994    0.332221
 N   -1.182514    1.614286    0.307850
 C   -2.388682    0.908198    0.119065
 C   -3.543803    1.361727    0.741397
 C   -4.749615    0.714516    0.547426
 C   -2.458027   -0.189822   -0.737155
 C   -3.655179   -0.838268   -0.929402
 C   -4.820195   -0.403328   -0.284735
 O   -5.929983   -1.115739   -0.540247
 C   -7.167077   -0.729011    0.040338
 C   -8.223474   -1.712370   -0.435086
 H    2.991797   -3.284319   -1.066253
 H    4.678825   -3.574051   -0.650905
 H    3.544028   -1.003176   -1.843975
 H    4.606612   -2.165225   -2.632977
 H    5.876526   -0.187611   -1.782831
 H    6.406494   -1.700414   -1.017560
 H    3.821248    0.295784    0.097089
 H    5.981687    0.168303    0.526420
 H    5.703838   -2.109184    1.348517
 H    4.631757   -0.918692    2.112770
 H    3.631911   -3.126860    1.399109
 H    1.630653   -2.304532    1.052370
 H   -0.628042   -1.948032    0.625068
 H   -1.316446   -0.672864    1.616580
 H    0.071502   -1.562710    2.209456
 H    4.027089    3.164044   -0.571959
 H    1.989979    4.948017   -0.801380
 H   -1.224748    2.623788    0.186928
 H   -3.498512    2.226133    1.386193
 H   -5.628063    1.089794    1.045928
 H   -1.574579   -0.515185   -1.264584
 H   -3.727058   -1.685769   -1.591384
 H   -7.089253   -0.752384    1.135240
 H   -7.423762    0.290154   -0.276517
 H   -7.967212   -2.718783   -0.116270
 H   -8.284578   -1.697235   -1.519539
 H   -9.190003   -1.442978   -0.020332
