80 
3a2o_ligand_dft.xyz
 C    2.617506   -0.501348    1.528203
 C    4.004679   -0.701646    0.978778
 C    5.127128   -0.368343    1.733153
 C    6.421345   -0.537311    1.230560
 C    5.478079   -1.398146   -0.837727
 N    7.531514   -0.144687    1.979976
 C    6.579556   -1.057657   -0.058062
 C    5.643830   -1.951594   -2.228795
 C    4.201408   -1.213776   -0.305652
 O    3.104207   -1.576484   -1.077950
 C    2.523001   -0.522551   -1.821915
 C    1.012528   -0.508146   -1.667733
 O    0.360967    0.451915   -2.094665
 N    0.474995   -1.577586   -1.060502
 C   -0.903737   -1.581923   -0.594730
 C   -1.529414   -2.971341   -0.757970
 C   -3.021281   -2.943926   -0.517053
 C   -3.588403   -3.561356    0.595963
 C   -4.955364   -3.470377    0.841557
 C   -5.775601   -2.756287   -0.025419
 C   -5.222920   -2.144435   -1.148894
 C   -3.857389   -2.243342   -1.391542
 C   -0.913953   -1.055138    0.866366
 O   -0.461624   -2.053641    1.735500
 C   -2.267691   -0.547155    1.388806
 O   -2.789474   -1.139885    2.328214
 N   -2.816722    0.554363    0.828304
 C   -4.062010    1.045678    1.416350
 S   -4.454485    2.610370    0.572948
 C   -3.196789    2.330398   -0.742609
 C   -2.665658    3.672635   -1.243397
 C   -3.797980    1.520572   -1.897674
 C   -2.110463    1.478177   -0.047538
 C   -1.060210    2.289592    0.730820
 O   -1.267175    2.759111    1.837793
 N    0.112916    2.411973    0.064272
 C    1.242163    3.126060    0.636172
 C    2.450800    3.039980   -0.265617
 C    2.262238    3.473785   -1.697312
 C    3.625556    2.620705    0.206791
 H    2.060019    0.226834    0.926423
 H    2.654989   -0.114442    2.550304
 H    2.036677   -1.428752    1.545738
 H    4.990950    0.037900    2.733257
 H    8.391399   -0.617869    1.739592
 H    7.384349   -0.137567    2.979714
 H    7.580122   -1.192661   -0.463309
 H    5.056150   -2.864654   -2.361656
 H    6.692857   -2.177900   -2.438066
 H    5.301521   -1.234145   -2.984050
 H    2.890690    0.452507   -1.482468
 H    2.761580   -0.629254   -2.887985
 H    1.133565   -2.229278   -0.649515
 H   -1.438829   -0.890296   -1.245527
 H   -1.042590   -3.667912   -0.069184
 H   -1.317606   -3.308906   -1.779011
 H   -2.949048   -4.096543    1.292362
 H   -5.376539   -3.946013    1.721853
 H   -6.840878   -2.676930    0.169414
 H   -5.855763   -1.590406   -1.836322
 H   -3.432980   -1.766888   -2.273217
 H   -0.213991   -0.209027    0.897370
 H   -1.198558   -2.172932    2.367868
 H   -4.841910    0.294208    1.271049
 H   -3.931171    1.233609    2.484332
 H   -3.466415    4.234265   -1.734760
 H   -2.272146    4.278456   -0.423249
 H   -1.868421    3.509682   -1.977621
 H   -4.162579    0.550888   -1.545216
 H   -4.637874    2.059025   -2.345768
 H   -3.040014    1.347935   -2.673041
 H   -1.595166    0.929310   -0.836887
 H    0.247012    1.880664   -0.790838
 H    0.957876    4.177944    0.778476
 H    1.467050    2.722837    1.629884
 H    1.655281    2.751052   -2.257203
 H    1.744963    4.439248   -1.749406
 H    3.224282    3.568816   -2.208584
 H    4.515803    2.589727   -0.416193
 H    3.747252    2.294266    1.235507
