85 
3a3y_ligand_xtb.xyz
 C    1.221942    1.495566    0.542934
 C    2.682173    1.445697    0.085081
 C    3.100250    0.042673   -0.310972
 C    2.172059   -0.434483   -1.421147
 C    0.682203   -0.421090   -1.035889
 C    0.411339   -1.492081    0.025949
 C   -1.089754   -1.736834    0.171787
 C   -1.933893   -0.494690   -0.171158
 C   -1.211255    0.804706    0.228136
 C    0.183944    0.960969   -0.503672
 C   -2.165295    1.991406   -0.007974
 C   -3.528988    1.779705    0.650308
 C   -4.277511    0.527807    0.194638
 C   -3.357548   -0.692034    0.409981
 C   -3.423038   -0.922242    1.931321
 C   -4.824367   -0.472111    2.373365
 C   -5.448896    0.319043    1.205120
 C   -4.750616    0.680486   -1.246896
 C    0.135289    1.972748   -1.675342
 C   -6.661470   -0.316329    0.614158
 C   -6.854183   -1.783264    0.371047
 C   -7.763615    0.310315    0.188853
 C   -8.708554   -0.683268   -0.342750
 C    5.184626   -1.084514   -0.485800
 C    6.517077   -0.969792   -1.239710
 C    7.427214    0.049622   -0.547288
 C    7.528236   -0.282616    0.945534
 C    6.111373   -0.282700    1.542088
 C    6.097463   -0.603916    3.031089
 O    1.012578    2.826518    0.918176
 O    4.451462    0.072289   -0.771566
 O   -0.040024   -0.743270   -2.227024
 O   -1.609003    3.168198    0.575546
 O   -3.951259   -1.793107   -0.265345
 O   -0.886608    1.761681   -2.615019
 O   -8.131742   -1.906381   -0.215342
 O   -9.800130   -0.521490   -0.813348
 O    7.121041   -2.233221   -1.283138
 O    8.691002   -0.015895   -1.166329
 O    8.382022    0.681524    1.522859
 O    5.339291   -1.282015    0.888568
 H    1.136206    0.853103    1.440347
 H    3.293920    1.812708    0.909321
 H    2.828934    2.123172   -0.754590
 H    3.045357   -0.627610    0.556106
 H    2.441775   -1.453857   -1.714534
 H    2.331238    0.206310   -2.290331
 H    0.834978   -1.165347    0.972861
 H    0.910741   -2.423810   -0.250601
 H   -1.284351   -2.055869    1.195848
 H   -1.381139   -2.549245   -0.497191
 H   -2.071398   -0.463808   -1.255052
 H   -1.009106    0.770436    1.305146
 H   -2.292402    2.135744   -1.083405
 H   -3.371857    1.752657    1.729783
 H   -4.146444    2.655322    0.430791
 H   -3.266339   -1.973117    2.175322
 H   -2.650623   -0.340720    2.431275
 H   -4.763610    0.153730    3.262983
 H   -5.439951   -1.332332    2.627058
 H   -5.770146    1.306473    1.548390
 H   -5.498169    1.467179   -1.312022
 H   -5.186662   -0.246218   -1.604834
 H   -3.918127    0.936412   -1.895653
 H    1.108556    1.957311   -2.180418
 H   -0.010255    2.979538   -1.280700
 H   -6.838536   -2.374306    1.292936
 H   -6.092656   -2.181297   -0.306276
 H   -7.987260    1.358966    0.205169
 H    4.667526   -1.993203   -0.830028
 H    6.296670   -0.612998   -2.257304
 H    6.993701    1.053903   -0.655653
 H    7.954140   -1.292880    1.053559
 H    5.658882    0.704963    1.364381
 H    6.618406   -1.540235    3.215553
 H    5.068745   -0.713272    3.361579
 H    6.561384    0.198302    3.599300
 H    0.057198    2.997600    0.987401
 H    0.297821   -1.580412   -2.563819
 H   -2.068451    3.937832    0.226485
 H   -3.438980   -2.582946   -0.064704
 H   -0.795737    0.848668   -2.922377
 H    8.044250   -2.079899   -1.532052
 H    9.293772    0.507512   -0.624011
 H    8.471734    0.494214    2.462914
