45 
3a4p_ligand_dft.xyz
 C    9.323052    1.534450   -0.011096
 N    7.903655    1.336748   -0.209248
 C    7.259972    0.254991    0.315708
 O    7.830282   -0.563750    1.023557
 C    5.812706    0.164014   -0.029087
 C    5.092242   -0.876280    0.401581
 C    3.666406   -1.113626    0.160255
 C    2.781445   -0.143419   -0.250146
 C    1.423663   -0.472512   -0.472677
 C    0.463153    0.474028   -0.892481
 C    3.147130   -2.426823    0.368096
 N    1.903141   -2.779411    0.176396
 C    1.031478   -1.819889   -0.246500
 C   -0.320204   -2.176067   -0.461455
 C   -1.240111   -1.248359   -0.878540
 C   -0.843428    0.096865   -1.097713
 O   -1.684600    1.077051   -1.530095
 C   -3.083007    0.859348   -1.525095
 C   -3.721584    2.054438   -2.221087
 C   -3.650585    0.651926   -0.121325
 C   -4.614236   -0.342065    0.105821
Cl   -5.202075   -1.366298   -1.177568
 C   -5.152126   -0.553413    1.371947
 F   -6.061247   -1.510858    1.548573
 C   -4.757727    0.214177    2.451568
 C   -3.820607    1.214745    2.250404
 C   -3.285523    1.433055    0.984731
Cl   -2.150478    2.755888    0.847689
 H    9.567244    2.585980   -0.178134
 H    9.577214    1.263240    1.015238
 H    9.923518    0.913407   -0.686775
 H    7.420393    1.921437   -0.872063
 H    5.372103    0.948880   -0.641635
 H    5.627361   -1.629801    0.978389
 H    3.105101    0.884812   -0.392713
 H    0.743432    1.509692   -1.057358
 H    3.826920   -3.208435    0.707512
 H   -0.605832   -3.208038   -0.287237
 H   -2.265968   -1.558628   -1.038911
 H   -3.301883   -0.033540   -2.116703
 H   -4.799693    1.895158   -2.313806
 H   -3.544696    2.976558   -1.662719
 H   -3.292766    2.162493   -3.220813
 H   -5.191513    0.026573    3.426779
 H   -3.501996    1.839620    3.076551
