38 
3a6t_ligand_dft.xyz
 O    6.633753    1.265915   14.132989
 P    7.962192    0.630518   13.563452
 O    8.747268    1.494887   12.672762
 O    7.454298   -0.750137   12.868541
 O    8.720541    0.017872   14.839092
 C    9.178695    0.925201   15.851623
 C    8.614733    0.515782   17.193540
 O    7.220408    0.800057   17.227739
 C    8.782826   -0.987841   17.525860
 O    9.404071   -1.048664   18.797216
 C    7.337914   -1.487916   17.549232
 C    6.608683   -0.223217   17.995091
 N    5.187468   -0.202024   17.803590
 C    4.299609   -0.043510   18.896687
 N    3.045469   -0.155726   18.346361
 C    3.136894   -0.367489   16.975565
 C    2.131985   -0.568418   15.992655
 O    0.920041   -0.596701   16.107260
 N    2.744918   -0.779475   14.723350
 C    4.083763   -0.761725   14.464891
 N    4.482876   -1.014025   13.194859
 N    4.987494   -0.548927   15.403959
 C    4.466871   -0.392609   16.646804
 O    4.612235    0.131199   20.055512
 H    6.194535    0.688130   14.809967
 H    8.004744   -0.951172   12.099619
 H    8.884292    1.954343   15.624217
 H   10.270531    0.870763   15.875005
 H    9.129860    1.087265   17.977374
 H    9.385476   -1.502618   16.768215
 H    9.526844   -1.977505   19.026463
 H    7.012272   -1.764291   16.542325
 H    7.187543   -2.329181   18.230976
 H    6.755681   -0.045408   19.066662
 H    2.196811   -0.085295   18.882829
 H    2.090007   -1.003628   13.984793
 H    5.477227   -0.914092   13.006478
 H    3.864172   -0.781341   12.433449
