61 
3aaq_ligand_xtb.xyz
 N    6.637336   -0.193278   -1.242709
 C    6.272640    1.018075   -1.606130
 N    5.222927    1.718608   -1.208455
 C    4.494743    1.046019   -0.313535
 C    4.750928   -0.245494    0.166961
 C    5.903730   -0.882234   -0.348693
 N    6.308849   -2.113183   -0.015747
 N    3.768388   -0.589519    1.065521
 C    2.965394    0.424605    1.120000
 N    3.350750    1.462921    0.309730
 C    2.760335    2.750880    0.066390
 C    1.837912    2.718226   -1.171670
 O    1.851871    3.925279   -1.892887
 C    0.446188    2.579135   -0.535507
 O   -0.571294    3.123714   -1.328875
 C    0.623831    3.306923    0.812448
 O    1.993731    3.188749    1.154581
 C   -0.250478    2.759684    1.943207
 O   -0.097445    1.350438    2.038534
 C    7.206199   -3.471258   -1.858990
 C    7.512884   -2.662363   -0.600858
 C    5.592629   -2.909233    0.956294
 C    6.087316   -2.640432    2.376415
 O   -4.848620   -2.802233    0.632541
Br   -5.290324    0.348334   -0.340880
 O   -2.699611    1.462503   -1.571862
 O   -0.867575   -1.021148    1.894201
 O   -3.686666   -1.098869    2.152949
 P   -3.624329   -1.829892    0.877020
 C   -3.764441   -0.746710   -0.580510
 P   -2.264879    0.259422   -0.666127
 O   -2.244061    0.908401    0.814189
 P   -1.317047    0.357890    2.032041
 O   -2.360764   -2.723575    0.654111
Br   -3.886809   -1.746997   -2.178535
 O   -1.031778   -0.430612   -1.009500
 O   -2.156947    0.772892    3.285125
 H    6.915032    1.501790   -2.330786
 H    2.084536    0.470929    1.728075
 H    3.596658    3.449759   -0.096311
 H    2.085571    1.870888   -1.821189
 H    2.714272    4.031734   -2.309365
 H    0.221819    1.523235   -0.363621
 H   -0.174423    3.863740   -1.818318
 H    0.381195    4.373970    0.681156
 H   -1.293805    3.022508    1.758940
 H    0.082685    3.193871    2.888857
 H    8.123551   -3.885619   -2.267938
 H    6.522527   -4.288076   -1.638478
 H    6.750203   -2.826303   -2.604840
 H    8.001502   -3.293604    0.145552
 H    8.169720   -1.829559   -0.857434
 H    4.530439   -2.667736    0.901373
 H    5.735837   -3.962041    0.700855
 H    5.570777   -3.290718    3.076276
 H    7.157779   -2.817840    2.456978
 H    5.880091   -1.608913    2.646206
 H   -5.184376   -3.206326    1.432794
 H   -1.986542    2.114812   -1.702977
 H   -1.570055   -2.308656    1.066846
 H   -2.924828    0.191935    3.364708
