32 
3aas_ligand_dft.xyz
 C   -0.547336   18.802729   20.659693
 N   -1.607630   16.680320   20.145816
 O   -0.330541   19.539754   21.589431
 C   -1.868985   18.086883   20.384437
 C   -2.833759   18.259908   21.550559
 N   -2.861508   14.359258   14.609728
 C   -2.471170   13.140144   14.600284
 N   -1.981309   12.502455   15.720393
 C   -1.726903   13.026734   17.002689
 C   -1.222767   12.139738   17.968490
 C   -0.927751   12.557773   19.251780
 N   -2.512092   12.253418   13.510797
 C   -1.924620   14.351869   17.364011
 C   -1.619737   14.793345   18.661605
 C   -1.117131   13.893288   19.623399
 O   -0.814527   14.256314   20.877210
 C   -1.845527   16.194887   18.986293
 O    0.362129   18.542822   19.705528
 H   -2.285895   18.564502   19.480356
 H   -3.787028   17.780190   21.312911
 H   -2.423345   17.799247   22.452721
 H   -3.004329   19.319730   21.753060
 H   -3.106451   14.664616   13.670322
 H   -2.016934   11.495550   15.675795
 H   -1.055398   11.097642   17.703164
 H   -0.541540   11.863831   19.990457
 H   -1.660841   11.720454   13.378855
 H   -2.798841   12.694754   12.647808
 H   -2.327128   15.042121   16.632526
 H   -1.011310   15.221095   20.961866
 H   -2.237762   16.825564   18.175940
 H    1.161965   19.036065   19.948079
