50 
3aau_ligand_xtb.xyz
 N    8.136214   -0.499131    1.412797
 C    6.781462   -0.287507    1.250005
 N    6.306355   -0.824450    0.056026
 C    5.001579   -0.737130   -0.428166
 C    4.447125   -1.823398   -1.114953
 C    3.180207   -1.752774   -1.644608
 C   -2.678230   -2.096152    0.285793
 C   -4.052116   -2.173493    0.210332
 C   -4.836791   -1.048568    0.453671
 N   -6.228164   -1.143293    0.375002
 C   -7.098416   -0.176483   -0.103990
 N   -8.423406   -0.463065    0.154542
 N    6.135689    0.289032    2.171205
 C    4.253923    0.422756   -0.307319
 C    2.958158    0.507057   -0.826259
 C    2.406306   -0.597974   -1.506578
 O    1.183213   -0.577011   -2.040529
 O   -0.694070   -0.874311    0.643167
 C   -2.045513   -0.896955    0.604130
 C   -2.829212    0.225794    0.893850
 C   -4.209291    0.138819    0.818517
 N   -6.819160    0.911196   -0.690303
 C    2.213469    1.732832   -0.662504
 N    1.053581    1.889726   -1.154592
 C    0.319180    3.096490   -0.952844
 C   -0.889138    2.852613   -0.102289
 N   -1.020004    1.787419    0.543818
 C   -2.184365    1.521629    1.336817
 H    8.510978   -0.002016    2.205556
 H    8.705042   -0.445587    0.582221
 H    6.852676   -1.587586   -0.317193
 H    5.028222   -2.727300   -1.231437
 H    2.753814   -2.589486   -2.174381
 H   -2.062434   -2.959301    0.090514
 H   -4.525211   -3.111352   -0.043783
 H   -6.607180   -2.067831    0.516860
 H   -9.057201    0.142495   -0.341883
 H   -8.695958   -1.432524    0.174704
 H    5.129497    0.290057    2.056259
 H    4.678637    1.290740    0.174726
 H    0.773639    0.294861   -1.825608
 H   -0.408113    0.060202    0.665635
 H   -4.808356    0.999509    1.075971
 H   -5.829609    1.078483   -0.824982
 H    2.713210    2.528847   -0.091667
 H   -0.019944    3.458969   -1.930530
 H    0.919403    3.895632   -0.479761
 H   -1.625268    3.668491   -0.080405
 H   -1.840708    1.404614    2.373612
 H   -2.916035    2.343282    1.303366
