43 
3acw_ligand_xtb.xyz
 O   -2.408462   -1.818260   -0.826503
 C    6.401134    0.257728    0.150475
 C    5.815228   -0.984325   -0.029574
 C    5.604378    1.385466    0.259212
 C    4.439395   -1.100743   -0.094421
 C    4.228596    1.274164    0.183432
 C    1.406243    0.828023   -0.777602
 C    1.503615   -1.142592    0.570149
 C    0.030114    0.715743   -0.855262
 C    0.130905   -1.252305    0.500203
 C   -3.012069    1.798887   -0.100236
 C   -4.366679    0.039691   -1.211618
 C   -3.928925    1.489993    1.089094
 C   -4.884346   -0.526775    0.112917
 C   -2.705670   -0.605812    1.182587
 C    3.629379    0.028334    0.009046
 C    2.168148   -0.093955   -0.064512
 C   -0.629124   -0.320859   -0.206179
 C   -2.940971    0.552818   -0.987161
 N   -4.049501    0.016315    1.215615
 C   -2.132469   -0.547252   -0.257725
 H   -1.811997   -1.982606   -1.564603
 H    7.475204    0.346615    0.205147
 H    6.432429   -1.865402   -0.120518
 H    6.056586    2.355031    0.403839
 H    3.988732   -2.069470   -0.253918
 H    3.611391    2.154950    0.286126
 H    1.898489    1.633263   -1.300749
 H    2.067394   -1.868698    1.134786
 H   -0.509571    1.445507   -1.438137
 H   -0.361720   -2.080336    0.988060
 H   -2.014402    2.069698    0.243219
 H   -3.408335    2.639594   -0.668262
 H   -4.991038    0.859301   -1.565941
 H   -4.374517   -0.741284   -1.969034
 H   -3.523555    1.896242    2.017007
 H   -4.928679    1.901711    0.941869
 H   -4.787476   -1.613242    0.124088
 H   -5.926925   -0.258351    0.287240
 H   -2.788045   -1.654986    1.470846
 H   -2.052722   -0.087779    1.885746
 H   -2.485051    0.784170   -1.949398
 H   -4.493287   -0.209439    2.108354
