43 
3acw_ligand_dft.xyz
 O   -2.439071   -1.826857   -0.804528
 C    6.442136    0.269944    0.159088
 C    5.858328   -0.981861   -0.013914
 C    5.636122    1.401211    0.253335
 C    4.475522   -1.102597   -0.089794
 C    4.253321    1.281288    0.175357
 C    1.410202    0.827597   -0.778976
 C    1.515096   -1.163104    0.552002
 C    0.025431    0.713491   -0.846731
 C    0.136206   -1.283750    0.478479
 C   -3.032814    1.812044   -0.107191
 C   -4.383240    0.034620   -1.222669
 C   -3.946113    1.517812    1.096682
 C   -4.933690   -0.520857    0.099202
 C   -2.708274   -0.609445    1.189791
 C    3.656195    0.027819    0.003879
 C    2.180929   -0.101237   -0.074572
 C   -0.633819   -0.339615   -0.212150
 C   -2.953387    0.550702   -0.988260
 N   -4.076639    0.020501    1.219974
 C   -2.141830   -0.548486   -0.254127
 H   -1.843598   -1.980395   -1.550184
 H    7.521595    0.364454    0.221059
 H    6.481128   -1.867047   -0.096667
 H    6.085282    2.379077    0.395745
 H    4.029870   -2.080499   -0.250110
 H    3.631392    2.166778    0.275135
 H    1.901251    1.641426   -1.303607
 H    2.086055   -1.893703    1.116718
 H   -0.521523    1.456747   -1.418183
 H   -0.347522   -2.131701    0.956844
 H   -2.039628    2.108532    0.238521
 H   -3.444291    2.648910   -0.676421
 H   -5.009492    0.853751   -1.588192
 H   -4.395342   -0.756038   -1.971681
 H   -3.539404    1.890720    2.038564
 H   -4.956422    1.913094    0.972009
 H   -4.857637   -1.607950    0.148184
 H   -5.962275   -0.217079    0.302432
 H   -2.807439   -1.649194    1.505061
 H   -2.089588   -0.061393    1.901856
 H   -2.491623    0.782871   -1.949959
 H   -4.519680   -0.203481    2.112705
