51 
3acx_ligand_dft.xyz
 C   -0.070370    3.811470   -0.123435
 C    7.484459    0.337919    0.473795
 C    5.331400    1.397813    1.315148
 C   -0.011850    2.635114   -0.739911
 C   -7.014948    0.374130    0.146411
 C   -6.496952   -0.581961    1.015580
 C   -6.164425    1.039686   -0.731968
 C   -5.136872   -0.870921    1.006185
 C   -4.804460    0.750414   -0.741101
 C   -2.365708   -1.835187    0.229015
 C   -1.005076   -2.113965    0.227475
 C   -1.875562    0.506390   -0.001091
 C    0.514001    1.371506   -0.118444
 C    3.306923   -1.929921   -0.896523
 C    3.859782   -0.571515   -0.488174
 C    1.796839   -1.827490   -1.086749
 N    5.304049   -0.665562   -0.083485
 O    1.269877   -1.356708    0.136405
 C   -4.272930   -0.208734    0.127534
 C   -2.820997   -0.518026    0.116762
 C   -0.506076    0.251395   -0.021941
 C   -0.091282   -1.076623    0.101543
 C    6.022302    0.649770    0.184717
 H    0.257773    3.932928    0.906752
 H   -0.454689    4.696695   -0.620547
 H    7.596138   -0.233159    1.402320
 H    7.960129   -0.214346   -0.343757
 H    8.032498    1.275054    0.596058
 H    4.313247    1.701530    1.060648
 H    5.308669    0.800394    2.233881
 H    5.899136    2.306598    1.529007
 H   -0.368546    2.547017   -1.765898
 H   -8.076785    0.599537    0.153588
 H   -7.152458   -1.099503    1.709266
 H   -6.562058    1.781102   -1.418279
 H   -4.736788   -1.600299    1.705257
 H   -4.150859    1.257025   -1.446107
 H   -3.080736   -2.648553    0.304574
 H   -0.645634   -3.133690    0.329267
 H   -2.215357    1.536811   -0.055253
 H    0.907462    1.590229    0.883981
 H    1.368143    1.017430   -0.712300
 H    3.502815   -2.666882   -0.107890
 H    3.770450   -2.287375   -1.823246
 H    3.302676   -0.188262    0.366196
 H    3.808222    0.154732   -1.304003
 H    1.384597   -2.810443   -1.345676
 H    1.551901   -1.135031   -1.906021
 H    5.819955   -1.170558   -0.811142
 H    5.372032   -1.250815    0.756282
 H    5.931505    1.206855   -0.752767
