41 
3ads_ligand_xtb.xyz
 C    1.289773   -1.131151    0.301757
 C    2.135963   -0.136736   -0.218280
 C    3.455206   -0.431957   -0.553011
 C    3.904766   -1.727353   -0.359745
 C    3.042132   -2.711573    0.150044
 C    1.735575   -2.431148    0.482371
 C    6.103433   -1.227839   -1.122601
 C    1.363951    1.070165   -0.275654
 C    0.111548    0.788084    0.184467
 C   -1.069928   -1.291706    0.936286
 C   -2.397565   -0.822433    0.452190
 C   -3.493681   -0.866720    1.308599
 C   -4.750597   -0.515142    0.856112
 C   -4.916297   -0.149861   -0.471968
 C   -3.840272   -0.138904   -1.347793
 C   -2.582250   -0.471386   -0.882705
 C   -0.975601    1.768121    0.458941
 C    1.879492    2.402695   -0.713563
 C    2.282794    3.276569    0.469835
 N    0.031488   -0.565324    0.508630
 O    5.169767   -2.158314   -0.635971
 O   -0.956057   -2.295520    1.602541
 O    1.860172    3.150180    1.579109
 O    3.149976    4.262967    0.170582
Cl   -6.484383    0.284232   -1.047978
 H    4.099325    0.339109   -0.944919
 H    3.442291   -3.703678    0.282379
 H    1.087944   -3.192398    0.884054
 H    5.796692   -0.818082   -2.091364
 H    6.261998   -0.407883   -0.414121
 H    7.034093   -1.779212   -1.246668
 H   -3.346250   -1.171457    2.333464
 H   -5.599114   -0.531234    1.521493
 H   -3.991360    0.125217   -2.382733
 H   -1.743214   -0.477291   -1.563130
 H   -0.524153    2.705670    0.775265
 H   -1.592270    1.954593   -0.420989
 H   -1.621550    1.417617    1.258755
 H    1.102070    2.947378   -1.259194
 H    2.734283    2.263007   -1.379661
 H    3.411791    4.269109   -0.759186
