23 
3adt_ligand_xtb.xyz
 O   -3.446037   -1.654888   -0.078874
 O   -2.263673   -0.545608    1.428824
 O    2.567656   -2.560680   -0.165761
 C    2.968690   -0.272761    0.238525
 C    2.564318    1.037703    0.332821
 C   -0.760752    2.275866   -0.228584
 C    0.739865   -1.018208   -0.364323
 C   -2.221360    0.257609   -0.857819
 N    0.544213    2.508860    0.099329
 C   -2.705129   -0.751464    0.181271
 C    2.066767   -1.295016   -0.104715
 C   -0.954009    0.943430   -0.470921
 C    1.229090    1.324385    0.074419
 C    0.313408    0.307759   -0.277233
 H   -1.625076    0.186778    1.452435
 H    1.863228   -3.179059   -0.393538
 H    3.992208   -0.552639    0.427855
 H    3.262331    1.816670    0.598966
 H   -1.469174    3.080852   -0.276586
 H    0.045866   -1.805975   -0.624236
 H   -3.022059    0.990923   -0.986672
 H   -2.109795   -0.275577   -1.804781
 H    0.944084    3.409605    0.297093
