26 
3adu_ligand_dft.xyz
 C   17.203476   64.600907    9.801182
 O   11.612926   60.756864   11.944023
 O   13.293657   60.468675   13.365294
 C   17.474473   64.111343   12.895974
 C   16.968977   64.277553   14.171799
 C   13.592305   63.552332   15.237031
 C   15.339398   63.291643   12.056946
 C   12.299543   62.695131   13.188107
 N   14.859331   63.994902   15.524832
 O   17.226395   63.439045   10.608319
 C   12.365623   61.225088   12.756329
 C   16.665946   63.620649   11.850308
 C   13.502304   63.211665   13.912742
 C   15.627498   63.946235   14.381080
 C   14.805241   63.456754   13.343939
 H   16.173709   64.935176    9.615878
 H   17.762713   65.424307   10.266608
 H   17.674862   64.334477    8.853297
 H   13.822886   61.033692   13.951593
 H   18.513075   64.339620   12.678673
 H   17.595932   64.644950   14.978658
 H   12.830852   63.523495   16.004625
 H   14.746491   62.902293   11.234705
 H   11.405054   62.790645   13.814847
 H   12.098562   63.272744   12.280347
 H   15.175847   64.302351   16.428922
