66 
3afk_ligand_xtb.xyz
 C   -2.803286   -0.651014   -0.407796
 C   -3.743997   -1.756360    0.084018
 C   -5.169834   -1.541553   -0.455869
 C   -5.623094   -0.121862   -0.083468
 C   -4.611042    0.875152   -0.671751
 C   -4.965436    2.339686   -0.387328
 O   -3.226651   -2.985115   -0.351558
 O   -6.026807   -2.518500    0.059038
 O   -5.702561   -0.084435    1.316375
 O   -3.312521    0.643687   -0.161732
 O   -5.080514    2.550392    1.001452
 O    1.905015    1.028140   -0.571627
 C    1.742928    0.527708    0.739316
 C    0.661128   -0.573456    0.754979
 N    1.167849   -1.911592    0.530688
 C   -0.447850   -0.234433   -0.268486
 O   -1.620028   -0.772658    0.305520
 C   -0.537096    1.289421   -0.508082
 O   -0.855125    1.963629    0.677944
 C    0.809524    1.775247   -1.068339
 C    1.046896    3.271855   -0.823542
 O    2.358490    3.559850   -1.276368
 C    2.049402   -2.342564   -0.381785
 O    2.715810   -1.621898   -1.121639
 C    2.188797   -3.841713   -0.422730
 N    4.310378    0.441469   -1.163540
 C    5.047763    0.445525    0.108160
 C    5.731437   -0.916345    0.308098
 O    6.082498   -1.337876    1.366787
 C    4.104735    0.751811    1.306621
 O    2.928102   -0.041034    1.186939
 C    3.887551    2.249293    1.471472
 O    5.911596   -1.535645   -0.855499
 H   -2.632314   -0.784733   -1.495248
 H   -3.768784   -1.709179    1.183441
 H   -5.166721   -1.673354   -1.544270
 H   -6.612097    0.077620   -0.528926
 H   -4.601421    0.739611   -1.767356
 H   -5.910746    2.567349   -0.896899
 H   -4.171804    2.971405   -0.806392
 H   -3.945056   -3.630715   -0.281193
 H   -6.267666   -2.248606    0.956652
 H   -5.577732    0.832901    1.602969
 H   -5.292323    3.474822    1.169027
 H    1.404015    1.343730    1.397357
 H    0.192581   -0.578176    1.741618
 H    0.646683   -2.624762    1.018776
 H   -0.231783   -0.725285   -1.230696
 H   -1.309881    1.484209   -1.265072
 H   -1.739013    1.660615    0.941748
 H    0.837120    1.592862   -2.148581
 H    0.295626    3.841814   -1.377170
 H    0.946695    3.495777    0.244056
 H    2.462691    4.515750   -1.329865
 H    2.852977   -4.123658   -1.234858
 H    1.220184   -4.312536   -0.571692
 H    2.605673   -4.196627    0.517524
 H    4.926356    0.240417   -1.952877
 H    3.781563    1.315133   -1.293748
 H    3.554148   -0.343751   -1.115268
 H    5.840633    1.202333    0.091055
 H    4.606380    0.355111    2.199488
 H    4.842797    2.726559    1.670351
 H    3.239376    2.439027    2.322646
 H    3.447603    2.693665    0.582544
 H    6.347066   -2.395171   -0.735156
