75 
3aid_ligand_xtb.xyz
 C    3.585848    4.242203    0.573734
 C    2.416936    4.773359    1.399472
 C    4.558619    3.442683    1.436338
 C    4.305147    5.382220   -0.142906
 O    3.086320    3.406441   -0.515998
 C    2.387216    2.309484   -0.278958
 O    2.090238    1.838966    0.796089
 N    1.960907    1.778039   -1.476799
 C    1.480288    0.405935   -1.582211
 C    2.563688   -0.599826   -1.150728
 C    2.346999   -2.001595   -1.657244
 C    2.260059   -3.069932   -0.770326
 C    2.064010   -4.359964   -1.234059
 C    1.955352   -4.600657   -2.592733
 C    2.255128   -2.258015   -3.020569
 C    2.058565   -3.546401   -3.485041
 C    0.166602    0.347495   -0.764921
 O   -0.774676    1.235221   -1.352536
 C   -0.440758   -1.053275   -0.752339
 N   -1.593900   -1.244165    0.169932
 C   -2.093727   -2.621601   -0.032913
 C   -1.222889   -1.027050    1.617976
 C   -0.050860   -1.830939    2.111041
 C    1.197069   -1.232976    2.262518
 C    2.264790   -1.959144    2.763958
 C    2.100805   -3.287314    3.120179
 C   -0.215684   -3.156169    2.506548
 C    0.855755   -3.881526    2.996884
 N   -2.619762   -0.330047   -0.197188
 C   -3.852443   -0.294708    0.425283
 O   -4.156102   -1.105269    1.275024
 C   -4.742330    0.783734   -0.046346
 C   -4.543788    1.497647   -1.229247
 C   -5.441020    2.483970   -1.593661
 C   -6.535628    2.770881   -0.791810
 C   -5.854815    1.067933    0.747526
 C   -6.743252    2.059144    0.378665
 H    1.909253    3.960449    1.911732
 H    1.705857    5.289260    0.757409
 H    2.788409    5.473743    2.141055
 H    4.997757    4.094888    2.184885
 H    5.355284    3.030351    0.820897
 H    4.043040    2.629537    1.940130
 H    5.106854    4.989753   -0.762483
 H    4.726264    6.067476    0.585536
 H    3.610460    5.925326   -0.778041
 H    2.421685    2.166848   -2.286247
 H    1.224003    0.241249   -2.634164
 H    3.511541   -0.233575   -1.555887
 H    2.648487   -0.595767   -0.064050
 H    2.366698   -2.895194    0.291029
 H    2.006258   -5.176895   -0.530691
 H    1.807126   -5.605518   -2.955807
 H    2.357513   -1.448772   -3.728773
 H    1.996618   -3.729566   -4.546698
 H    0.402222    0.679888    0.250887
 H   -0.334302    2.081557   -1.506145
 H   -0.790134   -1.281253   -1.762640
 H    0.327173   -1.772802   -0.467668
 H   -1.296192   -3.334504    0.157607
 H   -2.441952   -2.727858   -1.058747
 H   -2.931486   -2.799975    0.640285
 H   -1.020944    0.038719    1.739547
 H   -2.118769   -1.275285    2.193376
 H    1.342925   -0.191820    2.016678
 H    3.224845   -1.480769    2.882242
 H    2.934089   -3.850896    3.509339
 H   -1.190404   -3.618554    2.465393
 H    0.712963   -4.907060    3.299584
 H   -2.280882    0.489653   -0.696639
 H   -3.715204    1.277037   -1.885764
 H   -5.289072    3.030716   -2.511673
 H   -7.228680    3.544173   -1.085043
 H   -6.002206    0.498150    1.652247
 H   -7.598137    2.274062    1.000415
