39 
3ama_ligand_dft.xyz
 S    5.266711    0.724826    0.028403
 C   -3.077799   -2.569777   -0.020931
 F   -2.247651    0.783091    2.177647
 N   -4.308312   -3.099079    0.017338
 O    6.235037    0.064431    0.890408
 C   -1.014272   -2.203972   -0.059910
 F   -4.191557    1.715554   -1.980996
 N   -1.938586   -3.220230   -0.055339
 O    4.890360    2.116335    0.238122
 C    1.435561   -1.731735   -0.064165
 N    0.309918   -2.546975   -0.091082
 O   -4.977260   -0.431461   -0.031958
 C    1.369462   -0.333729   -0.015302
 N    5.873910    0.531235   -1.527455
 C    2.544455    0.407585    0.009819
 N   -1.478593   -0.978639   -0.037888
 C    3.777321   -0.230936   -0.015850
 N   -2.848353   -1.204897   -0.005583
 C    3.854684   -1.622822   -0.057195
 C    2.690664   -2.365502   -0.083325
 C   -3.785888   -0.188335    0.017855
 C   -3.230360    1.195482    0.092213
 C   -2.480584    1.638077    1.179401
 C   -1.994367    2.931163    1.268463
 C   -2.268560    3.816206    0.229711
 C   -3.017770    3.419083   -0.872874
 C   -3.489434    2.116938   -0.918015
 H   -4.399363   -4.096292   -0.081650
 H   -5.104642   -2.482558   -0.061577
 H    0.458658   -3.544754   -0.106342
 H    0.409312    0.163143    0.006907
 H    6.887208    0.473157   -1.476209
 H    5.579931    1.295821   -2.128430
 H    2.503760    1.490347    0.058651
 H    4.820827   -2.116069   -0.062277
 H    2.745756   -3.450539   -0.113647
 H   -1.419300    3.225723    2.138167
 H   -1.893102    4.832756    0.282063
 H   -3.237210    4.093539   -1.691859
