61 
3amb_ligand_xtb.xyz
 N    6.402773   -1.305186   -0.118260
 C    5.763147   -0.658534   -1.292765
 C    5.794643    0.867949   -1.128821
 N    5.141438    1.295348    0.087790
 C    5.767052    0.667889    1.229817
 C    5.736052   -0.864328    1.133647
 C    6.373556   -2.769144   -0.241681
 C    3.715492    1.095454    0.050677
 C    2.867133    2.152693    0.133024
 C    1.464681    1.870018    0.055521
 N    1.059427    0.582871   -0.066480
 C    1.970904   -0.337445   -0.082510
 N    3.293727   -0.190943   -0.054484
 N    0.559884    2.832856    0.111502
 C   -0.818269    2.757325   -0.033633
 C   -1.645940    1.792092   -0.622517
 C   -2.903854    2.371824   -0.513538
 N   -2.810430    3.564490    0.109889
 N   -1.546225    3.807544    0.391832
 C   -4.210947    1.860886   -1.023663
 S    1.443226   -2.024336   -0.123627
 C   -0.297150   -1.790565    0.166415
 C   -0.704377   -1.095651    1.294584
 C   -2.041623   -0.823477    1.474381
 C   -2.987275   -1.272497    0.551817
 C   -2.570819   -2.020631   -0.545605
 C   -1.224516   -2.265692   -0.742657
 N   -4.318091   -0.923574    0.774645
 C   -5.431033   -1.309582    0.081075
 O   -5.436453   -2.159010   -0.786088
 C   -6.666336   -0.591889    0.510628
 C   -7.635402   -0.200236   -0.578793
 C   -7.980834   -1.311587    0.346358
 H    7.378817   -0.985827   -0.080837
 H    4.710801   -0.968171   -1.298499
 H    6.274834   -0.973734   -2.202784
 H    5.283413    1.325282   -1.976859
 H    6.829043    1.233506   -1.110343
 H    5.235323    0.976356    2.130825
 H    6.800513    1.030411    1.297319
 H    6.228328   -1.329118    1.988552
 H    4.684100   -1.167992    1.062597
 H    6.863510   -3.231155    0.613626
 H    5.335731   -3.098544   -0.276714
 H    6.876318   -3.082819   -1.154844
 H    3.228517    3.161252    0.238280
 H    0.875065    3.773154    0.317188
 H   -1.364639    0.856290   -1.063061
 H   -4.113257    0.829038   -1.356870
 H   -4.978324    1.923613   -0.252229
 H   -4.546485    2.465761   -1.867545
 H    0.022571   -0.741870    2.009207
 H   -2.358640   -0.238958    2.325817
 H   -3.298088   -2.379869   -1.254088
 H   -0.894328   -2.812193   -1.613313
 H   -4.436511   -0.196337    1.466498
 H   -6.558598    0.082685    1.350131
 H   -7.351311   -0.456086   -1.587768
 H   -8.142852    0.747134   -0.482079
 H   -8.738844   -1.155321    1.098700
 H   -7.928228   -2.318130   -0.039784
