28 
3anr_ligand_xtb.xyz
 C   -3.459413    2.272479    0.001964
 C   -2.974082    0.853501   -0.000644
 N   -3.897245   -0.094379    0.001769
 C   -3.547306   -1.375389    0.003699
 C   -2.242061   -1.829359    0.002539
 C   -1.245102   -0.860058   -0.000989
 C   -1.624835    0.505135   -0.002134
 N   -0.486241    1.278091   -0.004579
 C    0.612502    0.461534   -0.004366
 C    1.956222    0.813156   -0.004615
 C    0.188357   -0.885546   -0.002429
 C    1.140692   -1.900308   -0.001694
 C    2.471490   -1.559093   -0.001176
 C    2.886271   -0.215124   -0.001806
 O    4.236575   -0.034435    0.001269
 C    4.741027    1.277244    0.007099
 H   -4.116590    2.435245   -0.849675
 H   -4.039913    2.458554    0.903624
 H   -2.635967    2.980099   -0.042527
 H   -4.377150   -2.069777    0.006548
 H   -2.009333   -2.882288    0.004432
 H    2.244469    1.852550   -0.006929
 H    0.838644   -2.936097   -0.000829
 H    3.240991   -2.314193    0.000322
 H    4.437843    1.829361   -0.888855
 H    4.421883    1.827297    0.898738
 H    5.825233    1.177049    0.016614
 H   -0.460862    2.282669   -0.004639
