52 
3ant_ligand_xtb.xyz
 N    0.288209    0.196850    0.749101
 C   -1.085386    0.126886    0.731990
 N   -1.749459    1.327222    0.637927
 C   -3.170028    1.325766    0.804339
 C   -4.021046    1.003174   -0.393212
 C   -3.966338    2.405622    0.137305
 C   -5.228582    0.151177   -0.222291
 C   -6.494053    0.619979   -0.547775
 C   -7.601882   -0.194224   -0.387126
 C   -7.452171   -1.481442    0.099469
 C   -6.190945   -1.954230    0.423883
 C   -5.082208   -1.143114    0.264167
 O   -1.682786   -0.929033    0.818111
 C    1.060010    1.266696    0.156388
 C    1.302204    0.985742   -1.329827
 C    2.018349   -0.360226   -1.517373
 C    1.257320   -1.466123   -0.766145
 C    1.001307   -1.065145    0.686369
 C    3.426673   -0.287852   -1.050921
 N    3.891430    0.062405    0.111401
 C    5.242730   -0.071448   -0.033657
 N    5.578883   -0.481837   -1.222937
 O    4.405003   -0.626206   -1.897176
 C    6.204079    0.205442    1.066640
 C    7.327626    1.113171    0.569108
 C    6.763595   -1.120373    1.588793
 H   -1.271372    2.167029    0.924464
 H   -3.520248    0.958797    1.766132
 H   -3.475790    0.816715   -1.312044
 H   -4.826263    2.788604    0.665475
 H   -3.432064    3.148346   -0.436311
 H   -6.609623    1.624360   -0.930564
 H   -8.584122    0.177417   -0.642076
 H   -8.318072   -2.115212    0.225548
 H   -6.072695   -2.958336    0.804450
 H   -4.093001   -1.496481    0.516282
 H    0.562463    2.229170    0.273107
 H    2.021728    1.305137    0.676328
 H    0.341026    0.938677   -1.845984
 H    1.892864    1.790947   -1.769863
 H    2.059587   -0.608678   -2.583443
 H    1.818363   -2.400898   -0.802739
 H    0.296182   -1.622461   -1.259031
 H    1.947389   -0.944271    1.219476
 H    0.389695   -1.821272    1.179518
 H    5.647200    0.702819    1.866938
 H    7.847488    0.635578   -0.256943
 H    6.928384    2.064078    0.223635
 H    8.035072    1.304862    1.372058
 H    5.961034   -1.760721    1.948301
 H    7.453064   -0.934754    2.408631
 H    7.292999   -1.636890    0.791984
