16 
3ao1_ligand_xtb.xyz
 C   -0.807509   -1.141041   -0.001314
 C   -1.854323   -0.211057    0.000006
 C   -1.599309    1.152764    0.000044
 C   -0.296811    1.649042   -0.000748
 C    0.723814    0.733414   -0.001005
 C    0.468215   -0.639456   -0.001682
 O    1.652824   -1.322666   -0.002473
 C    2.667144   -0.340281    0.003955
 O    2.082007    0.942615   -0.001132
 O   -3.122277   -0.705180    0.001665
 H   -1.014550   -2.196357   -0.001480
 H   -2.426207    1.848949    0.000916
 H   -0.100643    2.707502   -0.000791
 H    3.301343   -0.460972   -0.889080
 H    3.288275   -0.459703    0.906703
 H   -3.755978    0.022130    0.003717
