27 
3ao2_ligand_dft.xyz
 C   -0.027424    1.751706    0.026336
 C   -0.577015    0.455164   -0.005672
 C    0.257768   -0.663003   -0.033365
 C    1.648258   -0.525679   -0.030992
 C    2.176712    0.744548   -0.000043
 C    1.342513    1.854638    0.027317
 O    2.107607    2.988359    0.027653
 C    3.441327    2.540793    0.235816
 O    3.479454    1.141533   -0.020814
 C   -2.038315    0.271430   -0.004911
 N   -2.564447   -0.934625    0.188322
 N   -3.898070   -0.748683    0.135318
 C   -4.228472    0.542101   -0.117951
 C   -3.044156    1.244677   -0.209441
Br    2.781690   -2.029923   -0.077619
 C   -4.800148   -1.859448    0.320465
 N   -5.570221    0.934830   -0.172843
 H   -0.650613    2.637421    0.060468
 H   -0.185927   -1.651316   -0.053824
 H    3.732126    2.727348    1.278801
 H    4.109241    3.053167   -0.458735
 H   -2.933483    2.297561   -0.422683
 H   -5.034311   -2.348721   -0.631571
 H   -4.317379   -2.579234    0.981654
 H   -5.721340   -1.491990    0.779062
 H   -6.074540    0.519865   -0.949281
 H   -5.656521    1.941855   -0.222875
