27 
3ao5_ligand_xtb.xyz
 C   -0.297683    1.693081    0.158671
 C   -0.758318    0.374630    0.002767
 C    0.147999   -0.670514   -0.142803
 C    1.521053   -0.441736   -0.118922
 C    1.969178    0.846057    0.044248
 C    1.056990    1.897390    0.174580
 O    1.749018    3.066884    0.318570
 C    3.117883    2.722615    0.276171
 O    3.243256    1.327776    0.104008
 C   -2.194166    0.146355   -0.033348
 N   -2.832970   -0.921660    0.506649
 N   -4.156442   -0.849302    0.322855
 C   -4.382756    0.269812   -0.352907
 C   -3.175245    0.945148   -0.601259
Br    2.745020   -1.876736   -0.308745
 C   -2.307474   -1.994219    1.300566
 N   -5.658635    0.693180   -0.652256
 H   -0.987270    2.511020    0.273702
 H   -0.200124   -1.676409   -0.307714
 H    3.603336    3.021799    1.218423
 H    3.604007    3.241999   -0.564543
 H   -3.040117    1.861558   -1.137147
 H   -2.018463   -2.845503    0.678210
 H   -1.445011   -1.653631    1.872489
 H   -3.095384   -2.318373    1.979003
 H   -6.347132   -0.040220   -0.577793
 H   -5.736167    1.239006   -1.496494
