43 
3apc_ligand_xtb.xyz
 C    2.262772    2.797469   -0.736331
 C    2.525978    3.603236    0.542144
 O    1.668325    4.720579    0.618817
 C    0.310287    4.337094    0.597355
 C   -0.025460    3.545583   -0.673498
 N    0.870081    2.416166   -0.770081
 C    0.470388    1.166462   -0.453772
 N   -0.849415    0.956942   -0.367179
 N    1.426212    0.236775   -0.291906
 C    0.952346   -0.977924   -0.081002
 N    1.709295   -2.091250    0.134146
 S    3.394161   -2.170402   -0.032903
 C    3.916010   -0.917607    1.147459
 O    3.747958   -1.770789   -1.354981
 O    3.771762   -3.473946    0.414680
 C    0.845064   -3.147830    0.374345
 C   -0.441888   -2.728605    0.319972
 C   -0.415776   -1.330980    0.018258
 C   -1.313467   -0.264915   -0.143730
 C   -2.761660   -0.408338   -0.066264
 C   -3.574959    0.637132    0.383459
 N   -4.882661    0.541262    0.468663
 C   -5.426255   -0.625110    0.097494
 N   -6.758533   -0.752535    0.224983
 N   -4.752096   -1.676437   -0.381936
 C   -3.444132   -1.560134   -0.463835
 H    2.877614    1.899912   -0.778218
 H    2.465647    3.428371   -1.608119
 H    3.542352    3.999723    0.555837
 H    2.374642    2.953602    1.419099
 H   -0.265382    5.262437    0.645592
 H    0.082184    3.717997    1.479036
 H    0.124353    4.182687   -1.551089
 H   -1.050013    3.178748   -0.648167
 H    4.977384   -0.754306    1.013077
 H    3.350699   -0.024065    0.911781
 H    3.701549   -1.284780    2.142040
 H    1.267556   -4.113882    0.563379
 H   -1.310983   -3.331914    0.489701
 H   -3.138120    1.577696    0.691169
 H   -7.298821    0.047838    0.496915
 H   -7.202346   -1.584332   -0.118213
 H   -2.924926   -2.405717   -0.894652
