14 
3aqt_ligand_xtb.xyz
 C    1.200941   -0.318461    0.000218
 C   -0.000122   -1.013434    0.000216
 C   -1.201035   -0.318055   -0.000029
 C   -1.201277    1.073082   -0.000707
 C    0.000097    1.756754    0.000056
 C    1.201289    1.072683    0.000737
 O    2.354527   -1.038008   -0.000400
 O   -2.354384   -1.037989    0.000271
 H   -0.000903   -2.090116    0.000171
 H   -2.138344    1.613174   -0.001949
 H    0.000732    2.836387    0.000056
 H    2.138528    1.612434    0.001500
 H    3.111016   -0.439268   -0.001960
 H   -3.111535   -0.440051    0.000265
