62 
3ara_ligand_dft.xyz
 O   -3.778066    3.863744    0.755945
 C   -3.663409    2.659387    0.694980
 N   -4.473930    1.899334   -0.133444
 C   -4.418429    0.521140   -0.374245
 N   -3.575521   -0.186562    0.438050
 C   -3.105339    0.418078    1.683316
 C   -2.636590    1.847941    1.445482
 O   -5.091712    0.027641   -1.263371
 C   -3.663341   -1.643764    0.357961
 C   -3.060822   -2.220154   -0.926010
 C   -1.632498   -1.771456   -1.226363
 S   -0.427569   -2.456253   -0.079229
 N    1.050497   -2.076479   -0.714456
 C    1.820308   -3.126762   -1.414294
 C    2.534194   -2.362583   -2.527139
 C    2.736531   -0.971135   -1.929777
 C    1.430761   -0.713294   -1.162171
 O   -0.587847   -1.750520    1.198726
 O   -0.532821   -3.906557   -0.087691
 C    1.471980    0.401748   -0.074700
 O    0.124041    0.713436    0.275353
 C    2.026130    1.648973   -0.768666
 C    3.384460    1.967463   -0.720012
 C    3.878584    3.066735   -1.414099
 C    3.019884    3.865512   -2.163808
 C    1.663811    3.557265   -2.212652
 C    1.170370    2.454538   -1.521631
 C    2.243743    0.097055    1.211010
 C    2.183064    1.072640    2.214003
 C    2.838964    0.897104    3.423740
 C    3.572721   -0.264679    3.657256
 C    3.637346   -1.240431    2.671581
 C    2.975502   -1.062802    1.457077
 H   -5.118401    2.402696   -0.729307
 H   -2.278816   -0.189387    2.055619
 H   -3.903942    0.399680    2.440169
 H   -2.425827    2.353068    2.390252
 H   -1.711801    1.848754    0.855134
 H   -4.712515   -1.955479    0.413015
 H   -3.145693   -2.043161    1.231845
 H   -3.100855   -3.313206   -0.871807
 H   -3.682259   -1.906531   -1.768064
 H   -1.531567   -0.683864   -1.165665
 H   -1.319564   -2.110711   -2.218637
 H    1.162830   -3.917095   -1.779606
 H    2.531796   -3.584238   -0.716243
 H    1.890523   -2.301238   -3.412102
 H    3.470232   -2.842517   -2.822711
 H    2.905554   -0.198028   -2.681009
 H    3.592940   -0.961832   -1.248332
 H    0.685093   -0.345076   -1.881671
 H   -0.176995   -0.002840    0.863719
 H    4.058374    1.359180   -0.124277
 H    4.937212    3.303013   -1.360316
 H    3.404423    4.728224   -2.699525
 H    0.984167    4.179662   -2.787193
 H    0.110682    2.224897   -1.549785
 H    1.611367    1.977498    2.031529
 H    2.778893    1.667655    4.186537
 H    4.085117   -0.407624    4.603908
 H    4.195093   -2.155927    2.845011
 H    3.021402   -1.852661    0.719392
