49 
3arn_ligand_dft.xyz
 O   -3.990890   -2.140987    1.853190
 C   -3.649947   -1.045037    1.451708
 N   -4.035672   -0.609714    0.174754
 C   -3.657095    0.537250   -0.492152
 N   -2.897242    1.409498    0.284423
 C   -2.482302    1.071279    1.552512
 C   -2.819725   -0.081207    2.157290
 O   -3.970843    0.761692   -1.644336
 C   -2.401495    2.652275   -0.313027
 C    3.106278    1.357342    0.467051
 O   -1.015472    2.710923   -0.312824
 C   -0.400963    1.760968   -1.177265
 C    1.100322    1.919765   -1.062207
 S    2.754324   -1.417550    0.346181
 C    1.607400    1.689631    0.364102
 O    3.701079   -2.394514   -0.172978
 C    1.212758   -1.586571   -0.537420
 C    1.180005   -1.428442   -1.920979
 C   -0.021895   -1.612248   -2.593714
 C   -1.167514   -1.985062   -1.889796
 N    3.362734    0.044413   -0.181243
 C   -1.112905   -2.176664   -0.512385
 O    2.412364   -1.397244    1.762511
 C    0.079907   -1.964332    0.174743
 C    3.554558    1.390823    1.935683
 C    3.947365    2.361279   -0.331804
 H   -4.599764   -1.253651   -0.365276
 H   -1.837870    1.807325    2.020401
 H   -2.474581   -0.327181    3.151665
 H   -2.745892    3.496752    0.288310
 H   -2.832053    2.699053   -1.317541
 H   -0.743104    1.926529   -2.209129
 H   -0.693531    0.742352   -0.886010
 H    1.381488    2.920780   -1.408259
 H    1.563482    1.198859   -1.743500
 H    1.415979    2.583426    0.967534
 H    1.035756    0.882204    0.840323
 H    2.082751   -1.151039   -2.455684
 H   -0.064978   -1.473210   -3.669247
 H   -2.103763   -2.128602   -2.420215
 H    4.340169   -0.113942   -0.408587
 H   -1.990449   -2.506057    0.033701
 H    0.138652   -2.091838    1.249935
 H    3.491508    2.416016    2.316808
 H    2.936025    0.742974    2.558155
 H    4.594284    1.057820    2.026424
 H    3.739767    2.300260   -1.403579
 H    3.732591    3.379466    0.007756
 H    5.017195    2.177878   -0.176969
