64 
3arq_ligand_dft.xyz
 C    6.500743    0.224551    0.867626
 C    7.464040   -0.750082    0.636252
 C    7.128298   -1.921109   -0.042892
 C    5.828133   -2.121140   -0.490564
 C    4.856198   -1.148069   -0.261043
 C    3.474634   -1.375332   -0.744653
 O    3.183826   -2.423918   -1.334452
 C    2.470797   -0.332879   -0.506035
 C    1.165226   -0.516052   -0.960705
 O    0.764928   -1.617682   -1.610477
 C    0.192826    0.494702   -0.749788
 C   -1.199483    0.232128   -1.264873
 O   -1.734979   -0.788389   -0.420822
 C   -2.063602    1.489832   -1.292738
 C   -1.946270    2.297907    0.002809
 O   -2.357468    1.508517    1.099973
 C   -2.858183    3.541657   -0.028373
 O   -3.575471    3.735571    0.933669
 C   -2.861146    4.453065   -1.225022
 C   -0.486169    2.746019    0.195234
 C    0.512252    1.647208   -0.067144
 C    1.841234    1.843560    0.398896
 O    2.081941    2.993244    1.033417
 C    2.812253    0.865488    0.182516
 C    4.180587    1.083695    0.671188
 O    4.489897    2.114467    1.276964
 C    5.194653    0.030965    0.420891
 C   -2.572317   -1.726665   -1.003872
 C   -2.600960   -2.899075   -0.020389
 C   -3.175477   -2.363146    1.283471
 N   -3.349336   -3.505413    2.265040
 C   -4.569073   -1.769688    1.066912
 O   -5.387983   -2.902255    0.821344
 C   -4.518494   -0.734304   -0.068988
 O   -3.877521   -1.248153   -1.228448
 C   -5.901292   -0.275484   -0.496402
 H    6.742754    1.143307    1.390544
 H    8.480621   -0.596761    0.983852
 H    7.884049   -2.678606   -0.224180
 H    5.548268   -3.024275   -1.021920
 H    1.566342   -2.192376   -1.702839
 H   -1.129065   -0.171224   -2.283060
 H   -1.721712    2.108929   -2.130836
 H   -3.101302    1.210575   -1.496311
 H   -2.884987    2.124205    1.644918
 H   -3.302688    5.412073   -0.951067
 H   -1.862113    4.604591   -1.642057
 H   -3.476356    4.000125   -2.012189
 H   -0.240617    3.593696   -0.457683
 H   -0.362837    3.111176    1.218948
 H    3.034074    2.984592    1.297303
 H   -2.206074   -2.043769   -1.985913
 H   -3.235524   -3.691209   -0.427865
 H   -1.580276   -3.269393    0.114252
 H   -2.502265   -1.627714    1.727880
 H   -4.193194   -4.017805    1.961495
 H   -3.509100   -3.172852    3.220184
 H   -2.543127   -4.135693    2.272798
 H   -4.903221   -1.248280    1.978170
 H   -6.287238   -2.624114    0.609261
 H   -3.944707    0.114106    0.328036
 H   -6.470679    0.107926    0.356670
 H   -5.811520    0.528008   -1.230918
 H   -6.455975   -1.089089   -0.975960
