28 
3as3_ligand_dft.xyz
 C   -2.454018    0.541355   -0.148946
 C   -1.569832   -0.528614   -0.205297
 C   -0.201444   -0.256940   -0.101715
 C    0.227544    1.070977    0.019136
 C   -0.639501    2.153354    0.050625
 C   -1.992443    1.867357   -0.026277
 C    0.998775   -1.047931   -0.111704
 C    2.021736   -0.168022    0.006201
 O    1.583445    1.127921    0.085195
 C    3.466054   -0.372672    0.042245
 N    4.313905    0.699216    0.275886
 C    5.654169    0.221565   -0.065067
 C    5.446426   -1.308369    0.046802
 N    4.002296   -1.527769   -0.094026
 N   -3.852570    0.335778   -0.225852
 C   -4.533945   -0.720157    0.251358
 S   -6.153209   -0.955078    0.095173
 H   -1.924789   -1.542706   -0.354528
 H   -0.276385    3.170363    0.143411
 H   -2.716335    2.675342    0.022501
 H    1.103942   -2.119356   -0.191180
 H    4.020790    1.612106   -0.042493
 H    6.403637    0.605438    0.631218
 H    5.936553    0.516806   -1.085640
 H    5.764638   -1.678736    1.030040
 H    5.998076   -1.868968   -0.712442
 H   -4.411343    1.056914   -0.667160
 H   -3.901536   -1.431315    0.785722
