28 
3as3_ligand_xtb.xyz
 C   -2.458857    0.494696   -0.008185
 C   -1.548627   -0.551060   -0.024282
 C   -0.190905   -0.241908   -0.028070
 C    0.231397    1.105118   -0.016533
 C   -0.674930    2.153956   -0.004085
 C   -2.013490    1.830696    0.000067
 C    1.006681   -1.010557   -0.038151
 C    2.033097   -0.112023   -0.031923
 O    1.580176    1.175871   -0.017191
 C    3.458696   -0.341579   -0.022625
 N    4.339065    0.708072   -0.075621
 C    5.678210    0.183954    0.107910
 C    5.421513   -1.343400    0.007191
 N    3.983796   -1.508651   -0.004543
 N   -3.836571    0.293538    0.001344
 C   -4.527125   -0.852984    0.012699
 S   -6.158233   -0.889733    0.029065
 H   -1.861175   -1.581704   -0.032966
 H   -0.343203    3.179342    0.002582
 H   -2.748790    2.621676    0.010512
 H    1.112347   -2.074563   -0.048530
 H    4.084714    1.635440    0.216754
 H    6.094672    0.467569    1.082069
 H    6.344439    0.547089   -0.678537
 H    5.840182   -1.902728    0.846587
 H    5.828989   -1.765659   -0.915173
 H   -4.406350    1.133602    0.005582
 H   -3.953490   -1.771473    0.011278
