71 
3asx_ligand_dft.xyz
 C    1.323379    1.223204    0.693464
 N    0.102636    1.188635   -0.056467
 O    1.258541   -1.959757    0.987289
Cl    3.457096    0.041969   -2.431172
 C    1.585170    2.340983    1.483924
 N   -3.656088   -2.076696    0.744211
 O   -2.140494    0.857861   -0.101527
Cl    5.168871    1.511678    3.047311
 C    2.758911    2.445143    2.217514
 O   -1.414362   -2.135451    0.559389
 C    3.675757    1.404447    2.145592
 O   -7.131247    0.192468    1.505151
 C    3.421484    0.273090    1.383393
 O   -6.926977    1.242509   -0.461739
 C    2.239568    0.163002    0.652934
 C    1.883432   -1.172730   -0.000599
 C    3.106361   -1.910185   -0.534291
 C    3.878428   -1.448263   -1.602457
 C    4.998457   -2.135089   -2.056748
 C    5.373710   -3.319141   -1.432598
 C    4.623123   -3.803186   -0.367184
 C    3.503721   -3.104114    0.069744
 C   -1.077843    0.802807    0.512651
 C   -1.025029    0.250399    1.932127
 C   -2.269570   -0.595897    2.186740
 C   -2.415959   -1.654852    1.100116
 C   -4.892736   -1.409857    1.130967
 C   -5.267994   -0.369356    0.069408
 C   -5.394076   -1.044460   -1.310684
 C   -4.133488   -1.853202   -1.637082
 C   -3.788800   -2.825741   -0.506240
 C   -6.527366    0.356265    0.469657
 C    0.119104    1.492423   -1.490907
 C    0.065475    2.977422   -1.916686
 C    1.413057    3.679912   -1.696133
 C   -1.048883    3.721972   -1.174538
 C   -0.239381    2.972044   -3.423224
 H    0.301762   -2.040365    0.791789
 H    0.852686    3.141800    1.514243
 H    2.961729    3.319068    2.826051
 H    4.142607   -0.537037    1.368237
 H   -7.731005    1.659257   -0.112139
 H    1.195046   -0.990488   -0.835021
 H    5.565657   -1.739845   -2.892349
 H    6.249220   -3.856395   -1.783464
 H    4.906117   -4.727897    0.125988
 H    2.902692   -3.470561    0.893254
 H   -0.115115   -0.333127    2.081448
 H   -0.990926    1.081309    2.646326
 H   -2.187030   -1.096627    3.158334
 H   -3.139774    0.057942    2.222742
 H   -5.677077   -2.172137    1.200368
 H   -4.811547   -0.967508    2.121470
 H   -4.458067    0.371365    0.012937
 H   -6.266948   -1.713121   -1.303155
 H   -5.574039   -0.287291   -2.078458
 H   -4.273159   -2.404351   -2.573466
 H   -3.285616   -1.171460   -1.772725
 H   -4.583963   -3.569775   -0.373957
 H   -2.852014   -3.346240   -0.695223
 H   -0.749368    0.977738   -1.907987
 H    1.020591    1.037487   -1.911331
 H    1.383319    4.692585   -2.115161
 H    2.228291    3.136231   -2.188148
 H    1.666449    3.767478   -0.636910
 H   -2.014716    3.227713   -1.314333
 H   -0.851217    3.761635   -0.097327
 H   -1.124995    4.753438   -1.537662
 H    0.518713    2.406300   -3.978680
 H   -0.250305    3.993655   -3.818976
 H   -1.217028    2.520366   -3.626955
