14 
3at1_ligand_dft.xyz
 P    1.136143   -0.137163   -0.000745
 O    1.029623    0.794006    1.309689
 O    2.293284   -1.038513   -0.014146
 O    1.040005    0.852695   -1.267061
 C   -0.479082   -1.006733   -0.027979
 C   -1.643960   -0.031966   -0.007581
 O   -1.476359    1.190437   -0.006389
 N   -2.876285   -0.575555    0.008688
 H    0.247932    1.369317    1.247192
 H    0.238604    1.400837   -1.195735
 H   -0.526009   -1.677817    0.836327
 H   -0.520569   -1.629047   -0.928547
 H   -3.677710    0.038122    0.019765
 H   -3.024584   -1.571892    0.007963
