22 
3ati_ligand_dft.xyz
 N   -2.873037   -1.160806   -0.723987
 O    2.559062   -0.246329   -0.175931
 C   -2.274907   -0.765081    0.628359
 C   -1.060524    0.076324    0.382678
 C   -1.201010    1.449717    0.211849
 C   -0.072654    2.214192   -0.093486
 C    1.166323    1.614784   -0.223013
 C    1.312489    0.229587   -0.043132
 C    2.796094   -1.625523    0.043673
 C    0.189063   -0.545561    0.254239
 H   -3.717341   -1.736456   -0.637088
 H   -3.107248   -0.317956   -1.259421
 H   -2.180972   -1.679093   -1.275203
 H   -2.058972   -1.701664    1.145973
 H   -3.066139   -0.232196    1.159040
 H   -2.167763    1.930656    0.339519
 H   -0.164378    3.287722   -0.219236
 H    2.052787    2.196892   -0.450220
 H    2.518117   -1.917400    1.063293
 H    2.253499   -2.242068   -0.683562
 H    3.866889   -1.767913   -0.093571
 H    0.281048   -1.614895    0.418840
