24 
3atk_ligand_xtb.xyz
 N   -2.611594   -0.185756   -0.159370
 C   -1.107427   -0.067273   -0.305093
 C   -0.440389   -1.162799    0.521945
 C    0.877761   -1.620828   -0.111989
 C    2.024282   -0.625653    0.040572
 C    1.730678    0.782601   -0.476041
 C    0.756975    1.552569    0.418293
 C   -0.725836    1.364550    0.071176
 H   -2.941911   -1.099984   -0.492872
 H   -2.863799   -0.087615    0.833119
 H   -3.083813    0.557139   -0.689845
 H   -0.889051   -0.243266   -1.362023
 H   -1.103919   -2.030508    0.566194
 H   -0.261740   -0.824491    1.542035
 H    0.710412   -1.828729   -1.171007
 H    1.176804   -2.557843    0.358371
 H    2.883857   -1.024731   -0.498820
 H    2.306346   -0.559712    1.092843
 H    1.364672    0.746996   -1.502898
 H    2.675257    1.326444   -0.492334
 H    0.967451    2.619762    0.348748
 H    0.934219    1.262929    1.454315
 H   -1.311044    1.681422    0.938400
 H   -0.978852    2.023470   -0.761814
