24 
3atk_ligand_dft.xyz
 N   -2.628188   -0.159383   -0.162578
 C   -1.105983   -0.061542   -0.300123
 C   -0.468106   -1.197931    0.499930
 C    0.878441   -1.633423   -0.101448
 C    2.030875   -0.636982    0.044186
 C    1.764853    0.784198   -0.468825
 C    0.773781    1.571413    0.402181
 C   -0.718593    1.368468    0.087973
 H   -2.986905   -1.047779   -0.526242
 H   -2.904102   -0.094322    0.823016
 H   -3.099510    0.600539   -0.664421
 H   -0.930059   -0.228357   -1.367241
 H   -1.134905   -2.071104    0.488070
 H   -0.350359   -0.900687    1.549688
 H    0.722270   -1.865604   -1.163819
 H    1.167447   -2.575315    0.375093
 H    2.895785   -1.052268   -0.483542
 H    2.320577   -0.574593    1.101298
 H    1.435407    0.764342   -1.517403
 H    2.716692    1.323844   -0.468691
 H    0.969738    2.643877    0.313923
 H    0.957403    1.318996    1.453003
 H   -1.296900    1.672704    0.972038
 H   -1.016858    2.036213   -0.729973
