17 
3atl_ligand_dft.xyz
 C   -0.213897   -0.035513   -0.021915
 C    0.520640   -1.211247    0.152395
 C    1.908734   -1.174052    0.176283
 C    2.580711    0.036940    0.019565
 C    1.856201    1.209512   -0.168269
 C    0.464762    1.174313   -0.188909
 C   -1.705442   -0.111129   -0.035755
 N   -2.353598    1.078596    0.275043
 N   -2.267080   -1.212854   -0.363455
 H   -0.019067   -2.145444    0.264242
 H    2.469882   -2.092988    0.317703
 H    3.666279    0.064579    0.037966
 H    2.373207    2.154226   -0.308070
 H   -0.091465    2.089266   -0.371296
 H   -3.348224    1.002322    0.438218
 H   -1.890983    1.675393    0.946589
 H   -3.285134   -1.140494   -0.306844
