42 
3atu_ligand_xtb.xyz
 P    0.454153   -2.075819   -0.895158
 O    1.090079   -2.726501    0.363059
 O    0.625990   -0.641834   -1.117289
 O    0.975670   -3.006517   -2.058186
 P   -2.114264   -1.880455    0.197942
 O   -3.445108   -2.704932   -0.076504
 O   -1.666432   -1.913030    1.585759
 O   -1.115700   -2.503921   -0.867855
 O   -2.430020   -0.459106   -0.428617
 C   -3.315336    0.372328    0.317228
 C   -2.736946    1.776191    0.512008
 O   -1.654685    1.742620    1.435474
 C   -2.223528    2.426904   -0.783362
 O   -2.583623    3.779181   -0.814637
 C   -0.700544    2.249601   -0.687190
 O   -0.041631    3.326989   -1.282959
 C   -0.467827    2.175217    0.842710
 N    0.610615    1.262566    1.132201
 C    0.580979    0.108181    1.841980
 N    1.682489   -0.588285    1.751359
 C    2.501854    0.142845    0.923554
 C    3.771731   -0.072275    0.363258
 N    4.531961   -1.144921    0.650290
 N    4.255173    0.848147   -0.476393
 C    3.524058    1.907719   -0.766218
 N    2.314760    2.214897   -0.328057
 C    1.828985    1.303070    0.517433
 H    1.315000   -2.047286    1.063674
 H    0.918447   -2.559608   -2.901836
 H   -3.491533   -3.479938    0.482911
 H   -4.260861    0.436357   -0.227504
 H   -3.485878   -0.066529    1.303728
 H   -3.522882    2.409185    0.944001
 H   -2.626092    1.908958   -1.663170
 H   -1.827826    4.256861   -1.190978
 H   -0.406058    1.291006   -1.130495
 H    0.918647    3.173781   -1.159356
 H   -0.189909    3.173688    1.227401
 H   -0.277138   -0.192997    2.407484
 H    5.369579   -1.285492    0.113033
 H    4.118830   -1.913041    1.148334
 H    3.967477    2.610047   -1.459159
