42 
3atv_ligand_xtb.xyz
 P    0.456149   -2.075361   -0.894811
 O    1.091541   -2.725787    0.363821
 O    0.627580   -0.641219   -1.116680
 O    0.978824   -3.005666   -2.057611
 P   -2.112696   -1.881955    0.197484
 O   -3.442676   -2.707608   -0.077562
 O   -1.664670   -1.914867    1.585238
 O   -1.113506   -2.504047   -0.868625
 O   -2.429794   -0.460615   -0.428369
 C   -3.315622    0.370034    0.317799
 C   -2.738346    1.774424    0.512098
 O   -1.656032    1.741647    1.435536
 C   -2.225452    2.425300   -0.783383
 O   -2.586752    3.777222   -0.814948
 C   -0.702301    2.249314   -0.687083
 O   -0.044295    3.327115   -1.283020
 C   -0.469478    2.175183    0.842829
 N    0.609606    1.263341    1.132395
 C    0.580778    0.109157    1.842654
 N    1.682656   -0.586654    1.752054
 C    2.501519    0.144676    0.923822
 C    3.771222   -0.069945    0.363204
 N    4.532054   -1.142320    0.650153
 N    4.254035    0.850576   -0.476696
 C    3.522301    1.909591   -0.766713
 N    2.312852    2.216150   -0.328543
 C    1.827840    1.304408    0.517421
 H    1.315438   -2.046618    1.064735
 H    0.922637   -2.558127   -2.901096
 H   -3.487208   -3.484451    0.479481
 H   -4.261424    0.433204   -0.226575
 H   -3.485335   -0.068890    1.304432
 H   -3.524770    2.406835    0.944065
 H   -2.627587    1.906793   -1.663055
 H   -1.831533    4.255591   -1.191661
 H   -0.406985    1.290971   -1.130313
 H    0.916129    3.174544   -1.159573
 H   -0.192490    3.173953    1.227470
 H   -0.277028   -0.192292    2.408447
 H    5.369230   -1.282881    0.112204
 H    4.118934   -1.910864    1.147550
 H    3.965250    2.612041   -1.459873
