42 
3atv_ligand_dft.xyz
 P   46.328574    4.402783   43.455736
 O   46.818422    5.295569   44.500302
 O   46.792398    4.765698   41.971409
 O   46.619538    2.850793   43.674304
 P   43.867959    3.622356   42.229324
 O   44.807632    2.818139   41.413441
 O   42.792693    2.755307   42.996586
 O   44.673011    4.468526   43.344836
 O   43.051622    4.723797   41.417135
 C   42.794114    6.045175   41.897447
 C   41.648167    6.085696   42.907673
 O   41.861866    5.109229   43.950100
 C   41.596986    7.435185   43.615468
 O   40.284172    7.688368   44.042920
 C   42.511453    7.186716   44.812606
 O   42.299064    8.135760   45.804373
 C   42.097630    5.757411   45.199376
 N   43.117161    5.043830   45.935251
 C   43.230561    3.671658   46.060847
 N   44.302806    3.281695   46.686072
 C   44.935808    4.461217   47.020421
 C   46.155388    4.727731   47.670148
 N   46.960531    3.741089   48.113718
 N   46.513621    6.002164   47.879942
 C   45.706083    6.965663   47.440902
 N   44.548545    6.848697   46.789264
 C   44.220317    5.564037   46.581197
 H   46.420528    4.138504   41.321831
 H   46.231271    2.304613   42.966085
 H   42.168660    3.365710   43.444444
 H   43.712517    6.458625   42.322551
 H   42.518954    6.628453   41.016478
 H   40.697383    5.847610   42.424856
 H   41.978467    8.247444   42.979408
 H   40.359566    8.297082   44.793770
 H   43.558953    7.164999   44.485547
 H   43.075864    8.040483   46.398269
 H   41.164120    5.771535   45.770477
 H   42.477989    3.007592   45.659960
 H   47.897046    3.999947   48.383771
 H   46.806187    2.806950   47.766727
 H   46.032375    7.982163   47.644028
