30 
3axm_ligand_xtb.xyz
 C    3.868718    0.788497   -0.213839
 C    3.113060   -0.525855   -0.104911
 C    1.593671   -0.310550   -0.270493
 C    1.004991    0.281934    1.031214
 C   -0.534930    0.388432    0.980352
 C   -1.065613    1.128948   -0.248173
 O    5.139472    0.589267   -0.584987
 O    3.417835    1.876832    0.009941
 O    3.531723   -1.462639   -1.070701
 O    0.961118   -1.534014   -0.546910
 O    1.369984   -0.498473    2.137298
 O   -1.120399   -0.890108    1.068481
 O   -2.453908    1.326913   -0.122278
 P   -3.391006    0.032568   -0.380122
 O   -2.807828   -0.924681   -1.325826
 O   -4.742100    0.714695   -0.839871
 O   -3.860326   -0.495171    1.033432
 H    3.292512   -0.916152    0.913640
 H    1.432822    0.398253   -1.096747
 H    1.442182    1.272128    1.181347
 H   -0.868478    0.918559    1.880801
 H   -0.876824    0.527388   -1.143109
 H   -0.606892    2.115196   -0.340911
 H    5.615353    1.433701   -0.635540
 H    4.493206   -1.429778   -1.132394
 H    1.538005   -2.031742   -1.141930
 H    0.779944   -1.268321    2.141466
 H   -0.822416   -1.401436    0.295087
 H   -4.796793    0.702587   -1.793982
 H   -3.121463   -0.938310    1.460579
