30 
3axm_ligand_dft.xyz
 C    3.950005    0.375366   -0.659715
 C    3.112999   -0.518608    0.244354
 C    1.612673   -0.386346   -0.019058
 C    1.040572    0.953004    0.468780
 C   -0.497148    0.984081    0.416066
 C   -1.080230    0.574978   -0.931995
 O    5.241683    0.001740   -0.622086
 O    3.552205    1.302755   -1.320047
 O    3.427813   -1.882178    0.023729
 O    0.945648   -1.424150    0.679454
 O    1.459692    1.250903    1.780434
 O   -1.027691    0.188079    1.480003
 O   -2.481691    0.825689   -0.973738
 P   -3.479126   -0.254573   -0.296437
 O   -3.012279   -1.646166   -0.455021
 O   -4.876161    0.104385   -0.982594
 O   -3.748553    0.286122    1.174310
 H    3.304794   -0.225865    1.285596
 H    1.439849   -0.483124   -1.101495
 H    1.435909    1.736684   -0.182306
 H   -0.819753    2.004317    0.641603
 H   -0.890649   -0.485038   -1.133084
 H   -0.635805    1.178401   -1.728676
 H    5.729708    0.599663   -1.211220
 H    4.341806   -2.034971    0.292239
 H    1.452359   -2.236717    0.534988
 H    0.845867    0.779718    2.364329
 H   -0.726126   -0.726087    1.317974
 H   -5.089427   -0.561352   -1.649304
 H   -2.880188    0.320676    1.629766
