66 
3aya_ligand_dft.xyz
 N   -3.920029   -0.355024    1.564997
 C   -4.746994   -0.882931    0.449095
 C   -4.660986   -2.402982    0.538008
 O   -5.320072   -2.981336   -0.462863
 C   -4.267858   -0.321744   -0.915391
 O   -2.855505   -0.476659   -0.952737
 C   -4.823641    1.065406   -1.221815
 O   -4.091444   -2.983052    1.426790
 O   -2.289952    1.303530    0.368384
 C   -2.029358    0.632559   -0.850285
 C   -0.561720    0.163307   -0.897039
 N   -0.322417   -1.218158   -0.517149
 C    0.320037    1.129884   -0.073998
 O    1.621959    1.159526   -0.624312
 C   -0.237643    2.548922   -0.132065
 O   -0.363297    2.985123   -1.471220
 C   -1.615800    2.550599    0.538333
 C   -2.520765    3.691685    0.108207
 O   -3.703104    3.565224    0.881769
 C   -0.668378   -1.785537    0.652586
 O   -1.370209   -1.221821    1.502855
 C   -0.145618   -3.180048    0.895213
 C    2.543572    0.229856   -0.152217
 C    3.139897   -0.562022   -1.310758
 C    4.279463   -1.459654   -0.821821
 C    5.292248   -0.650776   -0.009984
 C    4.546526    0.108995    1.087788
 C    5.449304    0.987449    1.938894
 O    2.141831   -1.352415   -1.932530
 O    4.863098   -2.104960   -1.928858
 O    6.000869    0.218649   -0.878676
 O    3.565701    0.955354    0.489753
 O    6.290816    0.107498    2.647181
 H   -3.833948    0.667032    1.513492
 H   -4.284672   -0.651487    2.471703
 H   -2.921609   -0.712160    1.491362
 H   -5.789215   -0.591934    0.613880
 H   -5.260995   -3.945021   -0.349680
 H   -4.652264   -1.012517   -1.670355
 H   -4.574598    1.816110   -0.466716
 H   -4.451506    1.407670   -2.191652
 H   -5.912302    0.991950   -1.305460
 H   -2.197472    1.332570   -1.677905
 H   -0.224972    0.240046   -1.932337
 H    0.386099   -1.675950   -1.083416
 H    0.343835    0.800874    0.972455
 H    0.429301    3.216866    0.428729
 H    0.520098    2.962067   -1.864047
 H   -1.464131    2.626818    1.619723
 H   -2.730708    3.625560   -0.966425
 H   -2.010046    4.645555    0.295786
 H   -4.269815    4.323304    0.697398
 H    0.330211   -3.208339    1.878550
 H   -0.995698   -3.867777    0.927529
 H    0.563424   -3.518194    0.135879
 H    2.068582   -0.457808    0.568391
 H    3.534746    0.169132   -2.031473
 H    3.848523   -2.245842   -0.188559
 H    6.033862   -1.315088    0.438536
 H    4.057051   -0.620338    1.752726
 H    6.015431    1.667170    1.288397
 H    4.821097    1.592270    2.607564
 H    2.623546   -1.956767   -2.518623
 H    5.533022   -1.489663   -2.268150
 H    5.459136    1.011563   -1.001960
 H    7.023865    0.609506    3.018898
