24 
3az8_ligand_xtb.xyz
 C    0.768008   -0.110967    1.266981
 C    2.040164   -0.581921    1.006355
 C    2.785282   -0.008590   -0.016040
 C    2.282083    1.036698   -0.780303
 C    1.013849    1.507494   -0.512418
 C    0.244329    0.934735    0.504820
 C   -1.111767    1.496271    0.708953
 O   -1.427690    2.593686    0.340598
 C   -2.133254    0.582587    1.420106
 C   -2.258101   -0.745056    0.746175
 O   -1.914470   -1.805692    1.178251
 C   -2.864337   -0.635595   -0.686435
 N    4.120337   -0.507252   -0.285707
 F   -3.991568    0.085085   -0.699225
 O    4.735416    0.011169   -1.189053
 F   -1.991567   -0.019025   -1.503718
 O    4.530306   -1.406020    0.412523
 F   -3.135178   -1.824354   -1.212299
 H    0.204202   -0.555029    2.070861
 H    2.467381   -1.388774    1.582201
 H    2.889525    1.461664   -1.564707
 H    0.589772    2.315869   -1.087534
 H   -3.092584    1.105324    1.392698
 H   -1.821867    0.437275    2.455909
