31 
3aza_ligand_dft.xyz
 C    2.346049    0.757210   -1.076020
 C    2.763704   -0.043029   -2.136799
 C    3.435026   -1.235239   -1.886135
 C    3.688754   -1.625867   -0.572181
 C    3.274300   -0.822609    0.483273
 C    2.603503    0.378549    0.240633
 C    2.114189    1.218910    1.392015
 O    1.066479    0.567380    2.131375
 C    0.015297    0.051068    1.445046
 C   -0.292279   -1.271040    1.652458
 C   -1.400382   -1.874185    1.026752
 C   -2.189094   -1.145485    0.178840
 C   -1.921160    0.226852   -0.071534
 C   -0.808606    0.838007    0.578660
 N   -0.507663    2.154047    0.411959
 C   -1.263206    2.873174   -0.382427
 C   -2.379549    2.363245   -1.081140
 C   -2.704698    1.043718   -0.923388
Cl   -3.550473   -1.926072   -0.599563
 H    1.805478    1.680547   -1.267299
 H    2.559032    0.262633   -3.158642
 H    3.759395   -1.861744   -2.711843
 H    4.211757   -2.556667   -0.372879
 H    3.466075   -1.127040    1.509360
 H    1.768561    2.194682    1.047849
 H    2.901597    1.356738    2.137309
 H    0.345099   -1.850936    2.310370
 H   -1.619648   -2.920684    1.207087
 H   -0.990244    3.921725   -0.487972
 H   -2.961755    3.013486   -1.725157
 H   -3.556579    0.613455   -1.438636
