119 
3b0w_ligand_xtb.xyz
 C   -3.107854    1.174351   -1.538794
 C   -2.616422    1.877925   -0.279656
 C   -1.774383    0.916970    0.556587
 O   -0.614400    0.575382   -0.198912
 C   -2.618900   -0.314051    0.896181
 C   -3.130511   -1.019886   -0.364669
 C   -3.916522   -2.278925    0.006808
 C   -5.237738   -1.931729    0.680075
 C   -6.083986   -1.018123   -0.208499
 C   -5.313830    0.246123   -0.611191
 C   -3.954980   -0.086948   -1.279679
 C   -6.219679    1.114926   -1.485018
 C   -7.480801    1.501754   -0.715698
 O   -8.309988    2.369604   -1.468225
 C   -8.324758    0.274451   -0.313859
 C   -7.441781   -0.729417    0.476192
 O   -8.114869   -1.962532    0.655224
 C   -7.343865   -0.114573    1.879764
 C   -8.615441    0.722123    2.084539
 C   -9.362238    0.773651    0.734713
 C   -8.977188   -0.339950   -1.551709
 C   -4.152194   -0.754698   -2.649090
 C    0.472160    0.114402    0.559465
 C    5.101572    0.806703    0.085529
 C    9.932212   -0.951554   -0.119752
 C  -10.624033   -0.018213    0.763520
 C  -11.877509    0.504050    0.121307
 O  -12.856925   -0.484820    0.342057
 C  -10.909683   -1.200137    1.316448
 C  -12.321958   -1.516894    1.053849
 O  -12.958543   -2.483563    1.368190
 C    1.484284   -0.504560   -0.404585
 C    6.064242    0.699164    1.266606
 C   11.019158   -1.588124   -0.986427
 C    2.132574    0.610854   -1.225569
 O    2.978752    0.141105   -2.234418
 C    7.494491    0.524241    0.760225
 O    7.901267    1.713711    0.136013
 C   12.316178   -1.697194   -0.189822
 O   12.138610   -2.637169    0.840530
 C    2.833623    1.555891   -0.227675
 O    3.812375    0.896149    0.572508
 C    7.562026   -0.666597   -0.224003
 O    8.806902   -0.746432   -0.902608
 C   12.692364   -0.323580    0.397349
 O   13.836682   -0.526970    1.196832
 C    1.798834    2.128207    0.760684
 O    1.027206    1.109492    1.378705
 C    6.490835   -0.497180   -1.315244
 O    5.214369   -0.355594   -0.725257
 C   11.501793    0.224613    1.207466
 O   10.363772    0.307009    0.371627
 C    0.936926    3.219897    0.124747
 C    6.440395   -1.691963   -2.254314
 C   11.759697    1.620212    1.762180
 H   -2.223272    0.865150   -2.097876
 H   -3.658828    1.879912   -2.161979
 H   -3.449271    2.237576    0.326241
 H   -2.012203    2.740157   -0.564044
 H   -1.450441    1.409166    1.485267
 H   -2.020904   -1.023359    1.472371
 H   -3.441011    0.011403    1.531879
 H   -2.240769   -1.320360   -0.929024
 H   -3.316546   -2.894797    0.680167
 H   -4.106669   -2.869573   -0.890462
 H   -5.044676   -1.440495    1.632904
 H   -5.799894   -2.842598    0.892892
 H   -6.322583   -1.574882   -1.123010
 H   -5.098803    0.813423    0.298400
 H   -5.702195    2.033613   -1.770279
 H   -6.500750    0.591074   -2.397510
 H   -7.169887    2.021938    0.204860
 H   -7.771154    3.097217   -1.795353
 H   -8.249389   -2.375412   -0.204577
 H   -7.278549   -0.919228    2.608624
 H   -6.453238    0.504518    1.966307
 H   -8.363383    1.729703    2.414682
 H   -9.252967    0.276466    2.845134
 H   -9.629881    1.799997    0.470925
 H   -8.229749   -0.793994   -2.198503
 H   -9.480853    0.442467   -2.112775
 H   -9.705490   -1.097600   -1.274225
 H   -3.198098   -1.124241   -3.017825
 H   -4.530429   -0.036565   -3.372508
 H   -4.840789   -1.592176   -2.607188
 H    0.134165   -0.645144    1.283998
 H    5.364613    1.690806   -0.528061
 H    9.711095   -1.614200    0.739563
 H  -11.760128    0.667829   -0.955227
 H  -12.206432    1.445393    0.576892
 H  -10.255747   -1.864984    1.844315
 H    2.256087   -1.021813    0.166493
 H    0.972864   -1.208284   -1.059696
 H    5.998539    1.607223    1.863528
 H    5.766410   -0.155194    1.873435
 H   10.693282   -2.580217   -1.292837
 H   11.165575   -0.965248   -1.867980
 H    1.350516    1.172768   -1.746216
 H    3.755004   -0.266896   -1.808750
 H    8.152676    0.312693    1.619570
 H    8.811721    1.571397   -0.164350
 H   13.133747   -2.025046   -0.852280
 H   12.912484   -2.572128    1.415528
 H    3.312389    2.381020   -0.775135
 H    7.379735   -1.598987    0.333040
 H   12.908472    0.369420   -0.429341
 H   14.132174    0.320558    1.544783
 H    2.355447    2.557483    1.602963
 H    6.740444    0.416712   -1.876477
 H   11.297845   -0.479244    2.032059
 H    0.369510    2.825314   -0.712162
 H    0.241964    3.603494    0.867719
 H    1.568207    4.033962   -0.221169
 H    7.423058   -1.846346   -2.687493
 H    5.715251   -1.509482   -3.042402
 H    6.142862   -2.579136   -1.701742
 H   10.843170    2.004132    2.201076
 H   12.528926    1.592811    2.529622
 H   12.062412    2.290572    0.961185
