43 
3b1t_ligand_dft.xyz
 C   -0.100589   -2.065108   -0.319870
 O    0.517212   -1.101776   -0.997827
 O    0.473143   -3.037277    0.125896
 N   -2.232180    3.727405    0.295046
 N    3.061487   -1.662288   -0.555446
 O   -0.608709    4.289163   -1.196299
 O   -2.367665    1.156999    1.563415
 C   -3.663466   -3.198360   -0.387539
 C   -2.281914   -3.116883   -0.474010
 C   -4.388926   -2.084255    0.019161
 C   -1.597706   -1.924917   -0.208868
 C   -3.720789   -0.909957    0.331094
 C    2.156291    1.434320    0.426747
 C    3.388980    1.135430   -0.428545
 C    1.226106    2.429676   -0.269569
 C    5.007876   -2.025096    0.921980
 N    4.285359    0.156897    0.156909
 N   -0.816717    1.117649   -0.079399
 C   -1.027436    3.570651   -0.304157
 C    4.050109   -1.178574    0.116648
 C   -1.813847    0.562913    0.634410
 C   -2.331364   -0.794651    0.205412
 C   -0.200906    2.394735    0.266129
 H    1.532428   -1.248259   -0.918521
 H   -2.868661    4.406180   -0.093707
 H   -2.565691    3.023011    0.946967
 H    3.013260   -2.673934   -0.476297
 H   -4.166515   -4.132337   -0.617814
 H   -1.699970   -3.991753   -0.743054
 H   -5.469447   -2.133228    0.112103
 H   -4.268143   -0.049252    0.698116
 H    1.633617    0.492536    0.619554
 H    2.467833    1.828747    1.402202
 H    3.075935    0.751045   -1.404969
 H    3.962568    2.050468   -0.610540
 H    1.187970    2.232799   -1.348993
 H    1.608642    3.449792   -0.175639
 H    5.110819   -3.015156    0.472931
 H    6.000841   -1.570408    0.984338
 H    4.619863   -2.150713    1.938301
 H    4.991731    0.486041    0.794633
 H   -0.372054    0.554559   -0.795427
 H   -0.207035    2.475810    1.360420
