31 
3b25_ligand_xtb.xyz
 C   -2.069980    0.276276   -1.178677
 C   -3.236581   -0.455583   -1.053727
 C   -3.790035   -0.701421    0.200081
 C   -5.044926   -1.509961    0.324270
 C   -3.153378   -0.198378    1.329865
 C   -1.984986    0.533995    1.212895
 C   -1.459216    0.765355   -0.041537
 S    0.078304    1.669003   -0.187117
 O    0.240061    2.550414    0.941240
 O    0.182358    2.246111   -1.503058
 C    1.342955    0.373880   -0.061262
 N    0.907035   -0.855528   -0.247060
 C    2.656793    0.697697    0.190200
 C    3.552926   -0.377413    0.237038
 C    5.007491   -0.170838    0.496046
 N    3.137101   -1.618302    0.049493
 C    1.837707   -1.817133   -0.181309
 N    1.423163   -3.087759   -0.334509
 H   -1.629050    0.488849   -2.139402
 H   -3.728457   -0.839977   -1.935575
 H   -5.742340   -1.264458   -0.473372
 H   -4.811740   -2.572211    0.248445
 H   -5.527812   -1.336319    1.282217
 H   -3.577557   -0.380014    2.306677
 H   -1.482045    0.943443    2.074819
 H    2.954363    1.720080    0.340714
 H    5.433251    0.472617   -0.271513
 H    5.146742    0.317881    1.458393
 H    5.520950   -1.127469    0.495353
 H    0.474870   -3.252551   -0.617716
 H    2.112901   -3.813846   -0.399386
