36 
3b28_ligand_dft.xyz
 C    4.437482   -0.975058   -0.769134
 O    5.199829   -0.212231    0.136382
 C    4.845370    1.151799    0.094092
 C    3.386275    1.371229    0.419901
 C    2.922869    2.529794    0.987991
 C    1.544820    2.693980    1.249123
 C    0.647564    1.702161    0.947569
 C    1.088563    0.486930    0.360046
 C    2.473853    0.330257    0.096949
 C    2.956647   -0.872365   -0.487052
 C    2.083468   -1.878342   -0.796519
 C    0.704570   -1.720548   -0.535433
Cl   -0.345067   -3.040321   -0.997219
 C    0.194039   -0.578619    0.031294
 C   -1.265855   -0.432252    0.304895
 N   -1.929149    0.452908   -0.448668
 N   -1.778983   -1.170862    1.276134
 C   -3.102859   -0.994507    1.461305
 N   -3.684988   -1.721631    2.432459
 N   -3.879457   -0.147638    0.771405
 C   -3.229420    0.545491   -0.157291
 S   -4.224834    1.681561   -1.057750
 C   -3.002559    2.391468   -2.192607
 H    4.780615   -2.008235   -0.672602
 H    4.639277   -0.646519   -1.804254
 H    5.070617    1.566955   -0.904500
 H    5.485468    1.660424    0.819510
 H    3.617408    3.325513    1.246096
 H    1.194626    3.616432    1.702334
 H   -0.407383    1.846583    1.150582
 H    2.432480   -2.805392   -1.240785
 H   -3.144796   -2.427500    2.904522
 H   -4.683486   -1.676642    2.550033
 H   -2.198265    2.881365   -1.642470
 H   -2.579492    1.621404   -2.838622
 H   -3.543135    3.125991   -2.794241
