37 
3b4f_ligand_dft.xyz
 C   -2.141514    1.778820   11.273641
 C   -1.502717    0.691910   10.685943
 C   -2.140092   -0.545538   10.623084
 C   -3.419405   -0.688299   11.153539
 C   -4.062313    0.401450   11.731117
 C   -3.435741    1.649895   11.789117
 C   -4.122739    2.802695   12.394608
 C   -4.710812    2.823131   13.707526
 C   -4.845234    1.855162   14.711239
 C   -5.457921    2.228284   15.892702
 S   -5.703583    1.000584   17.160562
 O   -4.823216   -0.116297   16.870792
 O   -5.714528    1.683965   18.441210
 N   -7.254765    0.415109   16.955046
 C   -5.922806    3.541136   16.122651
 C   -5.788185    4.509925   15.150919
 C   -5.179908    4.138109   13.944137
 N   -4.901348    4.870988   12.831658
 C   -4.273359    4.077014   11.893264
 C   -3.855468    4.792687   10.661807
 O   -3.643808    5.998498   10.704170
 N   -3.682757    4.090872    9.502259
 N   -4.323843    2.876666    9.261501
 H   -1.637835    2.738918   11.336576
 H   -0.498187    0.807868   10.289411
 H   -1.638068   -1.395908   10.171573
 H   -3.921521   -1.650342   11.112548
 H   -5.071399    0.294788   12.118702
 H   -4.462988    0.847315   14.583198
 H   -7.962945    1.121957   17.121793
 H   -7.376030   -0.059213   16.066681
 H   -6.358128    3.786824   17.085679
 H   -6.125778    5.526785   15.323251
 H   -5.007364    2.984061    8.519002
 H   -5.003088    5.866674   12.703936
 H   -3.379830    4.669276    8.725796
 H   -3.642777    2.167232    9.010360
