41 
3b5r_ligand_dft.xyz
 C   -4.402115    0.301873    0.638188
 C   -5.519683   -0.519173    0.559698
 F   -6.436494   -0.430995    1.522617
 C   -5.696515   -1.414861   -0.485859
Cl   -7.109370   -2.422178   -0.544380
 C   -4.719591   -1.487191   -1.476816
 C   -3.596593   -0.678028   -1.420928
 C   -3.437795    0.219804   -0.362503
 O   -2.311412    0.981974   -0.384016
 C   -2.084146    1.893645    0.679038
 C   -0.770916    2.595146    0.353534
 O   -0.816760    3.114276   -0.965200
 C   -0.523258    3.758059    1.309704
 C    0.388988    1.583386    0.522945
 O    0.462556    0.864666    1.502600
 N    1.302350    1.654261   -0.490507
 C    2.517716    0.979956   -0.624367
 C    2.960630    0.024456    0.298686
 C    3.311248    1.289720   -1.732932
 C    4.529779    0.661158   -1.918877
 C    4.982693   -0.290976   -1.002105
 C    6.255552   -0.913984   -1.231329
 N    7.288382   -1.386193   -1.460723
 C    4.181979   -0.601876    0.107894
 C    4.653986   -1.627396    1.115249
 F    4.861917   -2.816516    0.532017
 F    5.807823   -1.248810    1.683370
 F    3.760172   -1.809017    2.095990
 H   -4.323128    0.975042    1.482139
 H   -4.847146   -2.189360   -2.293325
 H   -2.830835   -0.733951   -2.186144
 H   -2.893900    2.633158    0.722392
 H   -1.999700    1.367120    1.634613
 H   -1.333813    2.481290   -1.487765
 H   -1.338523    4.482729    1.234206
 H   -0.445164    3.395391    2.337807
 H    0.410624    4.262231    1.045775
 H    1.052589    2.323293   -1.209878
 H    2.347495   -0.214802    1.155692
 H    2.974197    2.030629   -2.452382
 H    5.143873    0.906206   -2.778409
