41 
3b5r_ligand_xtb.xyz
 C   -4.342489    0.238637    0.679041
 C   -5.422832   -0.622680    0.592831
 F   -6.260505   -0.689679    1.639360
 C   -5.653357   -1.398158   -0.534344
Cl   -7.011164   -2.459092   -0.611338
 C   -4.765873   -1.299958   -1.598128
 C   -3.684465   -0.448111   -1.529196
 C   -3.461402    0.328674   -0.390900
 O   -2.373475    1.143118   -0.425063
 C   -2.082148    1.942684    0.708120
 C   -0.744772    2.636811    0.413232
 O   -0.744972    3.192902   -0.885291
 C   -0.473006    3.750927    1.426633
 C    0.386343    1.590468    0.569154
 O    0.393096    0.784816    1.468684
 N    1.344702    1.745557   -0.381905
 C    2.536994    1.061935   -0.545972
 C    2.918996    0.018029    0.299000
 C    3.378608    1.442651   -1.594497
 C    4.579789    0.801034   -1.798426
 C    4.972087   -0.241834   -0.957327
 C    6.211640   -0.885369   -1.183312
 N    7.221220   -1.382180   -1.396644
 C    4.124915   -0.623161    0.090974
 C    4.553247   -1.750222    0.993731
 F    4.740737   -2.895567    0.316196
 F    5.710690   -1.481803    1.621370
 F    3.658537   -2.019971    1.951003
 H   -4.220726    0.810771    1.583529
 H   -4.931722   -1.898094   -2.479208
 H   -2.992764   -0.372680   -2.352371
 H   -2.872292    2.688754    0.859857
 H   -1.967460    1.327472    1.606568
 H   -1.330001    2.650987   -1.432507
 H   -1.263111    4.495162    1.374706
 H   -0.425554    3.336866    2.429185
 H    0.471926    4.233732    1.191712
 H    1.139633    2.482697   -1.053205
 H    2.271868   -0.279349    1.108587
 H    3.082675    2.249703   -2.248596
 H    5.229896    1.097247   -2.607336
