43 
3b66_ligand_dft.xyz
 C   -3.639460   -0.573833   -1.204983
 C   -4.767197   -1.372007   -1.208316
 C   -5.707625   -1.214669   -0.193465
 N   -6.905573   -2.053846   -0.195435
 O   -7.026648   -2.866156   -1.100140
 O   -7.714408   -1.891885    0.706137
 C   -5.537017   -0.283018    0.818595
 C   -4.402572    0.519146    0.823965
 C   -3.455160    0.374678   -0.191969
 O   -2.323055    1.114115   -0.280060
 C   -2.045056    2.085231    0.719909
 C   -0.724894    2.728036    0.309953
 O   -0.799908    3.164631   -1.036863
 C   -0.413020    3.942880    1.178327
 C    0.410258    1.692940    0.507599
 O    0.490626    1.032760    1.527283
 N    1.292793    1.671630   -0.534090
 C    2.477159    0.942485   -0.665559
 C    2.919971    0.032832    0.302455
 C    3.237037    1.147196   -1.820837
 C    4.423218    0.460312   -2.008989
 C    4.876085   -0.447073   -1.047858
 C    6.115208   -1.133364   -1.281674
 N    7.120164   -1.659858   -1.516495
 C    4.108837   -0.652678    0.109205
 C    4.581062   -1.628852    1.164663
 F    4.728675   -2.858856    0.652707
 F    5.765675   -1.255991    1.669512
 F    3.716225   -1.716154    2.183570
 H   -2.882922   -0.670834   -1.975736
 H   -4.930447   -2.113875   -1.980134
 H   -6.288701   -0.191298    1.592811
 H   -4.270594    1.243248    1.618547
 H   -1.943833    1.614127    1.701995
 H   -2.836537    2.844484    0.738240
 H   -1.340248    2.510215   -1.506494
 H   -0.304320    3.647787    2.224997
 H   -1.212171    4.683180    1.084112
 H    0.521895    4.402480    0.845898
 H    1.043861    2.304230   -1.285900
 H    2.332935   -0.125015    1.195676
 H    2.899819    1.852564   -2.575110
 H    5.010527    0.623067   -2.905839
