56 
3b8q_ligand_xtb.xyz
 C    1.339530    1.160084    0.369539
 C    0.832082    2.431906    0.279392
 C   -0.557341    2.655216    0.303713
 C   -1.438762    1.546936    0.429103
 C   -0.884492    0.250325    0.491028
 C    0.466156    0.057052    0.461549
 C   -1.089622    3.958767    0.221134
 C   -2.440138    4.163953    0.258503
 C   -3.315484    3.076394    0.371425
 C   -2.837386    1.788295    0.454674
 O    2.697371    1.005277    0.269026
 C    3.347230    0.068879    1.021407
 C    4.604629   -0.376858    0.541979
 C    5.314059   -1.314768    1.335128
 N    4.838632   -1.781196    2.506545
 C    3.686043   -1.335607    2.921980
 C    2.893066   -0.408721    2.230683
 C    5.164570    0.064405   -0.669544
 C    6.384728   -0.385151   -1.109195
 C    7.108863   -1.327755   -0.314321
 C    6.559558   -1.764290    0.870492
 O    6.952195    0.023765   -2.286959
 C    6.268161    0.968104   -3.072148
 O    8.318804   -1.871220   -0.602542
 C    9.071564   -1.491689   -1.732911
 C   -3.800933    0.659257    0.634811
 N   -4.845597    0.725396   -0.247761
 C   -5.950832   -0.119107   -0.363303
 C   -6.832098    0.101836   -1.421691
 C   -7.947403   -0.694067   -1.588515
 C   -8.190082   -1.721901   -0.690769
 C   -7.325092   -1.952097    0.366539
 C   -6.208473   -1.154831    0.531838
Cl   -9.585324   -2.722895   -0.896150
 O   -3.670071   -0.203217    1.476363
 H    1.507219    3.269252    0.188485
 H   -1.543490   -0.598921    0.573204
 H    0.878436   -0.940585    0.494166
 H   -0.408251    4.792519    0.136133
 H   -2.844691    5.163627    0.205605
 H   -4.378712    3.264636    0.427806
 H    3.343504   -1.725345    3.871856
 H    1.955102   -0.076324    2.648441
 H    4.595188    0.775845   -1.244908
 H    7.109108   -2.474787    1.465263
 H    5.298959    0.587038   -3.408924
 H    6.122547    1.909697   -2.533395
 H    6.906812    1.142202   -3.937082
 H    8.562651   -1.745349   -2.665035
 H    9.304464   -0.424840   -1.726380
 H    9.996121   -2.064274   -1.657508
 H   -4.803325    1.462053   -0.939148
 H   -6.640911    0.904251   -2.120516
 H   -8.624986   -0.520144   -2.409397
 H   -7.523088   -2.753096    1.061060
 H   -5.532392   -1.331871    1.351123
