20 
3b9s_ligand_xtb.xyz
 C   -2.677822   -1.136167   -0.250735
 N   -3.483242   -0.111983   -0.031635
 C   -2.893856    1.045344    0.232331
 C   -1.517807    1.187250    0.265997
 N   -1.362537   -1.120629   -0.246026
 C   -0.756982    0.043870    0.002014
 C    0.709760    0.038747   -0.002010
 C    1.383166   -1.162366    0.219785
 C    1.449465    1.197609   -0.230368
 C    2.831117    1.154159   -0.225555
 C    3.491529   -0.040606    0.009900
 C    2.763699   -1.199193    0.230032
 H   -3.149486   -2.089080   -0.457121
 H   -3.555957    1.880624    0.424044
 H   -1.061296    2.133876    0.503626
 H    0.801367   -2.055617    0.385243
 H    0.948688    2.131864   -0.436600
 H    3.396245    2.056386   -0.408755
 H    4.571209   -0.068538    0.016447
 H    3.276083   -2.133119    0.408395
