42 
3bbt_ligand_xtb.xyz
 C    5.560121   -2.848925   -0.465677
 C    6.741288   -2.248020   -0.013886
 C    6.738709   -0.945174    0.403441
 C    5.546592   -0.197155    0.383450
 N    5.579584    1.091247    0.800165
 C    4.458023    1.744269    0.764284
 N    3.266210    1.293036    0.368624
 C    3.182638    0.042093   -0.044124
 N    1.986710   -0.456524   -0.447453
 C    0.733188    0.141228   -0.507171
 C   -0.337502   -0.637300   -0.940329
 C   -1.614513   -0.114442   -1.022746
 C   -1.861914    1.208215   -0.675663
 O   -3.071710    1.828222   -0.720709
 C   -4.197407    1.087440   -1.129331
 C   -4.584263   -0.017263   -0.174860
 C   -4.265478    0.072432    1.173980
 C   -4.622757   -0.938608    2.048783
 C   -5.310751   -2.049802    1.594238
 C   -5.628930   -2.120060    0.250393
 F   -6.298932   -3.197039   -0.210501
 C   -5.275293   -1.126923   -0.642815
 C   -0.777985    1.981988   -0.241123
Cl   -1.064813    3.623221    0.199926
 C    0.499180    1.469167   -0.155345
 C    4.345821   -0.805058   -0.070010
 C    4.384672   -2.143900   -0.493891
 H    5.578398   -3.877413   -0.794420
 H    7.655149   -2.823213    0.001178
 H    7.632670   -0.455506    0.754659
 H    4.474579    2.776196    1.092329
 H    1.994942   -1.422195   -0.743340
 H   -0.177588   -1.670131   -1.215757
 H   -2.417213   -0.753646   -1.352011
 H   -4.050369    0.683959   -2.140797
 H   -5.004073    1.828326   -1.173079
 H   -3.732087    0.938488    1.534584
 H   -4.365258   -0.860149    3.093738
 H   -5.599706   -2.849396    2.257325
 H   -5.539908   -1.224825   -1.684668
 H    1.317397    2.081572    0.182746
 H    3.490804   -2.638786   -0.849987
