115 
3bc3_ligand_dft.xyz
 C   -2.311652   -1.372307   -2.413727
 C   -1.284239   -0.533070   -1.674618
 C   -3.679997   -1.028042   -1.858412
 C   -4.154299    0.285386   -1.930679
 C   -5.351018    0.639520   -1.321493
 C   -8.558526    2.531203    1.456519
 C   -8.155380    1.165441   -0.602306
 C   -7.362225    0.105613    0.127607
 C   -8.670730    2.247324   -0.018457
 C   -6.979657    0.580042    1.544578
 C   -8.147587    1.280311    2.236786
 C   -0.587719   -0.761287    1.974789
 C   -3.368652   -0.284793    1.729099
 C   -3.147607    2.199935    1.513579
 C   -2.855915    2.525389    4.256438
 N    1.611540    0.326268   -0.807884
 C    2.979647    0.747460   -1.089025
 C    3.052937    1.402841   -2.470272
 C    2.166299    2.608962   -2.594810
 C    2.644121    3.853764   -2.653858
 C    2.316337    6.227762   -3.186744
 O   -0.886742    0.546690   -2.116209
 C   -6.115609   -0.306948   -0.633016
 C   -5.654562   -1.622495   -0.593571
 C   -4.448662   -1.980211   -1.191823
 N   -0.892464   -1.007986   -0.467597
 C   -0.350474   -0.154841    0.580830
 C    1.157731    0.144202    0.445973
 O    1.868894    0.229684    1.446379
 S   -2.188022   -1.578525    2.241904
 C   -3.164964    1.076560    2.343331
 C   -3.015790    1.252412    3.721128
 C   -2.991608    3.476276    2.049166
 C   -2.844296    3.641850    3.422097
 N    1.870560    5.009129   -2.676545
 N    1.423906    7.256436   -2.895281
 N    3.377090    6.461094   -3.858645
 C    3.908349   -0.478562   -1.006383
 O    4.308091   -1.069317   -2.008360
 N    4.214103   -0.842035    0.256442
 C    4.974629   -2.041438    0.578438
 C    4.000981   -3.230541    0.512550
 O    3.459524   -3.691734    1.505407
 C    5.616388   -1.904672    1.960478
 C    6.513157   -0.695128    2.052838
 C    6.054770    0.504388    2.604229
 C    7.808623   -0.723258    1.538627
 C    6.853949    1.638980    2.640996
 C    8.624176    0.403203    1.566725
 C    8.145527    1.591087    2.118125
 O    8.890499    2.729263    2.176213
 C    0.010555   -4.094280   -1.347641
 C   -0.899124   -4.397709   -0.331721
 C   -2.112719   -5.018747   -0.619178
 C   -2.428583   -5.359524   -1.932098
 C   -1.522709   -5.076532   -2.952674
 C   -0.316832   -4.446521   -2.660834
 C    1.315314   -3.407056   -1.041905
 C    2.515589   -4.368320   -1.035207
 N    3.745391   -3.651098   -0.758958
 H   -2.234777   -1.123279   -3.475029
 H   -2.107898   -2.439624   -2.290876
 H   -3.561020    1.037074   -2.445073
 H   -5.697718    1.668814   -1.369020
 H   -7.822748    3.332500    1.619326
 H   -9.513383    2.919266    1.831812
 H   -8.295994    1.011198   -1.670863
 H   -8.000157   -0.785861    0.226662
 H   -9.217152    2.967624   -0.624520
 H   -6.131641    1.274750    1.472446
 H   -6.637903   -0.278886    2.134244
 H   -9.001210    0.592141    2.294382
 H   -7.876924    1.543769    3.264888
 H    0.160180   -1.532143    2.182005
 H   -0.442863    0.025905    2.716156
 H   -3.361759   -0.206814    0.639971
 H   -4.344247   -0.696128    2.004979
 H   -3.264781    2.068372    0.440094
 H   -2.736413    2.648139    5.328762
 H    0.912901    0.405219   -1.544062
 H    3.277157    1.469786   -0.319884
 H    2.796475    0.647193   -3.221939
 H    4.097566    1.673060   -2.655802
 H    1.089346    2.443759   -2.619173
 H    3.715107    4.043909   -2.634830
 H   -6.235761   -2.377361   -0.068420
 H   -4.091378   -3.004650   -1.125396
 H   -1.314685   -1.875291   -0.153769
 H   -0.862284    0.815481    0.517895
 H   -3.014041    0.382390    4.372799
 H   -2.981656    4.339598    1.390162
 H   -2.716541    4.634563    3.843129
 H    0.869387    4.902307   -2.592951
 H    1.134882    7.295169   -1.925716
 H    1.786895    8.143563   -3.219804
 H    3.830917    5.598644   -4.152283
 H    3.668335   -0.406527    0.998012
 H    5.746661   -2.146738   -0.190966
 H    6.175965   -2.824118    2.163056
 H    4.818950   -1.863283    2.709635
 H    5.049231    0.554040    3.015985
 H    8.194267   -1.642942    1.104193
 H    6.494017    2.567322    3.071892
 H    9.632172    0.355192    1.159579
 H    9.755167    2.560723    1.783690
 H   -0.656942   -4.141957    0.697531
 H   -2.809550   -5.234988    0.185358
 H   -3.373573   -5.844017   -2.158757
 H   -1.760811   -5.336670   -3.979861
 H    0.378450   -4.210855   -3.463352
 H    1.505613   -2.611463   -1.773051
 H    1.265567   -2.925941   -0.059090
 H    2.381723   -5.131752   -0.265631
 H    2.613094   -4.873013   -2.001337
 H    4.083459   -3.031887   -1.492660
