70 
3bea_ligand_xtb.xyz
 C   -6.702673    2.191826   -1.488253
 C   -6.378178    0.766034   -1.081309
 C   -4.954262    0.605070   -0.538186
 C   -5.633140   -1.154177    0.927057
 C   -7.086692   -1.079491    0.455174
 C   -8.087717   -1.434438    1.538976
 C   -3.458321   -1.321418   -0.179723
 C   -3.325206   -2.703517   -0.291760
 C   -2.078261   -3.286622   -0.338454
 C   -0.921325   -2.503749   -0.286345
 C   -1.057015   -1.120626   -0.188189
 C   -2.309859   -0.541568   -0.127056
 C    1.565624   -2.654326   -0.259535
 C    3.760261   -3.199150   -0.345825
 C    4.126185   -1.862147   -0.141298
 C    5.525530   -1.432900   -0.113530
 C    5.672049    0.004233    0.077502
 C    4.581340    0.795258    0.237797
 C    2.232269    1.282431    0.410502
 C    1.261280    1.043170    1.372821
 C    0.217106    1.940093    1.546175
 C    0.163319    3.069438    0.755216
 C   -0.840063    4.184586    0.763469
 C   -0.585620    4.899629   -0.573459
 C    0.885021    4.606275   -0.909911
 C    1.148115    3.312597   -0.200899
 C    2.187834    2.425926   -0.383145
 C    3.053492   -0.968144    0.022003
 C    7.000376    0.705919    0.116877
 N   -4.766907   -0.772109   -0.162232
 N    2.513602   -3.598168   -0.399655
 N    3.297399    0.359412    0.232834
 N    1.782645   -1.366488   -0.048466
 N    0.300977   -3.143939   -0.343599
 N   -7.324557    0.327173   -0.005198
 N    8.065347   -0.096575   -0.012253
 O    6.448844   -2.230855   -0.244386
 O    7.066698    1.913831    0.254526
 H   -6.557909    2.881986   -0.659625
 H   -7.725939    2.279330   -1.846433
 H   -6.044480    2.499272   -2.295418
 H   -6.513282    0.082411   -1.924054
 H   -4.804670    1.308013    0.301689
 H   -4.246586    0.856043   -1.327927
 H   -5.400305   -2.172951    1.232739
 H   -5.503374   -0.499412    1.808746
 H   -7.212629   -1.726669   -0.417236
 H   -9.110626   -1.337768    1.181973
 H   -7.958211   -0.805700    2.417396
 H   -7.942548   -2.465879    1.845985
 H   -4.205611   -3.325416   -0.353912
 H   -1.993876   -4.359588   -0.425490
 H   -0.175211   -0.505753   -0.150072
 H   -2.371253    0.532054   -0.034415
 H    4.526041   -3.952796   -0.468868
 H    4.732223    1.854733    0.400047
 H    1.324655    0.158496    1.985830
 H   -0.534735    1.751456    2.298195
 H   -1.867315    3.831343    0.863597
 H   -0.633574    4.851426    1.604698
 H   -1.225895    4.468655   -1.345795
 H   -0.792604    5.966344   -0.518138
 H    1.539168    5.381677   -0.503541
 H    1.066618    4.545199   -1.982175
 H    2.948610    2.602977   -1.128367
 H    0.284783   -4.147565   -0.475691
 H   -8.293287    0.432299   -0.327208
 H   -7.199170    0.951198    0.803570
 H    8.985886    0.308923    0.000611
 H    7.932416   -1.094568   -0.132024
