25 
3bg8_ligand_dft.xyz
 C    3.892743    0.622892    0.074521
 O    3.740675    1.238772   -0.962247
 N    3.227170   -0.513531    0.402364
 C    2.220778   -1.094122   -0.474070
 C    0.870018   -0.380050   -0.411206
 C    0.243070   -0.392998    0.981453
 C   -1.134183    0.266851    1.027896
 N   -2.090986   -0.474164    0.228927
 C   -3.289676    0.029744   -0.248463
 N   -3.480839    1.388518   -0.007669
 N   -4.166848   -0.615350   -0.926036
 H    4.610235    0.935342    0.857361
 H    3.395981   -0.924559    1.306940
 H    2.112190   -2.148742   -0.198062
 H    2.608111   -1.054134   -1.495944
 H    0.190033   -0.854841   -1.127714
 H    1.009603    0.654247   -0.745087
 H    0.896467    0.133752    1.687421
 H    0.161495   -1.427824    1.349624
 H   -1.064466    1.277424    0.612989
 H   -1.457446    0.359863    2.078529
 H   -2.073507   -1.477102    0.339866
 H   -4.393041    1.669074   -0.344334
 H   -3.322428    1.686846    0.946354
 H   -3.834616   -1.551745   -1.153860
