44 
3bgq_ligand_dft.xyz
 C   -0.518030   -3.183753   -0.163176
 N    3.855372    2.484908    0.143103
 C    1.965010   -3.576114   -0.062600
 C    3.261835   -3.075762    0.029857
 C    3.488216   -1.707992    0.068932
 C    2.573439    2.796307    0.047120
 C    1.888923    4.040423   -0.001535
 C   -0.149631    2.743585   -0.166294
 C   -2.292502    1.507421   -0.236807
 C    0.899196   -2.685432   -0.114512
 C    1.113098   -1.311029   -0.072867
 C    0.540374    4.016615   -0.110196
 C   -3.303409   -0.262644    1.261867
 N    3.929377    1.138136    0.143440
 F   -0.604050   -4.438789   -0.629870
 F   -1.293304   -2.409051   -0.950785
 F   -1.090393   -3.175875    1.056720
 C    2.412920   -0.809998    0.016722
 C    2.709038    0.625032    0.049596
 N   -1.502245    2.730557   -0.322015
 C   -2.450652    1.008366    1.206530
 C   -4.664592   -0.048234    0.594591
 C   -4.501597    0.456277   -0.842139
 C   -3.654220    1.731365   -0.895620
 N    0.462274    1.583544   -0.106205
 N    1.814056    1.653161   -0.015132
 H    1.787480   -4.645245   -0.099866
 H    4.102625   -3.760952    0.067604
 H    4.495621   -1.311744    0.136770
 H    2.460155    4.959949    0.044613
 H   -1.752316    0.746113   -0.811552
 H    0.274898   -0.628729   -0.117068
 H   -0.038419    4.932612   -0.164650
 H   -3.433276   -0.576284    2.303404
 H   -2.773085   -1.077053    0.754538
 H   -1.985954    3.595855   -0.133461
 H   -2.929599    1.802470    1.798212
 H   -1.461951    0.828631    1.640995
 H   -5.241660    0.687779    1.172659
 H   -5.241409   -0.979680    0.602663
 H   -5.480481    0.642704   -1.297413
 H   -4.014225   -0.322159   -1.444890
 H   -3.511969    2.061266   -1.930741
 H   -4.183053    2.539152   -0.365543
