39 
3bgz_ligand_xtb.xyz
 O    3.861787    1.897981   -0.822465
 C   -0.304030   -0.675260   -0.005869
 C   -2.844640   -3.329719   -0.735159
 C    4.251943    0.860254   -0.033281
 O    5.298641    0.900929    0.548223
 C    3.297667   -0.270959    0.026413
 C    1.909095   -0.094480   -0.004801
 N    1.148765    1.037277   -0.013596
 C   -0.188143    0.698401   -0.004475
 C   -1.215558    1.728195   -0.043683
 C   -2.396313    1.524540   -0.758921
 C   -3.368421    2.504547   -0.796854
 C   -3.179322    3.704122   -0.129002
 C   -2.008466    3.918881    0.578242
 C   -1.032058    2.941379    0.620558
 C   -1.528135   -1.470464    0.048155
 C   -1.693753   -2.565555   -0.796333
 C   -3.843374   -3.013432    0.170080
 C   -3.686271   -1.926473    1.014895
 C   -2.537971   -1.160585    0.957147
 C    1.025853   -1.202731    0.009779
 C    1.541378   -2.495283    0.091405
 C    2.908901   -2.662739    0.154948
 C    3.773580   -1.571574    0.127550
 H    3.105461    1.661374   -1.375234
 H   -2.963692   -4.174228   -1.398452
 H   -2.540123    0.596278   -1.290189
 H   -4.277541    2.334071   -1.354156
 H   -3.941448    4.468254   -0.159842
 H   -1.856038    4.850700    1.102539
 H   -0.134106    3.112332    1.197993
 H   -0.923277   -2.802633   -1.515890
 H   -4.741117   -3.611910    0.217440
 H   -4.461616   -1.677475    1.724723
 H   -2.412286   -0.317990    1.621279
 H    0.876288   -3.344656    0.121822
 H    3.323578   -3.656523    0.228686
 H    4.841339   -1.719761    0.172941
 H    1.488038    1.983555    0.050691
