33 
3bhx_ligand_dft.xyz
 O    4.362090    0.298950   -0.830058
 C    4.141742    0.978735    0.153759
 O    5.136015    1.521356    0.863406
 C    2.790783    1.305329    0.733170
 C    1.618375    1.010949   -0.202151
 P    1.369997   -0.789502   -0.458468
 O    2.209520   -1.152100   -1.788526
 O    1.685255   -1.559156    0.776700
 C   -0.312864   -1.022173   -1.118808
 C   -1.474252   -0.483726   -0.258884
 C   -1.379765   -1.039615    1.150863
 O   -1.801389   -2.112490    1.506310
 O   -0.754841   -0.184273    1.982274
 C   -2.815024   -0.864107   -0.897654
 C   -4.029170   -0.260049   -0.197816
 C   -4.112594    1.241782   -0.326409
 O   -5.167960    1.738311    0.345173
 O   -3.355641    1.947715   -0.952179
 H    5.967076    1.230646    0.453399
 H    2.688232    0.708096    1.647655
 H    2.798908    2.355958    1.039759
 H    0.710119    1.395667    0.271661
 H    1.732874    1.514866   -1.166955
 H    3.126966   -0.833561   -1.668894
 H   -0.425893   -2.103916   -1.259492
 H   -0.357391   -0.555906   -2.108459
 H   -1.401776    0.606010   -0.205460
 H   -0.582058   -0.673745    2.802936
 H   -2.910578   -1.954284   -0.882562
 H   -2.804348   -0.542435   -1.944100
 H   -4.955113   -0.672244   -0.615943
 H   -4.050255   -0.520653    0.866858
 H   -5.154490    2.698785    0.205366
