74 
3bi1_ligand_dft.xyz
 N   33.226119   47.118818   41.126009
 C   30.347094   49.888028   41.606941
 N   31.449129   51.173912   39.908538
 C   28.459254   49.409171   43.381548
 N   29.360889   48.463560   43.255655
 C   27.364252   51.645918   42.789506
 C   26.215814   51.092778   40.716274
 C   24.139213   49.709324   44.897097
 C   25.262193   50.363868   42.844615
 C   24.614157   49.300765   42.195566
 C   23.737277   48.472564   42.884953
 C   22.562425   47.804633   45.038144
 C   20.654780   46.314936   45.057987
 C   19.731042   47.262470   45.820635
 C   32.232298   48.027048   41.288878
 O   22.615192   47.736635   46.257979
 N   31.297583   47.743522   42.185186
 O   19.307488   46.733576   46.981742
 O   19.365818   48.337520   45.413422
 O   18.739066   42.835056   42.524356
 P   17.902677   43.572751   43.511091
 O   16.935872   42.608827   44.408290
 C   16.682491   44.720891   42.775394
 C   16.584869   44.523925   41.259853
 C   17.853356   45.006123   40.582046
 O   18.597373   45.860311   41.011811
 O   18.028959   44.432184   39.384912
 C   15.370134   45.248542   40.640900
 C   15.348750   46.762264   40.901566
 C   14.187608   47.432230   40.209812
 O   14.275904   47.324710   38.867096
 O   13.270018   47.996286   40.753489
 C   18.843831   44.521874   44.740929
 C   19.847371   45.462782   44.069456
 N   21.649045   47.063670   44.324071
 C   23.482374   48.663939   44.241312
 C   25.000254   50.548985   44.217315
 N   26.113157   51.235009   42.155964
 C   28.466599   50.620083   42.637259
 N   29.415035   50.846755   41.748182
 C   30.348422   48.686468   42.346215
 C   31.419022   50.055907   40.654753
 N   32.347526   49.136251   40.503178
 H   33.114679   46.217592   41.560543
 H   33.843141   47.218742   40.337758
 H   30.767739   51.895139   40.084772
 H   32.229413   51.337386   39.294113
 H   27.665412   49.234673   44.106996
 H   27.699579   52.577156   42.323176
 H   27.186778   51.856727   43.844993
 H   26.795372   51.932934   40.325033
 H   26.716446   50.164439   40.398762
 H   23.947039   49.858358   45.954566
 H   24.810495   49.093392   41.150689
 H   23.286761   47.638456   42.353893
 H   21.166627   45.679682   45.784728
 H   15.711737   44.540129   43.247794
 H   16.984324   45.748309   43.001397
 H   16.484355   43.459924   41.025973
 H   15.362159   45.062331   39.562716
 H   14.460304   44.796966   41.053166
 H   15.252676   46.980688   41.966883
 H   16.278121   47.218770   40.542319
 H   18.130837   45.060334   45.375451
 H   19.362230   43.804127   45.387318
 H   19.333231   46.128325   43.365407
 H   20.552921   44.870624   43.478812
 H   21.351150   47.435247   43.432578
 H   25.452525   51.376408   44.753063
 H   13.491938   47.769423   38.507076
 H   17.308593   41.716490   44.439106
 H   18.722229   47.394358   47.386447
 H   18.841783   44.809023   39.011613
 H   25.218673   51.126977   40.268937
