59 
3biz_ligand_dft.xyz
 C   -7.051295    1.583298    1.689047
 N   -6.888262    0.780704    0.446670
 C   -7.514774    1.462067   -0.715748
 C   -7.368337   -0.625185    0.642494
 C   -7.034923   -1.562991   -0.515698
 C   -5.575640   -1.488337   -0.953095
 O   -4.769408   -1.473901    0.224031
 C   -3.490849   -1.012118    0.045041
 C   -2.435159   -1.864595    0.090033
 C   -3.313249    0.435739   -0.091777
 O   -4.284228    1.204722   -0.071464
 C   -1.921995    0.987383   -0.265659
 C   -0.832916   -0.022020   -0.182967
 C   -1.099592   -1.365297   -0.018586
 N    0.078291   -2.091743    0.013824
 C    0.226419   -3.515044    0.239537
 C    1.117952   -1.204541   -0.110082
 C    2.497399   -1.457828   -0.100495
 C    0.580019    0.103910   -0.244697
 C    1.498214    1.144589   -0.392421
 C    1.268343    2.607603   -0.576850
 O    0.212630    3.201605   -0.625050
 N    2.533222    3.155808   -0.686652
 C    3.561232    2.201641   -0.596108
 O    4.736706    2.438927   -0.687298
 C    2.855065    0.894820   -0.388954
 C    3.388512   -0.400220   -0.232875
 C    4.852843   -0.662719   -0.224058
 C    5.436852   -1.343170   -1.295048
 C    6.799931   -1.613763   -1.316275
 C    7.599988   -1.208331   -0.253550
 C    7.038167   -0.540447    0.829296
 C    5.674962   -0.274623    0.837810
Cl    4.991629    0.533238    2.229396
 H   -8.112621    1.664749    1.932168
 H   -6.516994    1.087514    2.500021
 H   -6.624231    2.572929    1.524011
 H   -5.849052    0.757717    0.261572
 H   -7.325413    0.887197   -1.621636
 H   -8.590087    1.548706   -0.546249
 H   -7.067993    2.451141   -0.820424
 H   -8.447225   -0.581516    0.817373
 H   -6.880663   -0.981512    1.550784
 H   -7.678873   -1.384047   -1.382859
 H   -7.264514   -2.573312   -0.163056
 H   -5.386376   -0.583841   -1.545608
 H   -5.316777   -2.352088   -1.576040
 H   -2.635512   -2.923446    0.226365
 H   -1.779255    1.794225    0.463475
 H   -1.895834    1.513386   -1.230174
 H    0.486104   -3.726932    1.281424
 H   -0.702994   -4.028645   -0.009439
 H    1.008199   -3.908922   -0.413999
 H    2.883325   -2.463335    0.033608
 H    2.709070    4.140219   -0.826686
 H    4.807341   -1.645648   -2.126934
 H    7.235190   -2.135336   -2.162252
 H    8.665926   -1.411414   -0.260885
 H    7.650182   -0.225964    1.667172
