51 
3bjm_ligand_xtb.xyz
 C    1.035182    0.454588   -0.340353
 C   -0.066736    1.315402   -1.032547
 C    2.343537    0.630033   -1.117430
 C    3.462234   -0.208557   -0.483431
 C    2.352586    0.027643    1.747180
 C    1.761809   -1.873686    0.258835
 C    3.654624    0.229626    0.974046
 C    3.063295   -1.686824   -0.517483
 C    1.956783   -1.446401    1.711883
 C   -3.737448   -1.247755   -1.437428
 C   -2.598140   -2.093159   -0.957792
 C   -4.537118   -0.505735   -0.388024
 C   -3.129246   -0.350980    1.757863
 N   -2.415081    0.149793    2.647706
 C    1.238220    0.873374    1.122120
 C    0.650044   -1.028887   -0.369884
 C   -1.409020    1.289055   -0.265790
 N    0.294967    2.750545   -0.945819
 N   -2.292179    0.328571   -0.422109
 O   -1.580187    2.263336    0.490213
 O    4.609009    0.051511   -1.263046
 C   -2.344144   -0.688137   -1.429792
 C   -3.502750    0.284848    0.419708
 H   -0.177244    0.998565   -2.070585
 H    2.701410    1.662823   -1.129582
 H    2.226216    0.310707   -2.154554
 H    2.493401    0.344808    2.783965
 H    1.465295   -2.925474    0.220720
 H    3.964817    1.276562    1.000882
 H    4.451085   -0.361017    1.429659
 H    2.943566   -2.005843   -1.554621
 H    3.853873   -2.292322   -0.070858
 H    2.734598   -2.051478    2.177533
 H    1.034330   -1.597721    2.275292
 H   -4.235790   -1.499934   -2.360147
 H   -2.258428   -2.892477   -1.597109
 H   -2.510212   -2.311158    0.094222
 H   -5.101276   -1.183194    0.252652
 H   -5.245122    0.167362   -0.871723
 H   -3.509867   -1.351636    1.940356
 H   -2.088924    1.101308    2.487611
 H    0.318494    0.719472    1.689208
 H    1.514105    1.926908    1.208111
 H    0.483259   -1.354017   -1.398035
 H   -0.264800   -1.185736    0.199993
 H    1.276095    2.885231   -0.688286
 H    0.077540    3.289674   -1.784393
 H   -0.406199    3.015884   -0.116320
 H    5.345865   -0.476643   -0.937170
 H   -1.774676   -0.495300   -2.324643
 H   -3.818203    1.316805    0.611964
