51 
3bjm_ligand_dft.xyz
 C    1.036482    0.389891   -0.399272
 C   -0.082806    1.056823   -1.247353
 C    2.344550    0.377033   -1.218068
 C    3.469708   -0.313938   -0.437860
 C    2.399491    0.418061    1.719385
 C    1.766277   -1.772292    0.684651
 C    3.689545    0.434098    0.885200
 C    3.056724   -1.762817   -0.147577
 C    1.992244   -1.033612    2.011779
 C   -3.727353   -1.552433   -1.195575
 C   -2.495935   -2.267201   -0.707897
 C   -4.511578   -0.695545   -0.215178
 C   -3.060241    0.013576    1.797653
 N   -2.649313    0.848606    2.655394
 C    1.272371    1.120360    0.942016
 C    0.643762   -1.071537   -0.096111
 C   -1.420733    1.212130   -0.495014
 N    0.280953    2.490980   -1.534595
 N   -2.328862    0.238689   -0.523036
 O   -1.571443    2.268328    0.134939
 O    4.595870   -0.237386   -1.284471
 C   -2.375588   -0.926279   -1.381109
 C   -3.510848    0.322138    0.372886
 H   -0.176586    0.538326   -2.203571
 H    2.715932    1.387139   -1.451296
 H    2.202613   -0.142530   -2.174295
 H    2.560460    0.954571    2.659386
 H    1.461810   -2.805596    0.879705
 H    4.008438    1.461517    0.669708
 H    4.503813   -0.044829    1.444079
 H    2.920234   -2.295252   -1.096350
 H    3.861260   -2.271482    0.399162
 H    2.776727   -1.533048    2.591526
 H    1.079290   -1.054325    2.619294
 H   -4.253813   -1.960728   -2.050858
 H   -2.164522   -3.131411   -1.274579
 H   -2.303754   -2.332440    0.358954
 H   -4.979407   -1.287614    0.577188
 H   -5.308594   -0.170628   -0.747169
 H   -3.071723   -1.044255    2.083213
 H   -2.682372    1.801630    2.281620
 H    0.353917    1.128483    1.539309
 H    1.554936    2.170695    0.777583
 H    0.439965   -1.608880   -1.031590
 H   -0.273846   -1.089148    0.500302
 H    1.291985    2.644235   -1.525856
 H   -0.092061    2.824553   -2.425897
 H   -0.192438    3.016172   -0.761267
 H    5.340373   -0.664498   -0.841256
 H   -1.909683   -0.822209   -2.354145
 H   -3.894272    1.345356    0.333692
