66 
3bkk_ligand_dft.xyz
 C    5.572045    0.299163    0.674719
 C    6.589085   -0.537243    0.222766
 C    6.441581   -1.919656    0.294007
 C    5.273986   -2.461184    0.825563
 C    4.259406   -1.622784    1.276681
 C    4.393533   -0.233701    1.203126
 C    3.256266    0.659547    1.630161
 C    2.313642    1.013565    0.450896
 C    3.025712    1.971858   -0.486155
 O    3.489805    3.028835   -0.136394
 O    3.126763    1.520386   -1.750839
 N    1.827742   -0.149004   -0.261787
 C    1.048609   -1.092503    0.318203
 O    0.643042   -0.982855    1.474130
 C    0.754976   -2.285816   -0.578325
 C   -0.369653   -3.205994   -0.110937
 C   -1.772920   -2.920245   -0.688213
 O   -1.721180   -2.744283   -2.074681
 O   -2.526315   -4.091577   -0.441099
 C   -2.510565   -1.756897    0.030208
 C   -3.959227   -1.566791   -0.464476
 C   -4.645549   -0.439244    0.265549
 C   -5.142117   -0.626826    1.557591
 C   -5.713539    0.428208    2.262291
 C   -5.795680    1.692057    1.682723
 C   -5.306117    1.890210    0.394742
 C   -4.737760    0.831029   -0.307393
 N   -1.778955   -0.494897    0.028585
 C   -1.597474    0.310914   -1.035155
 O   -1.870325   -0.023476   -2.196082
 C   -1.024416    1.658642   -0.736921
 C   -0.231868    2.267780   -1.710784
 C    0.349264    3.504212   -1.460737
 C    0.134492    4.143476   -0.240617
 C   -0.682085    3.553501    0.719893
 C   -1.264039    2.312687    0.473643
 H    5.693585    1.378463    0.620537
 H    7.500852   -0.107286   -0.181870
 H    7.235438   -2.572633   -0.056416
 H    5.154480   -3.538557    0.895041
 H    3.351025   -2.045041    1.700300
 H    3.625289    1.600660    2.048177
 H    2.644581    0.164651    2.386939
 H    1.456804    1.564104    0.857537
 H    3.623893    2.191903   -2.244354
 H    2.194240   -0.315865   -1.186785
 H    0.554048   -1.945706   -1.600908
 H    1.692426   -2.856032   -0.627763
 H   -0.145621   -4.224227   -0.438728
 H   -0.414309   -3.219004    0.982774
 H   -1.826514   -1.791037   -2.284569
 H   -3.034152   -4.231050   -1.251069
 H   -2.557738   -2.052414    1.082207
 H   -3.964136   -1.377952   -1.540898
 H   -4.482497   -2.511208   -0.290978
 H   -5.079133   -1.611560    2.016091
 H   -6.099313    0.262701    3.264184
 H   -6.242856    2.516438    2.230354
 H   -5.367733    2.871043   -0.067704
 H   -4.350576    0.990481   -1.310778
 H   -1.306325   -0.251966    0.887871
 H   -0.073363    1.753218   -2.652531
 H    0.980551    3.969301   -2.211627
 H    0.603122    5.102071   -0.042306
 H   -0.869598    4.059245    1.661865
 H   -1.929820    1.870533    1.209247
