23 
3bl0_ligand_xtb.xyz
 C    4.290699   -0.530439    0.550252
 N    3.149793    0.302588    0.253464
 C    3.402429    1.693582   -0.014291
 C    1.976728   -0.266713   -0.045283
 S    0.570575    0.669783   -0.591089
 N    1.728785   -1.538997    0.068832
 N    0.479683   -1.862333   -0.219998
 C   -0.262752   -0.885030   -0.584197
 C   -1.700651   -0.954829   -0.873840
 S   -2.490724    0.258141    0.233507
 O   -2.428806    1.552076   -0.376322
 N   -4.088898   -0.261653    0.179143
 O   -1.995452    0.090569    1.564622
 H    3.939728   -1.540291    0.742792
 H    4.991023   -0.543963   -0.289997
 H    4.803763   -0.143993    1.432469
 H    3.767405    1.847844   -1.035646
 H    2.487305    2.268747    0.119181
 H    4.154959    2.057146    0.685533
 H   -2.098427   -1.937772   -0.645143
 H   -1.956165   -0.641361   -1.882792
 H   -4.708592    0.464003   -0.142687
 H   -4.388801   -0.634972    1.065254
