40 
3bl1_ligand_xtb.xyz
 O    2.663842   -2.613262    0.184455
 S    3.599779   -1.596485   -0.196217
 N    4.764453   -1.476865    0.999725
 O    4.244124   -1.686482   -1.469222
 C    2.763936   -0.019308   -0.054068
 C    1.419742   -0.018738    0.256582
 C    3.443746    1.166501   -0.273185
Cl    5.106101    1.114147   -0.656257
 C    2.769596    2.377940   -0.165553
 C    1.423986    2.377254    0.147351
 C    0.729087    1.184933    0.348625
 C   -0.725966    1.279371    0.699465
 O   -1.190582    2.239385    1.270148
 N   -1.457188    0.199548    0.318119
 N   -2.811721    0.122742    0.565926
 C   -3.257721   -0.719775    1.682198
 C   -2.998345   -0.025315    3.010260
 C   -3.699945    0.009128   -0.491097
 C   -4.879244   -0.608758   -0.068085
 C   -4.751471   -0.956119    1.387898
 C   -3.541443    0.441773   -1.794554
 C   -4.598107    0.247416   -2.674015
 C   -5.771082   -0.359277   -2.260822
 C   -5.921367   -0.790449   -0.945915
 H    5.703507   -1.542096    0.641681
 H    4.601073   -2.126477    1.750792
 H    0.963924   -0.978626    0.445130
 H    3.302046    3.301990   -0.323459
 H    0.882039    3.305751    0.246973
 H   -1.022264   -0.548081   -0.216321
 H   -2.707839   -1.676311    1.655001
 H   -1.931400    0.114893    3.166186
 H   -3.395851   -0.620410    3.828578
 H   -3.471081    0.952955    3.011459
 H   -5.365260   -0.281065    1.988968
 H   -5.059749   -1.978797    1.605122
 H   -2.628121    0.919447   -2.116186
 H   -4.498051    0.574114   -3.698494
 H   -6.577624   -0.501326   -2.963998
 H   -6.835834   -1.267268   -0.625549
