37 
3bla_ligand_dft.xyz
 C    2.021423    0.963335   -0.116445
 C    0.991228    3.169758   -0.767940
 C    0.736624    1.716597   -0.397676
 C    4.401630   -0.421607    0.399670
 C    3.559889   -0.812361   -0.632754
 C    2.373272   -0.134462   -0.895676
 N   -3.851055    0.509356   -0.946849
 C   -0.686183    0.493206    1.046869
 C   -0.595980   -1.617213    2.196818
 C   -1.758882   -2.028995    1.597412
 C   -1.913420    0.116825    0.439830
 C   -2.738197    0.953121   -0.399303
 C    2.859980    1.361347    0.927367
 C   -0.044840   -0.350563    1.921914
Cl    3.990239   -2.192083   -1.616913
 C    4.038552    0.672798    1.182096
 O   -0.122987    1.725358    0.760068
 C   -2.447462   -1.172073    0.704350
 N   -3.598921   -1.618353    0.136008
 N   -2.400624    2.244448   -0.663678
 C   -4.204710   -0.772882   -0.673140
 N   -5.317470   -1.211943   -1.331937
 H    1.691343    3.221334   -1.606365
 H    1.424034    3.712987    0.077347
 H    0.060519    3.661089   -1.064456
 H    0.200883    1.221940   -1.218517
 H    5.321091   -0.964218    0.589399
 H    1.723685   -0.471537   -1.697583
 H   -0.077342   -2.278705    2.884449
 H   -2.187530   -3.007076    1.785576
 H    2.574519    2.200779    1.554659
 H    0.887811   -0.036040    2.374480
 H    4.686326    0.984701    1.995605
 H   -3.130917    2.802107   -1.080832
 H   -1.739466    2.690638   -0.045679
 H   -5.742366   -2.053893   -0.977057
 H   -5.923790   -0.507108   -1.719199
