18 
3bls_ligand_dft.xyz
 B   -2.071286   -0.254869    0.010094
 O   -2.519305   -1.429400   -0.523676
 O   -3.020641    0.541440    0.583211
 C   -0.546381    0.156083   -0.029348
 C    0.451734   -0.814126    0.100705
 C    1.811588   -0.481905    0.075680
 C    2.167210    0.862076   -0.098666
 C    1.185860    1.835211   -0.233587
 C   -0.162434    1.493153   -0.193475
 N    2.789538   -1.470427    0.167312
 H   -1.820735   -1.884914   -1.003427
 H   -2.623091    1.301805    1.018513
 H    0.175283   -1.858685    0.244408
 H    3.218310    1.138585   -0.132780
 H    1.481096    2.871477   -0.372375
 H   -0.915519    2.268302   -0.316132
 H    2.499009   -2.316181    0.637489
 H    3.689409   -1.152337    0.498528
