18 
3bls_ligand_xtb.xyz
 B   -2.078209   -0.256811    0.007410
 O   -2.510173   -1.463180   -0.429897
 O   -3.034893    0.577803    0.476325
 C   -0.539524    0.152543   -0.023910
 C    0.458532   -0.809778    0.093696
 C    1.811484   -0.475242    0.075477
 C    2.169099    0.864243   -0.077754
 C    1.191407    1.831274   -0.201923
 C   -0.147723    1.484832   -0.167856
 N    2.779332   -1.459399    0.132916
 H   -1.828714   -2.035739   -0.778555
 H   -2.717691    1.422655    0.791397
 H    0.187854   -1.850908    0.223247
 H    3.215060    1.136098   -0.098276
 H    1.478152    2.866412   -0.320855
 H   -0.898732    2.256065   -0.272857
 H    2.497166   -2.339815    0.532642
 H    3.703495   -1.159136    0.397996
