27 
3bm9_ligand_dft.xyz
 C   -3.301673   -1.782612   -0.896607
 C   -2.101002   -1.123850   -0.738045
 C   -2.093277    0.081818   -0.022835
 C   -3.283937    0.584544    0.487015
 C   -4.514188   -0.053443    0.344452
 C   -4.496509   -1.252264   -0.356466
 O   -5.618105   -1.983980   -0.571317
 O   -3.057835    1.754758    1.108253
 N   -1.695694    2.049577    1.025963
 C   -1.128811    1.077640    0.363862
 C    0.320005    1.044104    0.103991
 C    1.016821   -0.147279    0.309603
 C    2.376229   -0.255171    0.067149
 C    3.085602    0.854048   -0.398832
 C    2.403473    2.051039   -0.614765
 C    1.034134    2.154753   -0.371942
 O    0.357788    3.300086   -0.602505
 O    4.409869    0.724514   -0.625806
Br    3.269184   -1.889516    0.367815
 H   -3.363216   -2.718530   -1.440392
 H   -1.188250   -1.528643   -1.163749
 H   -5.425106    0.369006    0.756388
 H   -6.373746   -1.540820   -0.166962
 H    0.482801   -1.012775    0.687927
 H    2.949931    2.917146   -0.984891
 H    0.962586    3.972131   -0.938385
 H    4.768484    1.565513   -0.933686
