27 
3bm9_ligand_xtb.xyz
 C   -3.322155   -1.828285   -0.796130
 C   -2.115914   -1.187404   -0.667599
 C   -2.095145    0.051383   -0.026460
 C   -3.296223    0.614576    0.441571
 C   -4.519950   -0.025670    0.318142
 C   -4.513788   -1.261990   -0.305333
 O   -5.649306   -1.979344   -0.479797
 O   -3.042622    1.815806    0.990370
 N   -1.703388    2.065132    0.892997
 C   -1.123905    1.056107    0.307649
 C    0.312321    1.003913    0.071347
 C    1.003258   -0.186531    0.261271
 C    2.366098   -0.252372    0.058010
 C    3.084284    0.872874   -0.343978
 C    2.393960    2.061717   -0.541277
 C    1.021037    2.144011   -0.339619
 O    0.341777    3.285290   -0.564073
 O    4.416844    0.760210   -0.526217
Br    3.300143   -1.882060    0.325615
 H   -3.393545   -2.788270   -1.281466
 H   -1.212305   -1.625920   -1.060074
 H   -5.426785    0.426924    0.688422
 H   -6.404328   -1.504222   -0.111414
 H    0.473784   -1.064331    0.596476
 H    2.940276    2.942528   -0.858291
 H    0.944124    3.997726   -0.811579
 H    4.800680    1.602085   -0.797413
