22 
3bmn_ligand_xtb.xyz
 C    3.708540   -0.085042   -0.789980
 C    3.773994   -0.107930    0.712210
 C    2.488511    0.234146    0.022062
 N    1.404869   -0.682028    0.060045
 C    0.109018   -0.322693    0.027003
 N   -0.195965    0.976002    0.024221
 N   -0.777043   -1.323582    0.015763
 C   -2.049447   -0.936360   -0.005443
 N   -2.991873   -1.902793   -0.066862
 N   -2.474537    0.327255   -0.001868
 C   -1.501445    1.236642    0.003532
 N   -1.870009    2.535359   -0.045684
 H    3.738096   -1.030513   -1.309914
 H    4.200594    0.716967   -1.317084
 H    4.312014    0.678217    1.218296
 H    3.847918   -1.068768    1.198535
 H    2.121569    1.250421    0.050775
 H    1.593913   -1.671359    0.034145
 H   -2.704717   -2.849474    0.102018
 H   -3.947164   -1.633371    0.081748
 H   -1.166757    3.230898    0.124396
 H   -2.838584    2.752909    0.101470
