28 
3bmq_ligand_dft.xyz
 C    1.207247   -0.729511   -0.209558
 C    0.838337    0.557267   -0.565906
 C    1.818606    1.544703   -0.363365
 N    3.025113    1.272262    0.136663
 N    2.404635   -1.039170    0.294490
 C   -2.376907   -0.720266    1.024182
 C   -3.225817    0.132481    1.722331
 C   -3.925042    1.133669    1.053268
 C   -3.769133    1.276974   -0.321909
 C   -2.918814    0.422866   -1.018585
 C   -2.215663   -0.585417   -0.355077
 C   -1.333740   -1.517043   -1.162597
 S    0.169998   -2.157658   -0.363549
 C    3.249428   -0.012801    0.442621
 N    4.463215   -0.301276    0.994518
 N    1.584604    2.848437   -0.707695
 H   -0.138482    0.812195   -0.952763
 H   -1.822057   -1.488178    1.555033
 H   -3.337487    0.016284    2.796330
 H   -4.584391    1.799981    1.601406
 H   -4.307080    2.055592   -0.854959
 H   -2.799386    0.541103   -2.093612
 H   -1.060595   -1.051828   -2.115360
 H   -1.887938   -2.429749   -1.410720
 H    5.188976    0.387852    0.882192
 H    4.731386   -1.272119    1.010336
 H    0.626794    3.155002   -0.774615
 H    2.236321    3.517075   -0.324744
