60 
3bpc_ligand_xtb.xyz
 C    4.653208   -0.846143    1.463597
 O    4.365702   -1.663845    2.289724
 O    5.834717   -0.243870    1.399182
 C    3.711480   -0.427084    0.313130
 C    3.576371   -1.636750   -0.624569
 C    2.453624   -1.387001   -1.639406
 O    2.246150   -2.493334   -2.468939
 C    1.163572   -1.044906   -0.862424
 O    0.769374   -2.194847   -0.142189
 C    1.433236    0.171009    0.032403
 O    2.492069   -0.105007    0.935851
 C    0.243821    0.611723    0.901776
 O   -0.260010   -0.487177    1.617999
 C   -0.864405    1.259515    0.060660
 O   -1.978321    1.434999    0.925660
 O    4.212881    0.634220   -0.444884
 C    4.355337    1.839178    0.212261
 C    4.938998    2.881975   -0.356484
 C    5.527208    2.879345   -1.728256
 C   -3.237856    1.498501    0.288816
 C   -3.332390    2.723712   -0.642624
 O   -2.533944    3.617635   -0.682947
 O   -4.441610    2.691590   -1.369866
 C   -4.261781    1.722282    1.376239
 C   -5.247148    0.864540    1.584899
 C   -5.362001   -0.396991    0.794735
 C   -3.992052   -0.742980    0.216024
 O   -3.477866    0.373899   -0.506276
 C   -4.053685   -1.933517   -0.760901
 O   -4.694324   -3.027475   -0.164620
 C   -2.633740   -2.325141   -1.192639
 O   -1.984135   -2.853148   -0.058909
 H    6.414807   -0.551178    2.115848
 H    3.331678   -2.514153   -0.022530
 H    4.520238   -1.797964   -1.143651
 H    2.724920   -0.554261   -2.295048
 H    1.834296   -3.182615   -1.929378
 H    0.377288   -0.797722   -1.590335
 H    0.694957   -1.940546    0.792361
 H    1.711445    1.015453   -0.617596
 H    0.624587    1.360947    1.613329
 H   -1.130727   -0.222353    1.945701
 H   -0.531578    2.223216   -0.335872
 H   -1.157178    0.604413   -0.766708
 H    3.931873    1.874850    1.207594
 H    4.998824    3.801816    0.204201
 H    5.024135    3.612725   -2.358000
 H    6.582340    3.146736   -1.685280
 H    5.426639    1.895573   -2.175856
 H   -4.494302    3.472954   -1.946123
 H   -4.120579    2.624506    1.947687
 H   -5.992613    1.055523    2.342568
 H   -6.073255   -0.256974   -0.024124
 H   -5.721016   -1.218594    1.413583
 H   -3.303786   -0.996949    1.036166
 H   -4.645915   -1.640036   -1.633016
 H   -4.024220   -3.470461    0.375854
 H   -2.126026   -1.440405   -1.587267
 H   -2.690802   -3.083859   -1.986174
 H   -1.022289   -2.757370   -0.159652
