60 
3bpc_ligand_dft.xyz
 C    3.394322   -3.040434   -2.157727
 O    3.944105   -3.606148   -1.247509
 O    3.373101   -3.510229   -3.412260
 C    2.699088   -1.666477   -2.043757
 C    1.700580   -1.379216   -3.160692
 C    0.948981   -0.076699   -2.878294
 O   -0.042550    0.181196   -3.840319
 C    0.341328   -0.124531   -1.476216
 O   -0.724061   -1.070884   -1.511843
 C    1.410087   -0.482496   -0.439242
 O    2.091063   -1.681769   -0.787191
 C    0.883204   -0.707557    0.974597
 O   -0.097475   -1.737748    0.949854
 C    0.278836    0.566847    1.572016
 O   -0.494020    0.125305    2.679152
 O    3.692130   -0.657017   -2.130172
 C    4.558618   -0.548504   -1.063318
 C    5.118760    0.619156   -0.761824
 C    4.865642    1.913692   -1.474617
 C   -1.631332    0.879081    3.037207
 C   -1.182567    2.212135    3.679060
 O   -0.043285    2.600820    3.731885
 O   -2.223133    2.887128    4.178269
 C   -2.369188    0.014845    4.027352
 C   -3.575948   -0.467866    3.754247
 C   -4.277576   -0.183141    2.460141
 C   -3.304270    0.306528    1.395319
 O   -2.401387    1.275676    1.945431
 C   -4.040271    1.028104    0.257374
 O   -5.124546    0.248266   -0.181048
 C   -3.153016    1.364661   -0.952413
 O   -3.083850    0.251968   -1.819922
 H    3.876745   -4.340576   -3.402915
 H    0.985449   -2.205966   -3.206554
 H    2.217011   -1.316532   -4.119546
 H    1.648368    0.763468   -2.926196
 H   -0.774153   -0.425943   -3.659348
 H   -0.065262    0.869871   -1.247591
 H   -0.697582   -1.574615   -0.671947
 H    2.126563    0.351514   -0.399305
 H    1.727680   -1.037901    1.592668
 H   -0.622200   -1.602955    1.756969
 H    1.058946    1.260262    1.896585
 H   -0.376808    1.070188    0.855942
 H    4.752674   -1.466954   -0.518888
 H    5.829229    0.619477    0.060285
 H    4.568866    2.698290   -0.768554
 H    5.770136    2.267298   -1.983856
 H    4.079365    1.805707   -2.226044
 H   -1.867108    3.710004    4.550972
 H   -1.847577   -0.203645    4.953732
 H   -4.089118   -1.083501    4.488835
 H   -5.057587    0.572801    2.624629
 H   -4.792731   -1.073024    2.089210
 H   -2.717960   -0.536567    0.996559
 H   -4.433841    1.958536    0.686417
 H   -4.774408   -0.229313   -0.954149
 H   -2.161780    1.701889   -0.623750
 H   -3.618301    2.180167   -1.514363
 H   -2.276085   -0.266170   -1.633037
