30 
3bqc_ligand_xtb.xyz
 C   -2.517660    1.229147   -0.002627
 O   -2.616822    2.555030   -0.004122
 C   -3.701049    0.490542   -0.002118
 C   -3.674003   -0.894097    0.001253
 O   -4.844076   -1.562257    0.003701
 C   -2.445096   -1.557963    0.002070
 C   -1.261039   -0.845096    0.000081
 C    0.004049   -1.612271   -0.000767
 O    0.010949   -2.829908   -0.001671
 C    1.250969   -0.822533   -0.000618
 C    2.454275   -1.503649   -0.001041
 C    3.672504   -0.820664   -0.000648
 C    4.956286   -1.585262   -0.001811
 C    3.656323    0.558380    0.001145
 C    2.454629    1.278476    0.002022
 O    2.533062    2.607330    0.004342
 C    1.224397    0.586030    0.000470
 C   -0.031160    1.322173   -0.000217
 O   -0.042537    2.574318    0.000484
 C   -1.268010    0.561521   -0.001334
 H   -1.701067    2.930842   -0.002827
 H   -4.643132    1.013339   -0.003717
 H   -4.686374   -2.515416    0.006800
 H   -2.394574   -2.638131    0.004203
 H    2.430240   -2.583216   -0.001638
 H    5.011476   -2.225177    0.877583
 H    5.008614   -2.227445   -0.879700
 H    5.811572   -0.915617   -0.003961
 H    4.573592    1.127204    0.001973
 H    1.612549    2.969101    0.004254
