22 
3bra_ligand_xtb.xyz
 C   -1.795595   -0.061953    0.724393
 C    1.703500    1.218049    0.030410
 C    1.753402   -1.185972   -0.006575
 C   -2.551538    0.021616   -0.596692
 C    2.418473    0.030802   -0.132344
 O    3.732545    0.117871   -0.406410
 C    0.400912   -1.212367    0.274831
 C    0.355538    1.180126    0.312625
 C   -0.310713   -0.033415    0.441266
 N   -4.034891    0.018516   -0.364842
 H   -2.049557   -0.986608    1.245330
 H   -2.058710    0.785106    1.360572
 H    2.229807    2.153447   -0.063324
 H    2.297857   -2.112046   -0.124613
 H   -2.296897   -0.829685   -1.228979
 H   -2.283972    0.938620   -1.123020
 H    4.134684   -0.757001   -0.479895
 H   -0.097271   -2.165360    0.378028
 H   -0.180936    2.107677    0.448744
 H   -4.555539    0.071841   -1.249145
 H   -4.305580   -0.841434    0.130430
 H   -4.293890    0.821548    0.223554
