22 
3bra_ligand_dft.xyz
 C   -1.798310   -0.057714    0.727699
 C    1.718753    1.219510    0.030966
 C    1.761069   -1.198162   -0.008004
 C   -2.547623    0.024971   -0.597576
 C    2.425040    0.024052   -0.137750
 O    3.739234    0.125176   -0.419429
 C    0.403162   -1.218433    0.285704
 C    0.366211    1.183266    0.324473
 C   -0.311117   -0.033416    0.456856
 N   -4.053761    0.019357   -0.374803
 H   -2.074686   -0.979459    1.254985
 H   -2.082206    0.786870    1.368639
 H    2.250966    2.159587   -0.061956
 H    2.303899   -2.132087   -0.127418
 H   -2.327798   -0.827929   -1.242633
 H   -2.319719    0.946739   -1.136411
 H    4.137826   -0.750889   -0.494712
 H   -0.096461   -2.178419    0.395246
 H   -0.166511    2.121066    0.467786
 H   -4.575018    0.074620   -1.255694
 H   -4.349939   -0.834325    0.109554
 H   -4.341006    0.812872    0.207459
