57 
3bsc_ligand_dft.xyz
 O    3.224805   -1.685403    2.346277
 S    2.774641   -1.560933    0.970907
 O    2.581202   -2.765157    0.181365
 C    3.728477   -0.397611    0.066261
 C    5.110378   -0.375399    0.256915
 C    5.874833    0.466934   -0.541624
 O    7.218666    0.593909   -0.458537
 C    7.896704   -0.182116    0.507004
 C    5.244646    1.259855   -1.516055
 N    1.350262   -0.652572    0.998743
 C    0.911904   -0.027483   -0.169681
 N    1.691925    0.448487   -1.065778
 C    3.071188    0.392330   -0.883046
 C    3.877014    1.221991   -1.681188
 C   -0.554463    0.133829   -0.311891
 C   -1.410863   -0.924299   -0.193604
 O   -0.924337   -2.140162    0.111375
 C   -1.079750    1.457976   -0.623834
 O   -0.433902    2.490917   -0.657976
 N   -2.463364    1.468426   -0.894676
 C   -3.123659    2.731163   -1.244105
 C   -4.027016    3.236058   -0.120166
 C   -3.322381    3.551878    1.206510
 C   -2.317713    4.699087    1.073075
 C   -4.365917    3.862548    2.282939
 N   -3.283088    0.430962   -0.790866
 C   -2.820135   -0.730145   -0.428750
 C   -3.787563   -1.853015   -0.334808
 C   -3.816776   -2.685719    0.791311
 C   -4.729423   -3.734803    0.867703
 C   -4.695620   -2.080182   -1.373552
 C   -5.609685   -3.122762   -1.290268
 C   -5.624249   -3.956596   -0.173567
 H    5.546779   -1.001028    1.026454
 H    7.560488    0.060333    1.522908
 H    7.760106   -1.255505    0.324925
 H    8.952565    0.069723    0.406169
 H    5.863913    1.907748   -2.127210
 H    0.648442   -1.050981    1.612646
 H    3.383785    1.843555   -2.420476
 H   -1.620458   -2.808639    0.015947
 H   -3.713276    2.543255   -2.145331
 H   -2.328599    3.436040   -1.482963
 H   -4.807044    2.483306    0.050036
 H   -4.534805    4.140029   -0.483879
 H   -2.772853    2.652936    1.521845
 H   -1.500006    4.441923    0.394456
 H   -2.814348    5.605256    0.702033
 H   -1.875949    4.937797    2.046738
 H   -4.944836    4.755481    2.014944
 H   -5.069957    3.032529    2.411604
 H   -3.887827    4.054335    3.249541
 H   -3.152289   -2.491134    1.629986
 H   -4.746873   -4.369142    1.748379
 H   -4.676591   -1.429358   -2.241763
 H   -6.310120   -3.290243   -2.102590
 H   -6.335708   -4.774344   -0.114379
