51 
3btc_ligand_xtb.xyz
 C   -0.004167    0.920324    0.985520
 C   -0.027797    2.296615    0.357639
 C   -0.758279    2.572755   -0.790333
 C   -0.735173    3.838055   -1.351355
 C    0.020392    4.843798   -0.774741
 C    0.755634    4.576550    0.367876
 C    0.730476    3.312712    0.927720
 C    1.264707    0.181036    0.622759
 C    1.932975    0.390650   -0.574976
 C    3.071413   -0.321296   -0.897094
 C    3.593259   -1.290979   -0.032187
 C    2.916313   -1.492508    1.177650
 C    1.780714   -0.773575    1.488454
 C   -1.235985    0.116517    0.630163
 C   -1.241202   -0.832890   -0.383715
 C   -2.384140   -1.540245   -0.692886
 C   -3.584986   -1.318264   -0.009601
 C   -3.574072   -0.360418    1.008590
 C   -2.421403    0.334670    1.317818
 C    5.360216   -2.821344    0.650942
 C    5.488195   -1.664227   -1.518627
 C   -5.063498   -2.370109   -1.663515
 C   -5.852572   -2.013111    0.578483
 N    4.700821   -2.043688   -0.370787
 N   -4.706606   -2.085661   -0.293120
 H   -0.005677    1.057831    2.075025
 H   -1.350608    1.792905   -1.246590
 H   -1.310167    4.038636   -2.244315
 H    0.037172    5.831035   -1.213229
 H    1.349071    5.355977    0.824096
 H    1.309037    3.106677    1.817733
 H    1.563683    1.129248   -1.272239
 H    3.551792   -0.109122   -1.838267
 H    3.270591   -2.218427    1.891014
 H    1.282578   -0.961962    2.429836
 H   -0.332403   -1.034024   -0.932365
 H   -2.333378   -2.293837   -1.464233
 H   -4.472336   -0.139594    1.563041
 H   -2.449691    1.073645    2.107222
 H    5.687238   -2.205962    1.498669
 H    4.692131   -3.600866    1.023050
 H    6.233984   -3.309539    0.224882
 H    4.876950   -1.700817   -2.422144
 H    5.913687   -0.656823   -1.423306
 H    6.305280   -2.371946   -1.643590
 H   -5.853409   -1.691845   -2.014660
 H   -4.206302   -2.256774   -2.319182
 H   -5.432896   -3.395990   -1.743111
 H   -5.532843   -2.090146    1.616225
 H   -6.436243   -1.090556    0.448448
 H   -6.502872   -2.860585    0.357816
