17 
3bu1_ligand_dft.xyz
 N    3.208841   -0.214738   -0.014038
 C    1.739003   -0.216128   -0.450933
 C    0.925566    0.768684    0.368640
 C   -0.497735    0.349646    0.176098
 N   -0.807131   -0.980233    0.280731
 C   -1.637004    1.070214   -0.135798
 C   -2.127653   -0.978277    0.032486
 N   -2.689902    0.213901   -0.222838
 H    3.768709   -0.909579   -0.513088
 H    3.631670    0.705953   -0.154717
 H    3.254320   -0.422870    0.987333
 H    1.341589   -1.218851   -0.265887
 H    1.729401    0.004946   -1.519270
 H    1.095066    1.802884    0.044039
 H    1.241545    0.697135    1.427832
 H   -1.749505    2.139433   -0.289905
 H   -2.708522   -1.896387    0.033726
