25 
3buf_ligand_xtb.xyz
 C   -1.560942    0.562067   -0.847870
 C    1.991188    1.175153    0.330665
 C    1.830608   -1.095707   -0.444838
 C   -2.386394    0.192732    0.390689
 C    2.587058   -0.068075    0.118842
 O    3.865978   -0.328382    0.430854
 C    0.506116   -0.881138   -0.775908
 C    0.666080    1.380030    0.000885
 C   -0.095507    0.361536   -0.559000
 N   -2.006007   -1.218283    0.757159
 C   -3.883239    0.273169    0.168334
 H   -1.873115   -0.050682   -1.695285
 H   -1.755970    1.603023   -1.099728
 H    2.573356    1.984274    0.747365
 H    2.306134   -2.044627   -0.629992
 H   -2.087095    0.831936    1.225888
 H    4.318204    0.456280    0.766898
 H   -0.029398   -1.667665   -1.293518
 H    0.222887    2.350173    0.165976
 H   -2.210382   -1.439861    1.735744
 H   -2.515538   -1.877780    0.156695
 H   -0.977106   -1.305363    0.555876
 H   -4.432875   -0.033338    1.054991
 H   -4.166358    1.297035   -0.056785
 H   -4.188318   -0.346984   -0.671867
