28 
3bug_ligand_dft.xyz
 C    2.408431   -1.426041    0.561127
 C   -0.910747    0.186001   -0.441586
 C    0.728850    1.934366   -0.159000
 C    3.354580   -1.706765   -0.616090
 C   -2.330636   -0.245440   -0.729538
 N   -4.591724   -0.569365    0.315893
 O    2.920837    1.458455    0.481592
 C    1.688563    0.983833    0.194205
 C   -0.559349    1.536724   -0.475662
 C   -3.144093   -0.162190    0.556907
 C    0.058503   -0.750301   -0.082916
 C    1.363768   -0.383265    0.236174
 H    2.986965   -1.126468    1.446951
 H    1.907436   -2.355524    0.850504
 H    1.020119    2.978534   -0.187896
 H    2.793522   -2.086782   -1.474922
 H    3.877214   -0.801754   -0.944053
 H    4.106678   -2.451332   -0.340259
 H   -2.347411   -1.272648   -1.115182
 H   -2.777561    0.402441   -1.494678
 H   -5.155267   -0.519027    1.170564
 H   -5.030790    0.038315   -0.383412
 H   -4.648230   -1.529431   -0.039096
 H    3.514792    0.740983    0.732608
 H   -1.291310    2.288005   -0.764285
 H   -3.172595    0.854364    0.953985
 H   -2.758140   -0.834281    1.325792
 H   -0.197277   -1.809007   -0.062328
