38 
3buh_ligand_dft.xyz
 C    0.077004    2.032440   -0.054858
 C    2.304282    0.029183    1.142077
 C    1.936314   -1.196332   -1.025584
 C   -2.090741    0.331926   -0.475605
 C   -1.224228    2.536011   -0.032281
 C    3.776334   -0.391602    1.140253
 C   -3.262248   -0.607109   -0.651860
 C   -3.711761   -1.098915    0.718817
 O    1.061386    2.934165    0.159492
 C   -2.301031    1.690267   -0.238740
 N   -4.905632   -2.037364    0.598566
 C   -0.783751   -0.156156   -0.496849
 C    0.322377    0.666010   -0.293555
 C    1.745956    0.139594   -0.294260
 C    3.984900   -1.697324    0.369055
 C    3.412343   -1.604509   -1.047962
 H    2.178385    0.975220    1.682710
 H    1.704060   -0.715072    1.683827
 H    1.539155   -1.127980   -2.045168
 H    1.368560   -1.982098   -0.506502
 H   -1.364506    3.597524    0.139258
 H    4.134352   -0.494408    2.170113
 H    4.378052    0.403041    0.676954
 H   -2.977084   -1.461252   -1.279093
 H   -4.092050   -0.091387   -1.152270
 H   -4.031056   -0.275520    1.360617
 H   -2.926004   -1.662208    1.225910
 H    1.928616    2.520575    0.072624
 H   -3.308985    2.099430   -0.232011
 H   -5.223758   -2.378663    1.511115
 H   -5.696847   -1.565567    0.148678
 H   -4.673222   -2.853497    0.023438
 H   -0.620393   -1.211907   -0.697976
 H    2.372560    0.864051   -0.843556
 H    3.486919   -2.516870    0.906207
 H    5.050142   -1.947769    0.331122
 H    3.983424   -0.865798   -1.626845
 H    3.523508   -2.562514   -1.566939
