38 
3buh_ligand_xtb.xyz
 C    0.033362    2.100723    0.114243
 C    2.016061   -0.570789    1.222917
 C    2.177938   -0.566285   -1.282571
 C   -1.997300    0.283291   -0.459449
 C   -1.295673    2.517133    0.034624
 C    3.476181   -1.004789    1.317033
 C   -3.102264   -0.711651   -0.735922
 C   -3.721753   -1.138948    0.589002
 O    0.932431    3.057315    0.418722
 C   -2.301241    1.622184   -0.251021
 N   -4.859335   -2.094007    0.365024
 C   -0.676764   -0.127316   -0.380999
 C    0.361118    0.755905   -0.114206
 C    1.784669    0.256197   -0.049650
 C    3.883097   -1.800999    0.080517
 C    3.642348   -0.985802   -1.186961
 H    1.742837    0.019163    2.101329
 H    1.373509   -1.453818    1.202036
 H    2.012261    0.025970   -2.184964
 H    1.559338   -1.462237   -1.351652
 H   -1.506551    3.560590    0.201968
 H    3.621724   -1.608874    2.214134
 H    4.113496   -0.122049    1.405195
 H   -2.693933   -1.577476   -1.259371
 H   -3.859044   -0.242431   -1.367654
 H   -4.101232   -0.266039    1.121208
 H   -2.973920   -1.628989    1.213236
 H    1.831042    2.703949    0.453193
 H   -3.321151    1.970119   -0.321672
 H   -5.290646   -2.383171    1.251598
 H   -5.573898   -1.644835   -0.222943
 H   -4.517657   -2.929053   -0.128544
 H   -0.442914   -1.168523   -0.545698
 H    2.476749    1.106993   -0.015738
 H    3.300073   -2.723957    0.034757
 H    4.936319   -2.075951    0.149255
 H    4.278555   -0.098100   -1.175141
 H    3.912266   -1.574882   -2.064825
