79 
3bv3_ligand_dft.xyz
 C   10.181548   -3.304436    1.380700
 C    9.516655   -2.085643    1.469619
 C    9.625643   -1.136062    0.449580
 C    9.149647    0.965229    1.811044
 C   10.973022   -3.588802    0.270951
 C   11.092542   -2.648338   -0.747738
 C   10.419536   -1.433129   -0.658238
 C   -0.374382    2.164483   -0.231287
 C   -0.584905    3.547090   -0.054660
 C    6.582828    0.870370   -0.086024
 C   -7.215835   -0.267988   -0.013500
 C   -2.763298    1.788825   -0.315745
 C   -5.955633   -0.229162   -0.612134
 N    3.432473   -0.899441   -0.587643
 N    2.675043   -2.004061   -0.845249
 C    1.401739   -1.744961   -0.873456
 N    0.758534   -0.562486   -0.686948
 C    1.508145    0.497319   -0.451079
 C    2.938736    0.385534   -0.393177
 C    4.022634    1.235681   -0.185022
 C    5.176476    0.416542   -0.246731
 C    4.775099   -0.891917   -0.500806
 C    3.987893    2.714489    0.072676
 O    6.951059    2.012913   -0.339361
 N    7.446858   -0.085670    0.352998
 C    8.873103    0.178718    0.525902
 N    0.966269    1.726779   -0.255435
 C   -1.899025    3.998038   -0.015549
 C   -2.995239    3.151781   -0.141091
 C   -1.455022    1.297849   -0.361650
 C    0.563456    4.514146    0.089567
 N   -3.788254    0.835883   -0.463374
 C   -5.145681    1.017929   -0.383999
 O   -5.677840    2.086937   -0.131365
 C   -8.048692   -1.380964   -0.155001
 C   -7.586107   -2.454945   -0.935367
 C   -6.351404   -2.398752   -1.561104
 C   -5.522658   -1.289862   -1.405156
 N   -9.301033   -1.471611    0.479542
 C  -10.445239   -1.793563   -0.373411
 C  -11.639452   -2.177824    0.488771
 O  -11.966852   -1.150367    1.397235
 C  -10.870398   -0.867405    2.237942
 C   -9.644840   -0.434588    1.441684
 H   10.085117   -4.032310    2.180987
 H    8.911497   -1.872463    2.348014
 H   10.221989    1.157277    1.916267
 H    8.810201    0.416331    2.695681
 H    8.620265    1.920290    1.769010
 H   11.493898   -4.538967    0.201225
 H   11.707537   -2.861744   -1.617025
 H   10.509229   -0.704458   -1.459827
 H   -7.524940    0.605985    0.547040
 H    0.767821   -2.602843   -1.075437
 H    5.332213   -1.800654   -0.672633
 H    3.514590    3.256605   -0.755890
 H    5.005329    3.096504    0.160303
 H    3.449415    2.955957    0.998345
 H    7.084932   -0.967879    0.680976
 H    9.168838    0.806002   -0.320679
 H    1.642981    2.456131   -0.097564
 H   -2.078502    5.061099    0.121790
 H   -4.004860    3.533034   -0.098642
 H   -1.263525    0.242468   -0.503153
 H    0.189473    5.533860    0.208368
 H    1.221295    4.513433   -0.789947
 H    1.183400    4.297423    0.970350
 H   -3.471066   -0.118454   -0.543966
 H   -8.192772   -3.349396   -1.034228
 H   -6.024984   -3.234280   -2.173100
 H   -4.573801   -1.250891   -1.932459
 H  -10.714824   -0.928004   -1.002991
 H  -10.198452   -2.625298   -1.036435
 H  -11.412082   -3.109276    1.032698
 H  -12.522442   -2.339240   -0.134877
 H  -10.615374   -1.754989    2.839648
 H  -11.187513   -0.065546    2.909262
 H   -8.808078   -0.292477    2.132416
 H   -9.852310    0.531063    0.948105
