97 
3bv9_ligand_xtb.xyz
 N    0.000578    1.374193    0.890801
 C    1.050674    2.097364    0.149455
 C    0.578974    3.554320   -0.017842
 C   -0.835999    3.634177   -0.495539
 C   -1.887222    4.113637    0.154721
 N   -1.934194    4.675433    1.442560
 C   -1.470892    4.169240    2.615582
 N   -1.799701    4.906242    3.716985
 N   -0.823072    3.059436    2.673610
 C    1.334046    1.468204   -1.227181
 O    0.772358    1.906413   -2.225107
 N    2.261697    0.500881   -1.302888
 C    2.504354   -0.540881   -0.304617
 C    3.199761   -0.064696    0.971659
 O    3.708036    1.039167    1.074623
 C    3.363588   -1.594285   -1.038310
 C    3.942409   -0.835274   -2.229348
 C    2.776446    0.077422   -2.612484
 C    5.187875   -0.047339   -1.814185
 C    5.573798    0.994063   -2.856604
 C    4.414173    1.964246   -3.040155
 C    3.192731    1.209813   -3.549009
 N    3.238000   -0.950291    1.983893
 C    2.582422   -2.240266    2.068692
 C    1.058252   -2.073426    2.056828
 O    0.524826   -0.985984    2.212694
 C    3.065768   -2.810333    3.411332
 C    3.271098   -1.554483    4.254811
 C    3.861485   -0.575909    3.248616
 N    0.363471   -3.212386    1.895448
 C   -1.002077   -3.161841    1.405393
 C   -1.704108   -4.493146    1.628262
 C   -0.923164   -2.778656   -0.086426
 O    0.156840   -2.642386   -0.634948
 C   -2.089966   -2.036461   -2.045771
 C   -3.501091   -2.053892   -2.652237
 C   -4.487701   -1.351740   -1.759927
 C   -5.250886   -2.070208   -0.846736
 C   -4.632490    0.028596   -1.806138
 C   -6.140155   -1.425079   -0.006366
 C   -5.520085    0.670607   -0.963648
 C   -6.288207   -0.044658   -0.052703
 C   -1.536794   -0.608684   -1.911616
 C   -7.279747    0.646518    0.829773
 O   -1.559556   -0.035946   -0.832520
 N   -2.094044   -2.637101   -0.725478
 N   -1.042505   -0.063754   -3.021995
 H    0.344787    0.551051    1.405649
 H   -0.439281    2.085661    1.634027
 H   -0.731777    1.040171    0.238176
 H    1.978930    2.098906    0.724776
 H    1.218832    4.041383   -0.755753
 H    0.693258    4.069846    0.933876
 H   -0.996694    3.256348   -1.492676
 H   -2.843173    4.160709   -0.351865
 H   -2.601606    5.426610    1.537547
 H   -1.370087    4.676459    4.596372
 H   -2.132722    5.849791    3.621709
 H   -0.540491    2.790980    3.606118
 H    1.541449   -0.988850   -0.041870
 H    4.155656   -1.992462   -0.405852
 H    2.721354   -2.409998   -1.371921
 H    4.189277   -1.504892   -3.055686
 H    1.994765   -0.518949   -3.108535
 H    4.994973    0.468667   -0.873453
 H    6.010919   -0.747061   -1.654947
 H    5.803360    0.508645   -3.807871
 H    6.465310    1.528183   -2.526489
 H    4.678956    2.744991   -3.754144
 H    4.184367    2.440844   -2.085142
 H    2.359869    1.893795   -3.702713
 H    3.431812    0.751595   -4.511580
 H    2.860401   -2.883835    1.228656
 H    2.347669   -3.501925    3.847648
 H    4.014427   -3.328842    3.270025
 H    3.928897   -1.722932    5.103156
 H    2.310221   -1.188692    4.617583
 H    4.947054   -0.689829    3.164638
 H    3.643294    0.469671    3.469884
 H    0.874577   -4.049320    1.653538
 H   -1.511128   -2.352027    1.939870
 H   -1.686149   -4.749902    2.684481
 H   -1.208975   -5.282819    1.067104
 H   -2.739162   -4.437878    1.304981
 H   -1.401448   -2.615780   -2.672008
 H   -3.800791   -3.093654   -2.795279
 H   -3.465406   -1.568325   -3.628663
 H   -5.172830   -3.149099   -0.811974
 H   -4.052966    0.604636   -2.512825
 H   -6.733403   -2.002134    0.687997
 H   -5.626015    1.744052   -1.020520
 H   -6.995313    1.681522    1.002253
 H   -8.260633    0.641859    0.353864
 H   -7.371896    0.138153    1.786675
 H   -2.952214   -2.538792   -0.200567
 H   -0.531399    0.816978   -2.956471
 H   -0.984117   -0.583902   -3.879988
