97 
3bv9_ligand_dft.xyz
 N   -0.117012    1.308826    0.928644
 C    0.480727    2.263938   -0.049536
 C   -0.561649    3.360366   -0.337145
 C   -1.932040    2.792782   -0.563586
 C   -3.024279    3.010962    0.167263
 N   -3.153112    3.858775    1.294684
 C   -2.473699    3.753556    2.486762
 N   -2.955955    4.621435    3.445217
 N   -1.524778    2.898510    2.671323
 C    0.946148    1.589462   -1.365000
 O    0.383039    1.905304   -2.413681
 N    2.041556    0.787613   -1.359466
 C    2.404790   -0.135637   -0.276496
 C    3.026535    0.570720    0.937570
 O    3.316149    1.761175    0.926415
 C    3.357276   -1.152290   -0.959696
 C    3.901401   -0.402531   -2.173689
 C    2.677021    0.396319   -2.643387
 C    5.104826    0.475189   -1.786659
 C    5.423355    1.552417   -2.820791
 C    4.186225    2.415531   -3.064260
 C    3.035822    1.553775   -3.580154
 N    3.206560   -0.180460    2.057948
 C    2.880689   -1.584436    2.254019
 C    1.366113   -1.826443    2.252453
 O    0.555912   -0.916993    2.401977
 C    3.508603   -1.901862    3.627893
 C    3.404836   -0.567288    4.369974
 C    3.708258    0.460087    3.281453
 N    0.994621   -3.119611    2.084293
 C   -0.334505   -3.431857    1.589827
 C   -0.730559   -4.865524    1.941682
 C   -0.330949   -3.215517    0.064722
 O    0.715112   -3.193584   -0.568918
 C   -1.612411   -2.621383   -1.887985
 C   -3.053720   -2.713000   -2.436556
 C   -4.028229   -1.824328   -1.699705
 C   -4.723367   -2.289302   -0.582142
 C   -4.227224   -0.498607   -2.095005
 C   -5.568453   -1.447939    0.137145
 C   -5.084871    0.332273   -1.386850
 C   -5.762293   -0.122671   -0.251328
 C   -1.093594   -1.173498   -1.929336
 C   -6.699406    0.784980    0.504174
 O   -1.014247   -0.520513   -0.891799
 N   -1.550651   -3.103412   -0.525427
 N   -0.790706   -0.665694   -3.134089
 H    0.547833    0.760145    1.488165
 H   -0.730598    1.857431    1.614384
 H   -0.700812    0.620413    0.433288
 H    1.366441    2.694409    0.420423
 H   -0.239500    3.900607   -1.230430
 H   -0.566737    4.061361    0.500015
 H   -2.035572    2.099048   -1.392898
 H   -3.956691    2.533069   -0.121024
 H   -4.073639    4.262547    1.393305
 H   -2.425098    4.685282    4.300955
 H   -3.299861    5.515941    3.124576
 H   -1.100857    3.000075    3.588519
 H    1.505995   -0.671260    0.043919
 H    4.165976   -1.472410   -0.296789
 H    2.777290   -2.032346   -1.249089
 H    4.198696   -1.097268   -2.966493
 H    1.989543   -0.282315   -3.167801
 H    4.902168    0.976862   -0.833510
 H    5.969258   -0.179344   -1.623027
 H    5.739626    1.089682   -3.766162
 H    6.261452    2.163814   -2.470375
 H    4.401537    3.206364   -3.790232
 H    3.894547    2.906908   -2.126625
 H    2.150349    2.152533   -3.794478
 H    3.341054    1.089239   -4.527867
 H    3.321415   -2.207368    1.470029
 H    3.003608   -2.728273    4.133638
 H    4.557302   -2.179007    3.482330
 H    4.097885   -0.499441    5.210775
 H    2.387966   -0.425588    4.749698
 H    4.781815    0.655361    3.182194
 H    3.208367    1.419194    3.429526
 H    1.716360   -3.745122    1.748611
 H   -1.023075   -2.721669    2.054491
 H   -0.721767   -5.003816    3.025501
 H   -0.036901   -5.582785    1.490004
 H   -1.732785   -5.087673    1.566230
 H   -0.955466   -3.250444   -2.495703
 H   -3.363054   -3.761225   -2.373436
 H   -3.033794   -2.449699   -3.499175
 H   -4.620767   -3.329973   -0.279206
 H   -3.711034   -0.114554   -2.971322
 H   -6.096136   -1.835348    1.004668
 H   -5.243227    1.351422   -1.733211
 H   -6.267116    1.782770    0.638597
 H   -7.644928    0.910454   -0.035245
 H   -6.932691    0.383690    1.494160
 H   -2.319334   -2.814305    0.067975
 H   -0.407378    0.279469   -3.177909
 H   -0.777303   -1.241294   -3.961607
