75 
3bvb_ligand_xtb.xyz
 N   -6.994559    2.252323   -0.948898
 C   -6.102956    1.214451   -1.005109
 C   -6.082858    0.239852    0.000471
 C   -5.138205   -0.763840   -0.020369
 C   -4.205755   -0.808072   -1.041525
 C   -4.208364    0.145129   -2.044450
 C   -5.152534    1.150051   -2.030827
 S   -2.976283   -2.099970   -1.030291
 O   -3.596826   -3.368658   -0.795347
 O   -2.177514   -1.958646   -2.224079
 N   -1.991647   -1.762418    0.262968
 C   -2.158434   -2.491188    1.496687
 C   -0.834896   -3.096863    1.984779
 C   -0.320909   -4.107515    0.964407
 C   -1.035764   -3.751120    3.348651
 C   -1.467480   -0.417937    0.311646
 C   -0.093476   -0.295797   -0.373339
 O   -0.199028   -0.180500   -1.768302
 C    0.691286    0.931142    0.133524
 N    2.030147    0.854942   -0.406090
 C    3.129245    0.958544    0.359803
 O    3.138822    1.164424    1.548263
 O    4.249596    0.809265   -0.398527
 C    5.474332    0.941003    0.299832
 C    5.858097   -0.307793    1.115334
 O    7.260883   -0.212674    1.250948
 C    7.775739    0.255558    0.045335
 O    8.110087   -0.808096   -0.816451
 C    7.754703   -0.449549   -2.134332
 C    6.475141    0.380963   -2.008822
 C    6.664466    1.084811   -0.660791
 C    0.041855    2.266160   -0.276866
 C   -1.028391    2.834133    1.918746
 C   -2.132344    3.139478    2.693885
 C   -3.384830    3.241132    2.111308
 C   -3.524295    3.048978    0.747987
 C   -2.417903    2.742727   -0.025422
 C   -1.159767    2.619918    0.551044
 H   -7.797053    2.146878   -0.351551
 H   -7.140730    2.787882   -1.787998
 H   -6.815698    0.282823    0.792321
 H   -5.120351   -1.527743    0.740550
 H   -3.470799    0.076230   -2.828294
 H   -5.164950    1.896703   -2.811016
 H   -2.583555   -1.836838    2.270627
 H   -2.863691   -3.295257    1.280951
 H   -0.103697   -2.287066    2.086123
 H   -0.264375   -3.651194   -0.020864
 H   -0.999441   -4.955082    0.902438
 H    0.665817   -4.468826    1.244602
 H   -1.777920   -4.543274    3.281784
 H   -1.373627   -3.022152    4.082024
 H   -0.102072   -4.182810    3.700034
 H   -2.167018    0.257375   -0.190548
 H   -1.385631   -0.106717    1.355329
 H    0.491506   -1.195326   -0.116126
 H   -0.822040   -0.865340   -2.085256
 H    0.795097    0.880418    1.221588
 H    2.116266    0.665435   -1.392068
 H    5.410205    1.804036    0.973491
 H    5.573182   -1.212560    0.562194
 H    5.418771   -0.324614    2.111103
 H    8.679313    0.835475    0.285215
 H    7.627374   -1.371032   -2.702818
 H    8.560598    0.146633   -2.588270
 H    6.355193    1.082197   -2.830550
 H    5.602343   -0.268386   -1.969604
 H    6.956956    2.126193   -0.786336
 H   -0.225137    2.203370   -1.331970
 H    0.799742    3.044071   -0.153496
 H   -0.051967    2.765394    2.376139
 H   -2.015169    3.302106    3.755398
 H   -4.247204    3.477760    2.716854
 H   -4.496025    3.135856    0.285231
 H   -2.533649    2.595915   -1.090007
