76 
3bwk_ligand_dft.xyz
 N   -1.672375   -2.283224    0.000679
 C   -2.424631   -1.119880   -0.028308
 O   -1.981886   -0.053177    0.397738
 N   -3.702369   -1.235904   -0.506056
 C   -4.281387   -2.470541   -1.010285
 C   -5.774269   -2.501287   -0.684402
 O   -6.435662   -1.344812   -1.139902
 C   -5.902371   -0.190249   -0.522918
 C   -4.428652   -0.023565   -0.859579
 C   -0.268262   -2.119812    0.343996
 C    0.457483   -1.418774   -0.812146
 O    0.203156   -1.731395   -1.971876
 N    1.393411   -0.519718   -0.444849
 C    2.131391    0.316961   -1.386837
 C    1.209309    1.277139   -2.160829
 C    0.101083    1.926775   -1.332270
 S    0.725227    2.862710    0.075372
 O    1.674636    3.860243   -0.418030
 O    1.142800    1.918981    1.120194
 C   -0.733144    3.714206    0.656309
 C   -0.843233    5.083631    0.441160
 C   -1.989042    5.741650    0.878215
 C   -3.003250    5.027664    1.511570
 C   -2.877091    3.654770    1.717007
 C   -1.734231    2.984646    1.294018
 C    2.991363   -0.504769   -2.353628
 C    3.888300   -1.541802   -1.662464
 C    4.809115   -0.940719   -0.627006
 C    4.549543   -1.079517    0.737539
 C    5.379389   -0.490786    1.687827
 C    6.486107    0.249729    1.285021
 C    6.756052    0.397266   -0.073386
 C    5.923342   -0.192987   -1.017933
 C    0.385904   -3.482834    0.590538
 C   -0.294223   -4.350142    1.657727
 C    0.458905   -5.674641    1.804148
 C   -0.403367   -3.631436    3.004086
 H   -1.784921   -2.873444   -0.815623
 H   -3.804103   -3.324281   -0.523850
 H   -4.136136   -2.552162   -2.097987
 H   -5.901694   -2.607437    0.405301
 H   -6.248328   -3.353382   -1.177847
 H   -6.477835    0.659711   -0.897286
 H   -6.030146   -0.253754    0.569835
 H   -3.989396    0.810448   -0.311544
 H   -4.322492    0.168585   -1.937429
 H   -0.222492   -1.506020    1.245465
 H    1.334584   -0.135603    0.491143
 H    2.802446    0.910177   -0.758423
 H    0.710098    0.725048   -2.963811
 H    1.826597    2.055044   -2.622094
 H   -0.456581    2.646657   -1.938620
 H   -0.599523    1.193214   -0.919731
 H   -0.035633    5.614336   -0.052322
 H   -2.089399    6.811446    0.724334
 H   -3.896946    5.544113    1.849238
 H   -3.668632    3.102987    2.214881
 H   -1.629323    1.914468    1.438882
 H    2.342595   -1.018418   -3.068680
 H    3.614001    0.200666   -2.918826
 H    4.479660   -2.051215   -2.432837
 H    3.256080   -2.305498   -1.197156
 H    3.681037   -1.651273    1.055652
 H    5.159512   -0.610027    2.744788
 H    7.134653    0.710445    2.024148
 H    7.618269    0.973002   -0.397614
 H    6.139816   -0.074060   -2.077577
 H    1.431415   -3.303243    0.877987
 H    0.418688   -4.028478   -0.362501
 H   -1.312462   -4.570041    1.311156
 H    1.474619   -5.504952    2.182715
 H    0.543094   -6.195313    0.843587
 H   -0.051587   -6.341781    2.507024
 H   -0.816056   -4.300373    3.767030
 H    0.583576   -3.299055    3.351154
 H   -1.056496   -2.754868    2.945052
