76 
3bwk_ligand_xtb.xyz
 N   -2.250153   -1.888245   -0.095250
 C   -2.775654   -0.678602   -0.476637
 O   -2.236108    0.385593   -0.197117
 N   -3.949062   -0.717385   -1.170623
 C   -4.856424   -1.840738   -1.255106
 C   -6.083974   -1.565397   -0.372843
 O   -6.718680   -0.363001   -0.736512
 C   -5.834305    0.732015   -0.629119
 C   -4.601206    0.531661   -1.513966
 C   -0.891449   -1.871141    0.420692
 C    0.077304   -1.622026   -0.749108
 O   -0.178062   -2.030024   -1.868032
 N    1.187156   -0.960165   -0.387866
 C    2.117421   -0.350015   -1.325495
 C    1.406866    0.689575   -2.208592
 C    0.467097    1.578012   -1.409143
 S    1.268164    2.260119    0.082860
 O    2.555673    2.798680   -0.272306
 O    1.256020    1.282481    1.152233
 C    0.181419    3.606152    0.569503
 C    0.693201    4.884447    0.674535
 C   -0.144412    5.919243    1.057750
 C   -1.479008    5.660278    1.326570
 C   -1.980144    4.372258    1.215334
 C   -1.147344    3.331705    0.836050
 C    2.821164   -1.411584   -2.173219
 C    3.626469   -2.390478   -1.308469
 C    4.708422   -1.680821   -0.545678
 C    4.511277   -1.285154    0.771169
 C    5.492979   -0.589749    1.454259
 C    6.688832   -0.282814    0.828886
 C    6.897402   -0.675507   -0.482204
 C    5.912517   -1.367559   -1.163588
 C   -0.562214   -3.199965    1.099150
 C   -1.461205   -3.510983    2.301908
 C   -1.257860   -4.961510    2.735696
 C   -1.173915   -2.571061    3.469828
 H   -2.401349   -2.656284   -0.734656
 H   -4.380979   -2.763975   -0.931366
 H   -5.178443   -1.945442   -2.297775
 H   -5.765479   -1.519483    0.680691
 H   -6.829839   -2.352762   -0.492783
 H   -6.399114    1.611239   -0.941711
 H   -5.514500    0.853981    0.416995
 H   -3.887418    1.342430   -1.367962
 H   -4.905259    0.485923   -2.565090
 H   -0.821690   -1.040294    1.126780
 H    1.179521   -0.494197    0.513947
 H    2.858903    0.174296   -0.714629
 H    0.831591    0.173322   -2.980994
 H    2.169624    1.305445   -2.686692
 H    0.168127    2.451229   -1.983862
 H   -0.417831    1.049235   -1.060166
 H    1.737576    5.043027    0.455935
 H    0.242771    6.922957    1.146935
 H   -2.132393    6.466741    1.625462
 H   -3.021039    4.177416    1.425527
 H   -1.519369    2.323681    0.743823
 H    2.069500   -1.963561   -2.738024
 H    3.488770   -0.908046   -2.874272
 H    4.068707   -3.146914   -1.960472
 H    2.946764   -2.889752   -0.616191
 H    3.579077   -1.520805    1.264339
 H    5.321763   -0.283999    2.475862
 H    7.456128    0.260328    1.360731
 H    7.829704   -0.440553   -0.975435
 H    6.079197   -1.671453   -2.187786
 H    0.480577   -3.173794    1.421346
 H   -0.661815   -3.995798    0.356012
 H   -2.503961   -3.378710    1.993858
 H   -0.224140   -5.125255    3.032566
 H   -1.493844   -5.646543    1.924332
 H   -1.898335   -5.200295    3.581557
 H   -1.804021   -2.823529    4.319796
 H   -0.133979   -2.655467    3.778090
 H   -1.370009   -1.536964    3.200565
