46 
3bx5_ligand_dft.xyz
 C    5.157190    1.457800   -0.136259
 C    4.301208    2.544051   -0.254601
 C    3.247606    0.013945    0.150112
 C   -1.956010    1.035051    0.567025
 C    4.627201    0.184804    0.054070
 C    2.916685    2.397431   -0.190491
 C    2.392812    1.108139    0.015603
 C   -1.202570    0.011076    0.071876
 C   -3.619608   -0.301026    0.079603
 C    5.590475   -0.964734    0.161880
 C    0.252523   -0.178768   -0.061207
 C    2.010609    3.594784   -0.329779
 C   -7.243107   -0.035364   -1.788823
 C   -6.169609   -0.240387    1.971967
 C    5.917437   -3.375643   -0.088166
 C   -7.295562   -0.389367   -0.304337
 C   -6.032695   -0.000608    0.467869
 N   -3.310785    0.875024    0.577807
 N    0.993812    0.967780    0.107575
 N   -4.892310   -0.730198   -0.088099
 N    5.075325   -2.199463   -0.097688
 O    6.763141   -0.792837    0.464055
 O    0.728116   -1.277950   -0.308476
 S   -2.260844   -1.291732   -0.414734
 H    6.233491    1.578237   -0.188240
 H    4.714991    3.537295   -0.408016
 H    2.812376   -0.955751    0.344728
 H   -1.553527    1.954980    0.980839
 H    2.590803    4.495946   -0.542180
 H    1.443350    3.789842    0.590860
 H    1.290043    3.469951   -1.148084
 H   -6.410442   -0.539668   -2.288888
 H   -7.105528    1.042638   -1.926470
 H   -8.169928   -0.324587   -2.293444
 H   -6.994853    0.351378    2.381537
 H   -5.249513    0.049419    2.486699
 H   -6.371263   -1.297884    2.179905
 H    6.421114   -3.529465   -1.050594
 H    6.681508   -3.248213    0.679803
 H    5.312190   -4.255588    0.143870
 H   -7.475376   -1.467248   -0.176482
 H   -8.145798    0.114731    0.169486
 H   -5.821311    1.059513    0.296604
 H    0.471020    1.827860    0.153146
 H   -5.029698   -1.713451   -0.273297
 H    4.170002   -2.265017   -0.535884
