17 
3bxe_ligand_dft.xyz
 P    1.693034   -0.058850    0.163519
 O    1.571827    0.352862    1.574544
 O    1.466734   -1.575294   -0.236549
 O    3.110962    0.208432   -0.520216
 O    0.670888    0.759397   -0.803968
 C   -0.548155    1.206030   -0.261352
 C   -1.581200    0.088957   -0.178516
 O   -1.274509   -1.081477   -0.223600
 C   -3.016248    0.548027   -0.019583
 O   -3.827191   -0.544414    0.284135
 H    0.501512   -1.734272   -0.294215
 H    3.614217    0.841441    0.008696
 H   -0.915318    2.012709   -0.904354
 H   -0.405357    1.610159    0.750661
 H   -3.295193    1.040130   -0.968467
 H   -3.035464    1.331866    0.757670
 H   -4.735973   -0.233401    0.359173
