29 
3bxg_ligand_xtb.xyz
 C   -0.771360   -1.294868   -0.270546
 C   -2.205267   -1.100001    0.242512
 O   -0.246225   -2.498271    0.139602
 O    0.015625   -0.255355    0.273065
 C   -2.691066    0.295427   -0.184276
 O   -3.094936   -2.046745   -0.290581
 C   -1.694036    1.401844    0.213837
 O   -3.928403    0.610726    0.404279
 C   -0.301936    0.995602   -0.280355
 O   -2.053683    2.630195   -0.350746
 C    0.850016    1.900665    0.130972
 O    2.064355    1.374005   -0.350922
 P    2.581837   -0.141087   -0.085891
 O    2.442778   -0.364754    1.495230
 O    2.135203   -1.244859   -0.935692
 O    4.126699    0.120159   -0.260955
 H   -0.765820   -1.213611   -1.375412
 H   -2.186146   -1.162172    1.342228
 H    0.667989   -2.516654   -0.200717
 H   -2.789869    0.293650   -1.282836
 H   -2.691690   -2.917766   -0.191656
 H   -1.679434    1.470241    1.313806
 H   -4.512300   -0.145494    0.268100
 H   -0.313394    0.929647   -1.379241
 H   -2.995188    2.759655   -0.174329
 H    0.734441    2.892470   -0.308719
 H    0.881619    1.971333    1.223458
 H    1.664800   -0.888109    1.687288
 H    4.448019    0.850290    0.267301
