29 
3bxh_ligand_xtb.xyz
 O   -1.653055   -2.907906   -0.878315
 C   -2.386287   -1.716713   -0.775488
 C   -1.541481   -0.697758    0.008473
 O   -1.085211   -1.322356    1.178456
 C   -2.261971    0.620168    0.377830
 O   -2.758157    0.635503    1.676383
 C   -1.187874    1.692658    0.075609
 O   -1.716315    2.918664   -0.334439
 C   -0.416358    1.042425   -1.074730
 O   -0.422387   -0.344686   -0.792289
 C    1.030332    1.500541   -1.227366
 O    1.766229    1.258627   -0.060434
 P    2.331894   -0.241538    0.170316
 O    2.379103   -1.065199   -1.040191
 O    1.594878   -0.782945    1.451583
 O    3.746609    0.052219    0.825418
 H   -0.837898   -2.720710   -1.366066
 H   -2.644997   -1.305476   -1.757244
 H   -3.297907   -1.949868   -0.220798
 H   -1.035521   -2.276885    0.982078
 H   -3.113730    0.784300   -0.293020
 H   -2.145941    0.145728    2.244676
 H   -0.527586    1.806721    0.948705
 H   -2.259467    3.271752    0.380508
 H   -0.953978    1.242529   -2.013523
 H    1.052922    2.575690   -1.415362
 H    1.472810    0.947482   -2.061130
 H    0.648478   -0.947754    1.314247
 H    4.432675   -0.133729    0.186852
