52 
3bxs_ligand_xtb.xyz
 C    0.966831    3.664647    1.357765
 C    0.868827    3.206844   -0.095289
 C    0.129119    4.240574   -0.938710
 C    0.160052    1.834366   -0.196950
 C    1.013131    0.753436    0.462357
 O    0.778415    0.349415    1.584900
 N    2.034778    0.300289   -0.286258
 C    2.944539   -0.710875    0.193057
 C    4.364533   -0.320107   -0.164146
 O    5.266548   -1.050823    0.488646
 O    4.651212    0.526573   -0.967406
 C    2.624353   -2.095073   -0.425453
 C    1.152758   -2.375938   -0.288059
 C    0.590574   -2.588413    0.964952
 C   -0.773074   -2.746190    1.106859
 C    0.322855   -2.363153   -1.399995
 C   -1.042500   -2.543188   -1.270074
 C   -1.601385   -2.716254   -0.010692
 O   -2.963482   -2.888483    0.125384
 C   -3.650363   -1.738285    0.595530
 C   -3.906843   -0.746297   -0.541350
 C   -4.506041    0.584205   -0.087600
 C   -3.502235    1.463430    0.662139
 C   -2.290251    1.755225   -0.211791
 O   -2.360071    1.946118   -1.408560
 N   -1.122225    1.817625    0.466337
 H   -0.023873    3.872242    1.754789
 H    1.559460    4.573877    1.423171
 H    1.435310    2.902056    1.975196
 H    1.881707    3.080522   -0.495143
 H    0.626219    5.205425   -0.872978
 H   -0.893565    4.350909   -0.588033
 H    0.095585    3.935699   -1.981352
 H   -0.011593    1.598647   -1.253701
 H    2.230522    0.694844   -1.193768
 H    2.829376   -0.766149    1.280243
 H    6.167968   -0.802454    0.226061
 H    2.904780   -2.089802   -1.480764
 H    3.219529   -2.848327    0.092798
 H    1.222375   -2.616104    1.839670
 H   -1.207186   -2.896589    2.084031
 H    0.744841   -2.206219   -2.382709
 H   -1.683916   -2.542508   -2.137974
 H   -3.075737   -1.266714    1.402831
 H   -4.595927   -2.106534    1.003205
 H   -2.963780   -0.551009   -1.055785
 H   -4.580263   -1.220189   -1.258112
 H   -5.378894    0.404957    0.543563
 H   -4.828527    1.128792   -0.976124
 H   -3.976456    2.417152    0.907395
 H   -3.187891    0.993853    1.594428
 H   -1.068175    1.512107    1.429480
