42 
3bxz_ligand_xtb.xyz
 P    2.469242   -1.455009    0.323757
 O    2.876097   -2.815501   -0.025180
 O    2.816088   -0.332659   -0.734635
 O    2.944085   -0.901876    1.686254
 P    0.170769   -1.998254   -0.957099
 O    0.396848   -3.547625   -0.814045
 O    0.723026   -1.327160   -2.131714
 O    0.820366   -1.387486    0.403752
 O   -1.374204   -1.779342   -0.808301
 C   -2.165182   -2.280021    0.266444
 C   -3.087595   -1.171571    0.796014
 O   -2.386740   -0.289453    1.666432
 C   -3.673852   -0.294054   -0.319787
 O   -4.930913    0.185201    0.061569
 C   -2.639294    0.838845   -0.414344
 O   -3.205327    2.016551   -0.895353
 C   -2.154641    0.946485    1.052246
 N   -0.748783    1.267396    1.112782
 C    0.158723    0.800285    2.007674
 N    1.379262    1.188013    1.766122
 C    1.292883    1.963952    0.634679
 C    2.232117    2.631200   -0.174896
 N    3.550396    2.650047    0.080814
 N    1.774178    3.314315   -1.228108
 C    0.481258    3.329909   -1.486468
 N   -0.492358    2.718603   -0.831955
 C   -0.045480    2.027056    0.220176
 H    2.327837   -0.510430   -1.556138
 H    2.493187   -0.033742    1.903726
 H    1.341098   -3.709027   -0.631208
 H   -2.764542   -3.108107   -0.119484
 H   -1.526175   -2.632402    1.077828
 H   -3.891226   -1.626993    1.383938
 H   -3.739587   -0.847512   -1.265301
 H   -5.038814    1.055023   -0.350123
 H   -1.805285    0.506442   -1.043144
 H   -2.461210    2.615927   -1.095435
 H   -2.724828    1.732530    1.578322
 H   -0.130102    0.166590    2.821654
 H    3.924633    1.972624    0.722531
 H    4.148911    3.023103   -0.636824
 H    0.178846    3.908583   -2.348449
