77 
3byu_ligand_xtb.xyz
 C   -3.866860    4.426782   -0.300446
 C   -4.912368    3.532906   -0.404415
 C   -4.661797    2.170905   -0.565130
 N   -5.752988    1.307142   -0.683560
 C   -5.764505   -0.057940   -0.609201
 C   -7.143135   -0.613085   -0.820849
 C   -7.825898   -0.221551   -1.969222
 C   -9.086233   -0.715070   -2.245606
 C   -9.683169   -1.591307   -1.358231
 C   -9.006140   -1.982451   -0.211239
 C   -7.715229   -1.522378    0.075250
 C   -9.691742   -2.932724    0.735847
 F  -10.961120   -3.185157    0.389240
 F   -9.742282   -2.463772    1.996461
 F   -9.083273   -4.131574    0.805310
 C   -3.345145    1.730590   -0.621417
 C   -2.300365    2.636110   -0.490425
 C   -2.543365    4.001775   -0.335787
 C   -1.432999    5.006504   -0.236528
 N    2.905819    1.897095    2.423769
 C    1.679386    2.243198    2.100692
 C    1.095881    1.899414    0.876779
 C    1.907135    1.157890    0.013247
 N    3.137095    0.806521    0.337168
 C    3.594412    1.182782    1.526620
 N   -0.202884    2.297674    0.591703
 C   -0.911664    2.083367   -0.565248
 O   -0.473251    1.499070   -1.527632
 N    4.859534    0.863086    1.930353
 O   -4.784908   -0.741334   -0.412957
 C   -6.996324   -1.955048    1.312657
 C    6.656864   -1.277811   -0.473931
 C    7.893110   -1.415618    0.156018
 C    8.078797   -0.786607    1.382845
 C    7.061923   -0.045342    1.954070
 C    5.832449    0.107479    1.312940
 C    5.646218   -0.524884    0.081531
 C   10.384509   -0.970331   -1.937929
 N   11.562564   -1.485274   -1.194545
 C   11.197752   -1.705124    0.227919
 C   10.011276   -2.686441    0.297053
 N    8.879308   -2.229914   -0.454732
 C    9.226401   -1.979499   -1.826769
 C   12.738610   -0.612236   -1.339179
 H   -4.079247    5.480068   -0.191625
 H   -5.931769    3.890683   -0.371393
 H   -6.651093    1.765723   -0.759699
 H   -7.351278    0.456563   -2.664346
 H   -9.604245   -0.418409   -3.143700
 H  -10.672288   -1.973772   -1.555452
 H   -3.127771    0.684950   -0.761288
 H   -1.733892    5.941983   -0.702841
 H   -1.197692    5.222487    0.807175
 H   -0.530579    4.650087   -0.727565
 H    1.137271    2.816559    2.843288
 H    1.558303    0.840965   -0.957674
 H   -0.679478    2.788620    1.336276
 H    5.077363    1.227937    2.848472
 H   -7.099429   -3.026229    1.466914
 H   -5.939432   -1.721171    1.244793
 H   -7.415001   -1.451291    2.184363
 H    6.470354   -1.788468   -1.405930
 H    9.006515   -0.874168    1.928720
 H    7.226525    0.423420    2.913185
 H    4.696999   -0.426319   -0.416221
 H   10.658052   -0.810294   -2.981718
 H   10.087814   -0.017690   -1.493999
 H   11.788280   -2.406067   -1.592806
 H   10.920046   -0.740264    0.655938
 H   12.059565   -2.103319    0.765501
 H    9.723158   -2.846075    1.335306
 H   10.330038   -3.654943   -0.111432
 H    9.518797   -2.923723   -2.303647
 H    8.365801   -1.581521   -2.361500
 H   13.003288   -0.505351   -2.389766
 H   12.516070    0.372602   -0.931703
 H   13.588449   -1.030780   -0.802602
