13 
3c14_ligand_xtb.xyz
 P   -1.435269   -0.030093   -0.179608
 O   -1.196758    1.032974    1.020364
 O   -1.503932   -1.430969    0.532120
 O   -2.555932    0.295923   -1.031444
 O    0.000092   -0.000181   -0.902082
 P    1.435288    0.029903   -0.179790
 O    2.556095   -0.295259   -1.031654
 O    1.503628    1.430778    0.532443
 O    1.196477   -1.033306    1.020017
 H   -2.004314    1.534322    1.138866
 H   -0.690927   -1.660532    0.994220
 H    0.691278    1.659175    0.996302
 H    2.006314   -1.529803    1.143469
