18 
3c1n_ligand_xtb.xyz
 N    0.014840    1.627553   -0.263162
 C   -0.041417    0.183654   -0.603072
 C   -1.382974   -0.421466   -0.136689
 O   -2.272784    0.532919    0.136791
 C    1.133710   -0.517716    0.124390
 O    1.220446    0.160788    1.368623
 C    2.434204   -0.429392   -0.666302
 O   -1.571944   -1.590858   -0.056005
 H    0.535051    2.187919   -0.943162
 H   -0.942580    1.990604   -0.146440
 H    0.510080    1.623410    0.662847
 H    0.028664    0.020226   -1.681493
 H   -3.125531    0.156508    0.414227
 H    0.857255   -1.568847    0.273827
 H    1.875206   -0.264736    1.931879
 H    2.736983    0.603921   -0.820438
 H    3.229762   -0.935692   -0.125865
 H    2.324348   -0.919455   -1.628478
