18 
3c1n_ligand_dft.xyz
 N    0.063128    1.647300   -0.098086
 C   -0.030399    0.227782   -0.595450
 C   -1.375218   -0.380420   -0.185093
 O   -2.251470    0.567949    0.177052
 C    1.138876   -0.556759    0.019969
 O    1.081755   -0.167110    1.384436
 C    2.485224   -0.248066   -0.621094
 O   -1.587237   -1.555335   -0.230937
 H    0.716947    2.212193   -0.645793
 H   -0.858979    2.097737   -0.094832
 H    0.411181    1.586290    0.875345
 H    0.021502    0.239765   -1.687068
 H   -3.100079    0.149006    0.405844
 H    0.890810   -1.616931   -0.098868
 H    1.706739   -0.679358    1.912788
 H    2.758249    0.808277   -0.515350
 H    3.270853   -0.834926   -0.137007
 H    2.485607   -0.512416   -1.682854
