35 
3c2f_ligand_xtb.xyz
 C   -0.098880    1.886042   -0.574226
 C   -1.018261    2.987173   -0.009478
 C   -2.424201    2.384180   -0.223689
 C   -2.125166    0.878840   -0.045852
 C   -3.107820   -0.013288   -0.789275
 O    1.034279    1.791641    0.267788
 O   -0.832584    3.188056    1.364356
 O   -3.373536    2.880397    0.652749
 O   -0.818700    0.691211   -0.589451
 O   -3.095702   -1.352101   -0.347899
 P   -1.742005   -2.117959    0.003885
 O   -2.289337   -3.595891    0.150653
 O   -1.116908   -1.651729    1.267344
 O   -0.904902   -2.116074   -1.304063
 P    2.373839    1.147386   -0.279767
 O    2.636437    1.984596   -1.602013
 O    3.456563    1.133582    0.696333
 O    2.001141   -0.287658   -0.856516
 P    2.004916   -1.521076    0.242550
 O    3.508544   -1.610393    0.661214
 O    1.452519   -2.721039   -0.381796
 O    1.269286   -0.908890    1.465235
 H    0.239890    2.108110   -1.592978
 H   -0.878915    3.937618   -0.538552
 H   -2.778024    2.574019   -1.242286
 H   -2.132551    0.616166    1.019822
 H   -2.870744    0.019631   -1.857357
 H   -4.125213    0.349997   -0.615731
 H   -0.003340    2.763142    1.625314
 H   -2.921529    3.063047    1.492397
 H   -2.521714   -3.794061    1.056483
 H    0.020887   -2.403336   -1.115775
 H    3.548296    1.920312   -1.885041
 H    3.809767   -0.749584    0.994823
 H    0.291125   -1.173654    1.462496
