35 
3c2f_ligand_dft.xyz
 C    0.443469    1.874389   -0.523828
 C   -0.203059    3.176859   -0.043782
 C   -1.679431    2.905662   -0.343837
 C   -1.777528    1.402793   -0.019507
 C   -2.905848    0.738590   -0.785380
 O    1.561415    1.603950    0.335719
 O   -0.113996    3.332122    1.350962
 O   -2.568865    3.702720    0.371424
 O   -0.514664    0.866774   -0.435195
 O   -3.384149   -0.488023   -0.227917
 P   -2.431281   -1.723848    0.071127
 O   -3.504743   -2.891438    0.251294
 O   -1.577479   -1.582139    1.287893
 O   -1.684369   -1.978971   -1.286938
 P    2.730511    0.628492   -0.138140
 O    3.291499    1.415021   -1.410919
 O    3.693821    0.245922    0.906553
 O    1.989310   -0.630036   -0.808748
 P    1.597105   -1.969433    0.080467
 O    3.012363   -2.546201    0.491533
 O    0.775850   -2.868182   -0.757637
 O    0.971353   -1.401743    1.395338
 H    0.811527    1.941908   -1.551887
 H    0.202342    4.050279   -0.567493
 H   -1.880837    3.066450   -1.410070
 H   -1.908893    1.258444    1.058786
 H   -2.594755    0.570256   -1.821542
 H   -3.772587    1.403009   -0.765089
 H    0.737665    2.980047    1.645944
 H   -2.212226    3.762969    1.271054
 H   -3.465645   -3.240449    1.151712
 H   -0.772463   -2.369843   -1.175965
 H    4.071202    0.989186   -1.794004
 H    3.537259   -1.864470    0.957415
 H   -0.041992   -1.403908    1.390433
