47 
3c2u_ligand_xtb.xyz
 C    0.248269   -2.585881   -1.008302
 C    1.550815   -1.784359   -1.029876
 C    0.081015   -3.408635    0.264259
 N   -1.757575    0.129706   -1.201851
 C   -2.578215    0.373809   -0.026027
 C   -3.638628    1.469671   -0.261032
 C   -3.283933   -0.957445    0.334084
 C   -1.657839    0.827455    1.122121
 N    1.538958   -0.779788    0.028784
 C    2.357091    0.409544   -0.161217
 C    1.734130    1.333236   -1.238900
 C    3.812023    0.081975   -0.570205
 C    2.399311    1.123060    1.204434
 O    0.758494    2.212922   -0.751339
 O    4.313524   -0.896611    0.315783
 O    2.860063    2.455215    1.040883
 O   -4.339106    1.167432   -1.450818
 O   -3.647606   -1.054904    1.685651
 O   -0.808140   -0.194959    1.568808
 H    0.245856   -3.253390   -1.872873
 H   -0.580750   -1.883157   -1.113175
 H    1.628379   -1.284828   -1.997595
 H    2.409642   -2.464485   -0.933255
 H   -0.023875   -2.762689    1.131378
 H   -0.808531   -4.030427    0.194130
 H   -2.366990    0.012640   -2.004916
 H   -1.162600    0.935347   -1.373862
 H   -3.142096    2.448042   -0.351339
 H   -4.318230    1.495110    0.599516
 H   -2.617542   -1.781031    0.051371
 H   -4.204998   -1.040321   -0.246291
 H   -2.261490    1.138147    1.980082
 H   -1.076915    1.692097    0.773811
 H    1.831824   -1.228589    0.891013
 H    0.940195   -4.060132    0.415828
 H    1.232690    0.724179   -1.991898
 H    2.541119    1.899589   -1.723531
 H    4.406028    1.002899   -0.512861
 H    3.831996   -0.285043   -1.604966
 H    3.072155    0.558373    1.859187
 H    1.393215    1.112596    1.640635
 H    1.201944    2.786751   -0.111210
 H    5.223395   -1.095371    0.075786
 H    3.022935    2.828393    1.912325
 H   -5.077221    1.777276   -1.538282
 H   -2.825955   -1.059091    2.193954
 H   -0.225927   -0.439649    0.820736
