47 
3c2u_ligand_dft.xyz
 C    0.150662   -1.227697   -0.607765
 C    1.371861   -1.600696    0.234441
 C   -1.009397   -0.679979    0.225774
 N   -2.169175   -0.366790   -0.671011
 C   -3.438017    0.261559   -0.087194
 C   -4.529584   -0.076569   -1.116090
 C   -3.758486   -0.391791    1.267831
 C   -3.247801    1.769932    0.043451
 N    2.171631   -0.412189    0.716465
 C    3.403924    0.006640   -0.079375
 C    2.962642    0.366412   -1.496087
 C    4.406316   -1.148675   -0.015620
 C    3.965694    1.243614    0.650880
 O    1.861023    1.255991   -1.413449
 O    4.314171   -1.653651    1.301158
 O    4.977758    1.738280   -0.179583
 O   -4.352455   -1.449627   -1.411160
 O   -4.980629    0.172946    1.654178
 O   -2.124647    2.013284    0.864987
 H   -0.164984   -2.146969   -1.114386
 H    0.433003   -0.503824   -1.379355
 H    2.049262   -2.234194   -0.336446
 H    1.082672   -2.162108    1.125806
 H   -0.776467    0.249934    0.746985
 H   -1.352036   -1.420482    0.951123
 H   -2.514889   -1.227215   -1.134912
 H   -1.842933    0.250711   -1.422103
 H   -4.416396    0.541327   -2.018699
 H   -5.501010    0.130444   -0.659522
 H   -2.962824   -0.157729    1.986865
 H   -3.825987   -1.482018    1.139997
 H   -4.171878    2.172431    0.470434
 H   -3.106636    2.217916   -0.952493
 H    2.533581   -0.637152    1.651254
 H    1.572193    0.416423    0.777860
 H    2.654903   -0.530705   -2.046224
 H    3.816855    0.801974   -2.018931
 H    5.394418   -0.736847   -0.246761
 H    4.178442   -1.924174   -0.760095
 H    4.342700    0.937297    1.636446
 H    3.164108    1.985030    0.798188
 H    2.116352    2.117773   -1.764371
 H    5.079438   -2.204064    1.508859
 H    5.531462    2.361428    0.307056
 H   -5.058243   -1.769370   -1.987063
 H   -5.277543   -0.221637    2.483158
 H   -2.223415    2.874383    1.288624
