18 
3c39_ligand_xtb.xyz
 C    2.709119   -0.077274   -0.039496
 O    3.560798   -0.900607   -0.224368
 O    2.861731    0.978078    0.759170
 C    1.305694   -0.142350   -0.630799
 O    0.661783    1.098028   -0.681126
 C    0.489132   -1.143900    0.216386
 O   -0.833617   -1.198339   -0.242680
 P   -1.789943    0.055696    0.131237
 O   -1.322169    0.804849    1.304388
 O   -3.196035   -0.645288    0.290933
 O   -2.064113    0.835823   -1.213006
 H    3.752220    0.994868    1.145281
 H    1.362984   -0.506142   -1.661902
 H    0.636645    1.474965    0.212498
 H    0.909947   -2.147292    0.132189
 H    0.499456   -0.809735    1.260774
 H   -3.408156   -0.743572    1.217923
 H   -1.274649    1.302267   -1.498345
