56 
3c43_ligand_xtb.xyz
 C   -2.305922    0.651099    1.038863
 C   -2.567250   -0.254972   -0.185461
 C   -3.989766   -0.057930   -0.769931
 N   -5.003570   -0.681315   -0.180143
 O   -4.103129    0.663714   -1.745859
 N   -1.628444    0.109597   -1.271337
 C   -2.638452    2.147054    0.806512
 C   -6.335088   -0.607623   -0.774844
 C   -7.019829   -1.878174   -0.290402
 C   -6.400312   -2.102388    1.085957
 C   -4.945603   -1.667390    0.890198
 F   -6.679675   -2.920986   -1.121844
 C   -1.727979    2.883507   -0.154489
 C   -2.137552    3.122768   -1.585668
 C   -2.135644    4.254624   -0.601590
 C   -0.879872    0.509356    1.442520
 N    0.108195    0.321818    0.612892
 C    1.212289    0.276214    1.424370
 N    0.885006    0.438021    2.680227
 O   -0.461055    0.587293    2.695837
 C    2.551714    0.051260    0.927694
 C    3.622220   -0.065107    1.818700
 C    4.893945   -0.325766    1.345819
 C    5.103466   -0.461034   -0.015780
 C    4.067488   -0.344515   -0.921729
 C    2.798620   -0.091030   -0.440811
 F    1.773418    0.008521   -1.314970
 S    6.748031   -0.904292   -0.643143
 O    6.578306   -1.301354   -2.009435
 O    7.315020   -1.828816    0.291326
 C    7.666701    0.653088   -0.580300
 H   -2.925637    0.307774    1.871396
 H   -2.404389   -1.299689    0.094910
 H   -0.661759    0.222349   -0.823856
 H   -1.969662    1.008449   -1.674789
 H   -1.612514   -0.589310   -2.017692
 H   -2.587048    2.640313    1.780863
 H   -3.668665    2.221332    0.456073
 H   -6.253805   -0.562742   -1.862456
 H   -6.862516    0.281003   -0.419612
 H   -8.110087   -1.820209   -0.290770
 H   -6.905798   -1.472989    1.816103
 H   -6.479143   -3.141984    1.394579
 H   -4.526277   -1.241847    1.803517
 H   -4.337092   -2.523450    0.580110
 H   -0.670086    2.744523    0.034865
 H   -3.103599    2.773479   -1.921612
 H   -1.372500    3.130406   -2.348920
 H   -1.375111    5.013411   -0.688916
 H   -3.087925    4.633775   -0.266461
 H    3.423578    0.038239    2.873451
 H    5.724344   -0.456605    2.020864
 H    4.257127   -0.479759   -1.974857
 H    7.709273    0.985535    0.448416
 H    7.161992    1.370675   -1.213646
 H    8.664627    0.456393   -0.954151
