56 
3c43_ligand_dft.xyz
 C   -2.323710    0.546856    0.968186
 C   -2.623534   -0.186515   -0.360248
 C   -4.080035   -0.004937   -0.818869
 N   -5.014190   -0.756289   -0.222914
 O   -4.310845    0.832815   -1.685279
 N   -1.771890    0.359655   -1.464045
 C   -2.707437    2.051840    1.010355
 C   -6.415566   -0.653331   -0.663109
 C   -7.012590   -1.982095   -0.227379
 C   -6.221052   -2.342164    1.021994
 C   -4.795619   -1.921430    0.653516
 F   -6.734649   -2.926950   -1.203640
 C   -1.877714    2.985472    0.148341
 C   -2.350336    3.448207   -1.227620
 C   -2.367766    4.386710   -0.054387
 C   -0.879541    0.361642    1.317763
 N    0.088543    0.141921    0.481687
 C    1.202045    0.136156    1.296375
 N    0.915685    0.344261    2.555972
 O   -0.467196    0.488918    2.567107
 C    2.571495   -0.090054    0.826247
 C    3.571056   -0.456402    1.737334
 C    4.871272   -0.679542    1.310870
 C    5.173799   -0.526315   -0.039301
 C    4.209554   -0.167466   -0.970149
 C    2.918677    0.046648   -0.519890
 F    1.987996    0.401805   -1.420318
 S    6.852349   -0.837931   -0.617645
 O    6.764487   -1.079874   -2.051226
 O    7.440534   -1.807736    0.294431
 C    7.663344    0.736982   -0.363246
 H   -2.917285    0.044204    1.738264
 H   -2.359180   -1.242871   -0.258822
 H   -0.773038    0.266274   -1.177265
 H   -2.000974    1.357050   -1.595821
 H   -1.953385   -0.118975   -2.348909
 H   -2.611740    2.364844    2.055988
 H   -3.768286    2.147129    0.753191
 H   -6.469312   -0.511159   -1.743490
 H   -6.904546    0.193664   -0.171296
 H   -8.093706   -1.942375   -0.080866
 H   -6.586262   -1.759733    1.873525
 H   -6.298662   -3.403273    1.262445
 H   -4.204721   -1.662979    1.535882
 H   -4.286561   -2.720801    0.103374
 H   -0.800310    2.885915    0.270392
 H   -3.309809    3.089952   -1.592726
 H   -1.603085    3.631161   -1.996074
 H   -1.639568    5.189700   -0.031462
 H   -3.337218    4.645515    0.360933
 H    3.310031   -0.580179    2.782908
 H    5.638554   -0.998297    2.007982
 H    4.448728   -0.077677   -2.024198
 H    7.640770    0.986465    0.698919
 H    7.165413    1.500462   -0.963176
 H    8.695525    0.607792   -0.697597
