16 
3c52_ligand_xtb.xyz
 C   -1.371514    0.285278   -0.356406
 C   -0.471816    1.507554   -0.414449
 N   -2.523524    0.437215    0.299731
 O   -3.358127   -0.669235    0.440459
 O   -1.093499   -0.762751   -0.921817
 O    0.846396    1.107404   -0.673816
 O    1.574274   -1.347225   -0.784701
 O    2.862240    0.258152    0.528786
 O    0.543473   -0.361201    1.418871
 P    1.367836   -0.146795    0.235049
 H   -0.525828    2.058605    0.529148
 H   -0.776761    2.154884   -1.242934
 H   -2.735767    1.161424    0.966305
 H   -2.859731   -1.400775    0.024404
 H    0.713768   -1.669853   -1.070696
 H    3.393378    0.278983   -0.267204
