41 
3c5u_ligand_xtb.xyz
 C    1.573429    1.140181    0.191230
 C    5.542105   -2.163976    0.709311
 C    5.877834   -1.181622   -1.585820
 C    3.885206    0.326105    0.158040
 C   -2.094759    1.506387   -0.167375
 C    5.991203   -0.937901   -0.082825
 C    1.801746   -0.142529   -0.357947
 C   -3.204314   -1.352700    0.773291
 C   -5.418190   -2.119123   -0.666788
 C   -4.765669   -3.040244    0.136584
 C   -4.954277   -0.820548   -0.755375
 C   -0.542959   -0.322943   -0.785507
 C    0.720937   -0.865353   -0.851403
 C   -3.655965   -2.654379    0.868792
 C    0.312769    1.686766    0.258949
 C   -3.561404    3.068454   -0.222056
 C   -0.762360    0.941238   -0.224566
 C   -3.822501   -0.414346   -0.050912
 C   -3.364490    0.963847   -0.149522
 N   -4.271195    1.994011   -0.199770
 N    3.102141   -0.551148   -0.355200
 N    5.211295    0.231629    0.299518
 O   -2.242360    2.858821   -0.203165
 F   -2.146912   -0.986833    1.531482
 S    3.084955    1.829974    0.724324
 H    5.628641   -1.980691    1.777845
 H    4.505538   -2.385913    0.473113
 H    6.157754   -3.020430    0.450164
 H    4.844084   -1.396918   -1.839269
 H    6.201032   -0.303080   -2.139281
 H    6.499019   -2.024890   -1.873510
 H    7.030490   -0.701293    0.169659
 H   -6.293272   -2.414793   -1.225276
 H   -5.124503   -4.055844    0.204463
 H   -5.458770   -0.092224   -1.370574
 H   -1.380892   -0.873019   -1.186129
 H    0.890047   -1.839030   -1.282400
 H   -3.141438   -3.343293    1.520094
 H    0.151782    2.664713    0.684516
 H   -3.930609    4.073830   -0.251563
 H    5.677188    0.998884    0.752519
