25 
3c79_ligand_dft.xyz
 C   -1.186549    0.457920    1.318856
 C   -2.464793    0.637234    0.810211
 C   -2.942868   -0.330940   -0.069313
Cl   -4.548423   -0.142037   -0.735913
 N   -2.268910   -1.399692   -0.448418
 C   -1.043429   -1.554762    0.052933
 C   -0.448447   -0.661310    0.940057
 C    0.945797   -0.905689    1.464059
 N    1.946436   -0.972957    0.404107
 C    2.923019   -1.932816    0.280063
 C    3.667013   -1.581546   -0.813198
 N    3.196424   -0.416748   -1.357719
 C    2.181749   -0.081710   -0.600621
 N    1.336012    1.000152   -0.885570
 N    1.376225    2.130229   -0.076334
 O    0.964601    3.154323   -0.582507
 O    1.750219    1.977219    1.074350
 H   -0.758954    1.194203    1.993929
 H   -3.069313    1.496329    1.074119
 H   -0.504256   -2.439680   -0.281117
 H    0.989776   -1.865461    1.986608
 H    1.228855   -0.121892    2.169917
 H    2.996330   -2.754130    0.976804
 H    4.515161   -2.098466   -1.237859
 H    1.314755    1.286226   -1.857377
