25 
3c79_ligand_xtb.xyz
 C   -1.194189    0.354777    1.503623
 C   -2.466711    0.433293    0.969609
 C   -2.789920   -0.455234   -0.050915
Cl   -4.348711   -0.412628   -0.766650
 N   -1.956955   -1.357839   -0.526139
 C   -0.745605   -1.427529   -0.007514
 C   -0.300440   -0.594275    1.012886
 C    1.103007   -0.703034    1.548994
 N    2.071953   -0.763406    0.480853
 C    3.109347   -1.647483    0.381053
 C    3.742059   -1.377728   -0.798058
 N    3.125767   -0.347416   -1.427229
 C    2.142037    0.003930   -0.639590
 N    1.231117    1.004013   -0.965080
 N    0.951280    2.073801   -0.171212
 O    0.237482    2.909770   -0.658659
 O    1.395360    2.061562    0.948745
 H   -0.889567    1.031796    2.288334
 H   -3.183536    1.157498    1.318427
 H   -0.102632   -2.184504   -0.437667
 H    1.208725   -1.618018    2.140225
 H    1.317778    0.158911    2.190927
 H    3.306425   -2.373797    1.141623
 H    4.596186   -1.852037   -1.234802
 H    1.052321    1.139814   -1.953591
