60 
3c7p_ligand_xtb.xyz
 O   -6.811998   -1.090916    1.802971
 O   -6.463560    0.827882    0.276877
 O    4.254177   -2.578205   -0.729717
 O   -7.238765   -1.351766   -0.605200
 C   -5.105305    0.789521    0.029849
 C   -4.381744   -0.386670    0.029321
 N   -8.733274    0.137139    0.755847
 C   -3.013092   -0.380012   -0.223371
 C   -2.351256    0.823462   -0.461535
 C   -3.106383    1.993027   -0.488839
 S   -7.238230   -0.535343    0.562389
 C   -4.464728    1.991233   -0.244214
 C   -2.292573   -1.698027   -0.236964
 C   -0.950047   -1.609704   -0.952594
 C   -0.161644   -0.439968   -0.368580
 C   -0.864759    0.870500   -0.749770
 C    1.300849   -0.393904   -0.839067
 C    2.056366    0.786482   -0.204914
 C    1.307670    2.094701   -0.484607
 C   -0.152829    2.034748   -0.052965
 C    2.320555    0.626325    1.300243
 C    2.057655   -1.684875   -0.549440
 C    3.552734   -1.593286   -0.741390
 N    4.093596   -0.344790   -0.977847
 C    3.427876    0.863814   -0.853704
 O    3.945456    1.895857   -1.204400
 C    5.516485   -0.287938   -1.331171
 C    6.352426   -0.161124   -0.087663
 C    6.869588   -1.281746    0.551396
 C    7.600350   -1.111738    1.715810
 C    7.776581    0.175795    2.199503
 N    7.281793    1.247626    1.604114
 C    6.590799    1.082592    0.491211
 H   -4.889057   -1.318316    0.220271
 H   -9.097068    0.004559    1.682933
 H   -9.376417   -0.144218    0.037026
 H   -2.632643    2.934683   -0.716859
 H   -5.037539    2.903862   -0.265630
 H   -2.927572   -2.448133   -0.711369
 H   -2.131502   -2.020232    0.796682
 H   -0.418170   -2.551519   -0.822056
 H   -1.106334   -1.451221   -2.021386
 H   -0.176691   -0.540598    0.721062
 H   -0.751013    1.012509   -1.833805
 H    1.298011   -0.232876   -1.925331
 H    1.354766    2.298437   -1.557077
 H    1.817309    2.915573    0.020991
 H   -0.618879    2.984011   -0.312102
 H   -0.232429    1.914820    1.028255
 H    1.392023    0.507746    1.850480
 H    2.960324   -0.228085    1.508514
 H    2.825229    1.516184    1.671413
 H    1.726205   -2.493780   -1.203937
 H    1.877009   -2.017919    0.475966
 H    5.652152    0.581640   -1.976966
 H    5.760793   -1.207513   -1.865738
 H    6.691116   -2.265905    0.143367
 H    8.020462   -1.958669    2.236019
 H    8.337125    0.363200    3.106141
 H    6.203738    1.985334    0.036580
