25 
3c84_ligand_dft.xyz
 C   -1.959941   -1.324579    0.963223
 C   -3.168489   -1.024803    0.351177
 C   -3.315061    0.260082   -0.166343
Cl   -4.820886    0.680601   -0.950349
 N   -2.394370    1.201652   -0.109903
 C   -1.239171    0.896198    0.484446
 C   -0.961585   -0.354081    1.039336
 C    0.385459   -0.643260    1.662401
 N    1.423923   -0.891040    0.668918
 C    1.322601   -2.041287   -0.214266
 C    2.666565   -2.136799   -0.930649
 S    3.205046   -0.406735   -1.160230
 C    2.204793    0.116098    0.205046
 N    2.178971    1.298212    0.731428
 C    3.023102    2.228797    0.286335
 N    3.724904    3.094107   -0.054138
 H   -1.798130   -2.313037    1.386997
 H   -3.969482   -1.750184    0.275829
 H   -0.494705    1.688327    0.521589
 H    0.323062   -1.528499    2.304541
 H    0.723179    0.196741    2.271877
 H    0.499438   -1.905711   -0.929828
 H    1.122763   -2.940535    0.376718
 H    2.578656   -2.623606   -1.902382
 H    3.405901   -2.664679   -0.324094
