76 
3c8b_ligand_dft.xyz
 N    0.047119    1.316041    0.519445
 C    0.469840    1.937537   -0.772746
 C    1.387452    0.982657   -1.550270
 O    1.130823    0.680794   -2.708587
 C    1.115437    3.309865   -0.568095
 C    0.303976    4.337318    0.242107
 C   -1.189340    4.434815   -0.103035
 N   -1.965388    3.510992    0.732260
 C   -3.195565    2.978453    0.337516
 N   -3.652736    2.859053   -0.856506
 N   -3.891202    2.392921    1.374520
 N    2.468914    0.542147   -0.869579
 C    3.360728   -0.491098   -1.388831
 C    2.665847   -1.839269   -1.088980
 O    2.996980   -2.578616   -0.170829
 C    4.808449   -0.408482   -0.839026
 C    5.122612    0.676206    0.211693
 C    5.157441    0.184450    1.670650
 N    4.060794   -0.672583    2.086484
 C    2.757868   -0.303551    2.149305
 N    1.877843   -1.340160    2.236678
 N    2.314032    0.934840    2.112139
 N    1.606614   -2.076274   -1.906429
 C    0.544193   -2.974113   -1.526569
 C   -0.526966   -2.207414   -0.739535
 O   -0.184050   -1.476624    0.192453
 N   -1.800492   -2.405445   -1.119536
 C   -2.979270   -1.763641   -0.541440
 C   -3.000446   -0.285501   -0.934556
 O   -1.983631    0.362657   -1.100581
 C   -3.091560   -1.955322    0.997231
 C   -2.862264   -3.424585    1.395780
 C   -4.430024   -1.424854    1.522140
 C   -3.808446   -4.438394    0.752854
 O   -4.215681    0.205335   -1.052194
 H   -0.738103    1.878076    0.881863
 H    0.836852    1.255978    1.235177
 H   -0.309104    0.358830    0.334187
 H   -0.438011    2.008490   -1.370547
 H    1.300836    3.707697   -1.572230
 H    2.097680    3.190785   -0.096600
 H    0.407141    4.134590    1.316310
 H    0.768242    5.315361    0.084006
 H   -1.549741    5.460440    0.035016
 H   -1.347525    4.183536   -1.154738
 H   -1.955262    3.803369    1.703524
 H   -3.038416    3.230769   -1.572083
 H   -4.846748    2.165831    1.134388
 H   -3.800327    2.786621    2.300275
 H    2.512593    0.737500    0.129705
 H    3.376029   -0.351159   -2.473159
 H    5.465536   -0.250572   -1.697249
 H    5.059862   -1.393183   -0.433203
 H    4.439906    1.525050    0.105588
 H    6.116590    1.087156    0.007249
 H    5.236815    1.040943    2.350805
 H    6.065032   -0.404121    1.826149
 H    4.230326   -1.667151    2.068686
 H    2.084043   -2.136744    1.641444
 H    0.904460   -1.079750    2.196956
 H    3.061963    1.608487    2.255616
 H    1.367958   -1.335259   -2.561214
 H    0.964803   -3.740914   -0.870478
 H    0.138042   -3.465132   -2.415534
 H   -1.957473   -2.987401   -1.928665
 H   -3.847627   -2.240316   -1.004586
 H   -2.288362   -1.370040    1.456020
 H   -2.963401   -3.481976    2.486019
 H   -1.825438   -3.703711    1.177748
 H   -4.501885   -0.340339    1.416060
 H   -5.282335   -1.866442    0.995606
 H   -4.528924   -1.666748    2.584914
 H   -4.858957   -4.198837    0.945526
 H   -3.622776   -5.438377    1.154922
 H   -3.670582   -4.498360   -0.333086
 H   -4.137487    1.207478   -1.145961
