47 
3cbs_ligand_xtb.xyz
 C    5.929761   -0.520108   -0.525980
 C    5.022110   -1.338892    0.150121
 C    3.783280   -0.816084    0.524559
 C    3.436049    0.495491    0.170816
 C    4.360991    1.305771   -0.506242
 C    5.595374    0.789910   -0.841773
 C    2.126008    1.069801    0.469205
 C    0.958091    0.479844    0.165299
 C   -0.370565    0.989209    0.385332
 C   -1.424208    0.222120   -0.006162
 C   -2.801306    0.548039    0.139602
 C   -3.792532   -0.275631   -0.270557
 C   -5.206346   -0.035258   -0.144070
 C   -6.066170   -0.999593   -0.545196
 C   -7.536671   -0.987563   -0.494052
 C   -5.654053    1.296978    0.390464
 C   -0.580235    2.322877    1.040850
 C    4.011990    2.712212   -0.892786
 C    2.862008   -1.647304    1.374113
 O    7.169548   -0.945987   -0.894430
 O   -8.228405   -1.453819   -1.359799
 O   -8.105809   -0.454735    0.616148
 C    5.414591   -2.762548    0.453836
 H    6.325563    1.388864   -1.363016
 H    2.147069    2.058570    0.907559
 H    0.995178   -0.486006   -0.322879
 H   -1.214740   -0.731797   -0.474418
 H   -3.042587    1.489351    0.609909
 H   -3.518360   -1.221755   -0.719877
 H   -5.672957   -1.880950   -1.033285
 H   -6.703851    1.485803    0.183756
 H   -5.479984    1.362810    1.465613
 H   -5.079339    2.088437   -0.086736
 H   -1.304532    2.914289    0.484381
 H   -0.957457    2.188707    2.054790
 H    0.342497    2.890083    1.097142
 H    3.075448    2.738884   -1.447774
 H    3.896350    3.336773   -0.006500
 H    4.796475    3.141385   -1.510255
 H    2.389147   -2.435563    0.788270
 H    3.418270   -2.113729    2.185328
 H    2.079412   -1.033189    1.809109
 H    7.310557   -1.849555   -0.588728
 H   -7.441539   -0.193038    1.265923
 H    5.879463   -3.228139   -0.417485
 H    6.118398   -2.806133    1.287779
 H    4.549847   -3.363389    0.711745
