47 
3cbs_ligand_dft.xyz
 C    6.007128   -0.443821   -0.505473
 C    5.119882   -1.318897    0.128060
 C    3.842746   -0.850031    0.486151
 C    3.451489    0.461153    0.150250
 C    4.367658    1.322141   -0.492187
 C    5.634157    0.861370   -0.809824
 C    2.105232    0.997921    0.435894
 C    0.944347    0.392185    0.137305
 C   -0.392282    0.929573    0.392663
 C   -1.460787    0.185815    0.021713
 C   -2.861951    0.517143    0.172911
 C   -3.852986   -0.301881   -0.229838
 C   -5.286112   -0.041363   -0.092048
 C   -6.147890   -0.985320   -0.525857
 C   -7.635947   -0.937264   -0.526172
 C   -5.706097    1.286502    0.491241
 C   -0.490886    2.280575    1.049535
 C    3.978536    2.734311   -0.855782
 C    2.933143   -1.763540    1.279397
 O    7.270526   -0.808381   -0.859957
 O   -8.299347   -1.318259   -1.454985
 O   -8.243028   -0.468798    0.593689
 C    5.570892   -2.735152    0.405812
 H    6.355650    1.502693   -1.306617
 H    2.075729    1.993294    0.877017
 H    0.976300   -0.582241   -0.348681
 H   -1.261183   -0.777500   -0.447861
 H   -3.114984    1.467564    0.634910
 H   -3.586525   -1.253666   -0.688302
 H   -5.757149   -1.868073   -1.024940
 H   -6.782052    1.453644    0.426290
 H   -5.398112    1.370900    1.540549
 H   -5.216119    2.100285   -0.053134
 H   -1.520378    2.605846    1.204169
 H    0.007382    2.270362    2.025728
 H    0.010676    3.040259    0.438642
 H    3.061852    2.754674   -1.455089
 H    3.794492    3.344548    0.037410
 H    4.771489    3.221569   -1.429423
 H    2.474014   -2.535379    0.648677
 H    3.489522   -2.277598    2.069266
 H    2.124265   -1.207416    1.753957
 H    7.460336   -1.691222   -0.523486
 H   -7.582903   -0.356439    1.290569
 H    6.076044   -3.170731   -0.466564
 H    6.262041   -2.793405    1.258055
 H    4.732782   -3.396972    0.626383
