77 
3cct_ligand_xtb.xyz
 N    0.409630   -1.340835   -0.374921
 C    0.128184    0.001437   -0.379020
 C   -0.787068   -3.546603   -0.449286
 C    1.749094   -1.868790   -0.449117
 C    2.278671   -2.387965    0.895005
 C    4.519730   -1.194134    0.978619
 C   -1.662584   -4.089672    0.682912
 C    3.011171    2.154658    0.699391
 C   -6.262883   -1.183459   -0.018664
 C   -7.604180   -0.882773    0.150774
 C    1.273342    1.914717   -1.457545
 C   -3.705408    2.792971   -1.452815
 C    2.258724    2.883664   -1.480900
 C   -5.680514    0.751405    1.291370
 C   -3.328718    3.855413   -0.647612
 O    6.039165    0.897791   -0.872451
 C    6.313922    1.097538    0.285772
 O    6.291111    2.301691    0.840645
 C    6.719198    0.023788    1.267646
 C    6.050368   -1.325072    0.937847
 O    6.498752   -1.812518   -0.304836
 C    3.807636   -2.552185    0.857966
 O    4.136987   -3.230388   -0.328005
 C    1.159972    1.040868   -0.377820
 C    3.122378    2.975730   -0.406376
 F    4.122341    3.895343   -0.432555
 C    2.024992    1.186739    0.704502
 C   -0.754135   -2.049696   -0.429821
 C   -1.288684   -4.046608   -1.807463
 C   -1.804643   -1.147261   -0.445485
 C   -1.240125    0.163070   -0.430025
 C   -1.951640    1.437325   -0.506256
 C   -3.020661    1.595402   -1.388059
 C   -2.259721    3.713305    0.220591
 C   -1.576279    2.514250    0.293395
 C   -3.255578   -1.421472   -0.437567
 O   -3.802168   -2.281944   -1.102297
 N   -3.919302   -0.587233    0.418662
 C   -5.288216   -0.372669    0.545170
 O   -4.689248    1.527760    1.839402
 C   -7.021909    1.041664    1.453406
 C   -7.986480    0.224733    0.883250
 H    0.229102   -3.921702   -0.299490
 H    2.392852   -1.064844   -0.810129
 H    1.791693   -2.676573   -1.182067
 H    1.829442   -3.356586    1.113805
 H    2.007714   -1.704489    1.699941
 H    4.230984   -0.730941    1.922551
 H    4.207519   -0.544827    0.159395
 H   -1.343407   -3.688360    1.643121
 H   -2.700957   -3.820290    0.518429
 H   -1.591159   -5.174241    0.718630
 H    3.683341    2.276045    1.534771
 H   -5.957310   -2.040241   -0.595160
 H   -8.351670   -1.521394   -0.294148
 H    0.588778    1.820983   -2.286209
 H   -4.537345    2.898306   -2.133862
 H    2.369382    3.553738   -2.318293
 H   -3.866437    4.791056   -0.697667
 H    6.013156    2.987218    0.206583
 H    6.481563    0.350196    2.278998
 H    7.803174   -0.096410    1.191052
 H    6.374372   -2.068943    1.676480
 H    6.341655   -1.111887   -0.960247
 H    4.111449   -3.164728    1.727391
 H    5.080913   -3.083182   -0.504448
 H    1.914283    0.544306    1.564341
 H   -0.649293   -3.682320   -2.609059
 H   -2.300876   -3.691879   -1.977299
 H   -1.286425   -5.133803   -1.828153
 H   -3.310271    0.771283   -2.023944
 H   -1.960786    4.539075    0.850339
 H   -0.753813    2.401399    0.984762
 H   -3.366534    0.103338    0.909462
 H   -5.089223    2.284336    2.281899
 H   -7.312615    1.912736    2.026474
 H   -9.031170    0.460992    1.016183
