72 
3ccz_ligand_dft.xyz
 N   -0.255165    0.069659   -1.159125
 N    1.793166    0.537469   -0.460605
 C    0.626984    1.047951   -0.766455
 C   -0.269410   -2.449551   -1.422504
 C   -1.686076    0.238814   -1.384419
 C   -2.503730   -0.121272   -0.144993
 C   -4.813114   -0.572106    0.773005
 C    0.369126   -3.094897   -2.660831
 C    0.313460    4.523897    0.633818
 C    5.828599    0.302970    1.805603
 C    6.690511    1.278303    2.297639
 C   -0.223907    3.196301   -1.758876
 C   -0.502024    4.553823   -1.650896
 C    7.419592   -0.235474    0.085269
 O    2.827545   -2.908878   -0.608156
 C    2.849263   -1.685828   -0.420354
 N    3.931095   -1.011034    0.023555
 C    5.274769   -1.562937    0.187473
 C    5.329197   -2.782038    1.143914
 O    5.043629   -4.000593    0.524947
 C    6.183908   -0.462719    0.691362
 C    8.284210    0.737204    0.577685
 C    7.921214    1.497998    1.685356
 C    1.674903   -0.817870   -0.656650
 C    0.401253   -1.142297   -1.083167
 C   -0.274708   -3.408054   -0.222778
 C    0.304215    2.484490   -0.676811
 C   -0.231895    5.194232   -0.451025
 F   -0.500018    6.503120   -0.339154
 C    0.579076    3.165634    0.512605
 C   -3.994396   -0.169787   -0.459564
 O   -4.156802   -1.090249   -1.517563
 C   -6.314948   -0.410902    0.568717
 O   -6.692617   -1.200157   -0.548650
 C   -7.106804   -0.830571    1.810415
 C   -8.592400   -0.667330    1.612216
 O   -9.142979   -0.537805    0.537330
 O   -9.272071   -0.691727    2.763902
 H   -1.315608   -2.235438   -1.665588
 H   -1.866661    1.279437   -1.656184
 H   -1.991467   -0.375381   -2.232031
 H   -2.195404   -1.104811    0.227827
 H   -2.304820    0.611197    0.646555
 H   -4.510900    0.041307    1.631068
 H   -4.586633   -1.619102    1.011957
 H    0.323718   -2.419451   -3.521843
 H   -0.165850   -4.015170   -2.919158
 H    1.414316   -3.341498   -2.460074
 H    0.519833    5.063495    1.551426
 H    4.869362    0.135292    2.288952
 H    6.400308    1.866302    3.163574
 H   -0.396412    2.691788   -2.705137
 H   -0.907588    5.118373   -2.482963
 H    7.705929   -0.825315   -0.781784
 H    3.822918   -0.003426    0.044271
 H    5.642269   -1.921608   -0.783446
 H    4.665999   -2.568975    2.000408
 H    6.350221   -2.859488    1.530585
 H    4.186795   -3.876368    0.074191
 H    9.241076    0.903619    0.091760
 H    8.594136    2.259406    2.068394
 H   -0.756283   -2.949801    0.648394
 H   -0.828051   -4.318090   -0.478209
 H    0.747256   -3.682594    0.046465
 H    1.011478    2.619275    1.344332
 H   -4.321650    0.838560   -0.776761
 H   -5.109023   -1.273302   -1.578595
 H   -6.529481    0.649743    0.360065
 H   -7.639560   -1.038533   -0.690250
 H   -6.800007   -0.262259    2.694323
 H   -6.914837   -1.889486    2.025370
 H  -10.213741   -0.611059    2.538707
