76 
3cd5_ligand_xtb.xyz
 N    1.640354    0.517282    0.511585
 C    1.176111    4.085581    0.799334
 C    1.160632    1.704840    0.020471
 C    0.844935   -1.855671    0.813906
 C    2.966848    0.293659    1.020033
 C    3.972351    0.038709   -0.107449
 C    6.355916   -0.593712   -0.652421
 C    0.458818   -2.026851    2.286471
 C   -8.966094   -1.423292   -1.273016
 C   -4.657945   -1.273750   -0.601662
 C   -6.020000   -1.494224   -0.630936
 C  -11.119015   -1.266015   -0.225748
 C   -8.369226   -0.791500   -0.183985
 C  -10.537119   -0.639040    0.863265
 C   -5.054097    0.888748    0.365341
 O   -1.805691   -1.681662   -0.838294
 C   -1.718400   -0.549824   -0.403255
 N   -2.799366    0.216823   -0.036303
 C   -4.157723   -0.074646   -0.099483
 C   -6.412302    0.655639    0.338392
 C   -6.921711   -0.541980   -0.160177
 C   -9.175474   -0.402364    0.883931
 C  -10.328334   -1.656366   -1.293565
 C   -0.445558    0.148085   -0.169513
 C    0.686055   -0.443273    0.365406
 C    1.908430    2.994481    0.005093
 C   -0.026842    4.688686    0.073460
 C   -1.225747    3.753862   -0.087580
 C   -0.958013    2.584188   -1.042603
 C   -0.131267    1.516774   -0.400483
 C    5.336856   -0.349397    0.469927
 O    5.156570   -1.495410    1.263673
 C    7.784466   -0.719592   -0.114586
 O    7.850005   -1.837702    0.738766
 C    8.791495   -0.855399   -1.273989
 C   10.205466   -0.899155   -0.757742
 O   10.544060   -1.399202    0.286503
 O   11.067826   -0.314063   -1.585565
 H    0.854332    3.675156    1.759068
 H    1.882339    4.894639    1.004121
 H    0.185419   -2.471676    0.201897
 H    1.870711   -2.194562    0.660567
 H    2.961826   -0.576678    1.675776
 H    3.280655    1.158103    1.611926
 H    4.072061    0.926365   -0.733359
 H    3.606247   -0.781979   -0.725912
 H    6.087958   -1.518540   -1.165670
 H    6.317511    0.231127   -1.363866
 H    1.076757   -1.404303    2.930784
 H   -0.581934   -1.746994    2.433144
 H    0.582549   -3.064071    2.587549
 H   -8.357886   -1.715209   -2.116824
 H   -3.972354   -2.023246   -0.959562
 H   -6.390935   -2.436902   -1.005655
 H  -12.183369   -1.449870   -0.241822
 H  -11.147880   -0.335873    1.701757
 H   -4.675671    1.827627    0.747940
 H   -2.578952    1.113393    0.374155
 H   -7.090243    1.420734    0.688226
 H   -8.725839    0.070566    1.745203
 H  -10.777068   -2.143032   -2.147725
 H    2.904834    2.860588    0.426352
 H    2.031630    3.333700   -1.028661
 H    0.289487    5.032878   -0.914567
 H   -0.353715    5.568217    0.635328
 H   -1.515725    3.369679    0.894230
 H   -2.061768    4.342080   -0.475186
 H   -0.427106    2.968493   -1.919519
 H   -1.901225    2.167609   -1.399076
 H    5.703697    0.481793    1.101360
 H    6.026247   -1.905170    1.382476
 H    8.033250    0.193074    0.455562
 H    8.778536   -1.963874    0.992122
 H    8.597605   -1.796800   -1.795197
 H    8.693721   -0.036633   -1.985001
 H   11.974162   -0.368041   -1.240600
