46 
3cd8_ligand_dft.xyz
 N   -1.597645    0.785205    0.476172
 N   -4.753710   -0.309900   -0.633969
 C   -0.126368    2.590032    0.004631
 C   -0.058929    3.982315    0.110858
 C    1.169598    4.612011    0.276376
 C   -1.430524    1.907208   -0.176408
 C   -2.419474    2.463694   -1.066970
 C   -3.779445    0.577505   -0.613481
 C   -0.497505   -2.187820    0.519578
 C   -0.279427   -2.923623   -1.740599
 C    1.568497   -2.032120   -0.744454
 C    2.864926   -0.873288    1.460037
 C    1.561830   -1.263854    1.580534
 C    5.552860   -0.664303   -0.979741
 O    4.815218   -0.548752    0.218724
 C    3.547475   -1.029419    0.224456
 C    2.918313   -1.608873   -0.853115
 C    0.880120   -1.839562    0.478321
 N    0.983630   -2.583713   -1.847569
 C   -1.083783   -2.745967   -0.593114
 O   -1.121672   -1.908611    1.683027
 C   -2.532707   -1.911243    1.737232
 C   -3.207780   -1.038045    0.724318
 N   -2.773208    0.161261    0.239861
 N   -4.380274   -1.317770    0.197472
 C   -3.585008    1.807010   -1.291876
 C    1.050397    1.839037    0.054820
 C    2.277885    2.470704    0.215876
 C    2.339099    3.857364    0.327771
 H   -0.969474    4.575520    0.090627
 H    1.212802    5.692813    0.370035
 H   -2.192278    3.391216   -1.579185
 H   -0.732682   -3.367575   -2.625631
 H    3.399546   -0.417871    2.286745
 H    1.026059   -1.115164    2.510571
 H    5.679413   -1.714523   -1.269915
 H    5.068373   -0.119187   -1.799527
 H    6.529188   -0.223494   -0.776177
 H    3.401096   -1.755305   -1.811285
 H   -2.128405   -3.031382   -0.622737
 H   -2.761803   -1.567543    2.748980
 H   -2.943697   -2.920650    1.618162
 H   -4.349676    2.166206   -1.970270
 H    0.997950    0.761396   -0.045333
 H    3.185407    1.875119    0.252789
 H    3.297975    4.351170    0.454050
