42 
3cf1_ligand_xtb.xyz
 P    0.460617   -2.072961   -0.903058
 O    0.980994   -3.002140   -2.067602
 O    1.103352   -2.721414    0.352816
 O    0.626452   -0.638165   -1.124650
 P   -2.102195   -1.886964    0.201882
 O   -3.431462   -2.717326   -0.061941
 O   -1.644532   -1.917928    1.586467
 O   -1.108205   -2.506193   -0.870506
 O   -2.427534   -0.467136   -0.423354
 C   -3.315217    0.360222    0.324300
 C   -2.744848    1.768076    0.514321
 O   -1.661526    1.743757    1.436897
 C   -2.235891    2.417721   -0.783306
 O   -2.598172    3.769427   -0.815526
 C   -0.712434    2.243014   -0.689988
 O   -0.056244    3.318891   -1.291404
 C   -0.476298    2.174833    0.839720
 N    0.603928    1.264627    1.130173
 C    0.577961    0.111772    1.842706
 N    1.681172   -0.582059    1.752814
 C    2.498492    0.150265    0.923960
 C    3.771790   -0.058956    0.369334
 N    4.537712   -1.125376    0.664192
 N    4.252983    0.861773   -0.471255
 C    3.516878    1.916461   -0.766547
 N    2.305259    2.219249   -0.331849
 C    1.821987    1.307299    0.514977
 H    0.912221   -2.558864   -2.912369
 H    1.320226   -2.043340    1.056360
 H   -3.472313   -3.488125    0.503747
 H   -4.263103    0.417386   -0.217052
 H   -3.479476   -0.077764    1.312332
 H   -3.533919    2.397713    0.945363
 H   -2.639823    1.897840   -1.661367
 H   -1.844049    4.247779   -1.194333
 H   -0.417695    1.283164   -1.130341
 H    0.904439    3.167879   -1.168145
 H   -0.198610    3.175084    1.219793
 H   -0.278355   -0.189868    2.410585
 H    5.380824   -1.260967    0.134418
 H    4.127851   -1.893991    1.164032
 H    3.958555    2.619005   -1.460351
