42 
3cf1_ligand_dft.xyz
 P   46.328714    4.403241   43.455826
 O   46.818507    5.296277   44.500202
 O   46.792593    4.765805   41.971430
 O   46.619636    2.851301   43.674874
 P   43.868144    3.622485   42.229482
 O   44.807924    2.818321   41.413658
 O   42.793117    2.755196   42.996847
 O   44.673133    4.468953   43.344810
 O   43.051360    4.723622   41.417338
 C   42.793906    6.045118   41.897364
 C   41.648032    6.085704   42.907674
 O   41.861815    5.109219   43.950059
 C   41.596967    7.435207   43.615491
 O   40.284197    7.688498   44.043023
 C   42.511460    7.186664   44.812569
 O   42.299246    8.135653   45.804435
 C   42.097556    5.757413   45.199336
 N   43.116980    5.043822   45.935310
 C   43.230272    3.671645   46.060939
 N   44.302547    3.281609   46.686070
 C   44.935703    4.461093   47.020283
 C   46.155335    4.727540   47.669951
 N   46.960411    3.740869   48.113548
 N   46.513703    6.001951   47.879647
 C   45.706254    6.965497   47.440549
 N   44.548660    6.848605   46.788996
 C   44.220277    5.563956   46.581065
 H   46.420691    4.138489   41.321979
 H   46.231523    2.304928   42.966720
 H   42.168793    3.365478   43.444413
 H   43.712326    6.458683   42.322319
 H   42.518641    6.628195   41.016290
 H   40.697199    5.847663   42.424935
 H   41.978456    8.247425   42.979385
 H   40.359707    8.297141   44.793920
 H   43.558926    7.164872   44.485423
 H   43.076157    8.040292   46.398193
 H   41.164013    5.771604   45.770382
 H   42.477609    3.007644   45.660109
 H   47.896879    3.999676   48.383802
 H   46.805954    2.806668   47.766795
 H   46.032678    7.981978   47.643555
