32 
3cf8_ligand_xtb.xyz
 C    4.378069   -0.875584   -0.013331
 C    3.780046    0.371524    0.012094
 C    2.363761    0.461647    0.009636
 C    1.594470   -0.709695   -0.016082
 C    2.210279   -1.955972   -0.040478
 C    3.597230   -2.030711   -0.040221
 C    1.695488    1.730786    0.031947
 C    0.240980    1.690198    0.019473
 C   -0.436188    0.501722   -0.003934
 C   -1.883376    0.322697   -0.013514
 C   -2.769729    1.395863   -0.109713
 C   -4.133682    1.183044   -0.122541
 C   -4.654884   -0.100026   -0.037785
 C   -3.769009   -1.184701    0.060961
 C   -2.408569   -0.973547    0.071298
 O    0.249125   -0.675539   -0.018461
 O    2.266742    2.839791    0.060805
 O   -4.333848   -2.434915    0.144469
 O   -5.991370   -0.302808   -0.049743
 O   -0.340465    2.910615    0.040030
 O    4.240666   -3.217302   -0.065706
 O    4.525129    1.474227    0.037774
 H    5.451221   -0.959440   -0.013372
 H    1.601616   -2.847218   -0.061024
 H   -2.391430    2.399773   -0.177565
 H   -4.821656    2.009114   -0.198757
 H   -1.739592   -1.818048    0.148528
 H   -3.637742   -3.097060    0.209622
 H   -6.152686   -1.254531    0.018933
 H    0.412875    3.540391    0.065687
 H    3.605312   -3.943895   -0.086002
 H    3.914930    2.254888    0.053741
