30 
3cf9_ligand_dft.xyz
 C    2.621014   -1.103970   -0.383333
 C    3.973718   -1.400076   -0.391424
 C    4.899729   -0.429429   -0.005752
 O    6.211296   -0.772342   -0.030955
 C    4.456304    0.833052    0.391988
 C    3.098774    1.119581    0.396987
 C    2.160922    0.162216    0.001446
 C    0.722042    0.475433   -0.015055
 O   -0.040919   -0.644877    0.062435
 C    0.172517    1.700830   -0.108389
 C   -1.274306    1.921545   -0.099627
 O   -1.752178    3.044335   -0.159083
 C   -2.064185    0.671710   -0.025952
 C   -1.399329   -0.562152    0.044274
 C   -2.052595   -1.786808    0.109253
 C   -3.438818   -1.787659    0.102624
 O   -4.060077   -2.988281    0.166201
 C   -4.153101   -0.587476    0.033206
 C   -3.477748    0.627736   -0.030455
 O   -4.150896    1.790417   -0.098608
 H    1.906806   -1.861889   -0.685076
 H    4.332957   -2.377310   -0.695231
 H    6.745268   -0.020311    0.252235
 H    5.170293    1.589236    0.710186
 H    2.768629    2.096808    0.734613
 H    0.797128    2.579112   -0.211483
 H   -1.492600   -2.711371    0.166282
 H   -5.015995   -2.859236    0.156713
 H   -5.241772   -0.600923    0.028877
 H   -5.098142    1.604660   -0.095786
