42 
3chp_ligand_xtb.xyz
 C   -0.466188   -1.283306    0.095989
 C    0.909086   -1.187311    0.145819
 C    5.895431   -0.453246   -1.046373
 C   -1.238464   -0.148517   -0.138758
 C    1.546596    0.045351   -0.037852
 C    0.755793    1.185230   -0.270716
 O   -4.222428    2.012407   -0.542516
 C   -5.249057    1.704754    0.021894
 C   -5.510279    0.333975    0.613959
 C   -3.498513   -1.110434   -0.090406
 C   -4.999693   -0.842322   -0.250414
 C    5.714406    0.343423    1.208189
 C    6.997874    0.853549    1.130564
 C    7.733395    0.707832   -0.033688
 C    7.180583    0.054584   -1.121927
 C    5.156951   -0.317040    0.120868
 C    3.751402   -0.850812    0.201969
 O    2.861720    0.245815   -0.012805
 C   -0.609934    1.089664   -0.320424
 N   -2.637910   -0.148649   -0.211749
 O   -3.166418   -2.350373    0.135591
 N   -5.652563   -2.103763    0.060792
 O   -6.258909    2.519813    0.197038
 H   -0.931754   -2.243834    0.238341
 H    1.483422   -2.080634    0.328691
 H    5.466062   -0.961761   -1.897586
 H    1.256226    2.129389   -0.410251
 H   -5.044179    0.304447    1.603139
 H   -6.589477    0.237848    0.749592
 H   -5.167791   -0.605188   -1.308745
 H    5.141015    0.456697    2.116656
 H    7.425799    1.363110    1.980560
 H    8.736174    1.102529   -0.092641
 H    7.750267   -0.060167   -2.031511
 H    3.562039   -1.285582    1.191974
 H    3.588108   -1.614841   -0.567745
 H   -1.208489    1.969568   -0.503703
 H   -3.042651    0.789857   -0.411746
 H   -6.440711   -2.305191   -0.538824
 H   -5.963572   -2.144701    1.025118
 H   -4.020960   -2.869984    0.151192
 H   -6.094267    3.411800   -0.156449
