45 
3chq_ligand_xtb.xyz
 C    6.459048   -0.284956   -0.911867
 C    7.655098    0.381925   -1.108704
 C    8.150639    1.222982   -0.126640
 C    7.445741    1.397306    1.051971
 C    6.248301    0.732122    1.248628
 C    5.749733   -0.116741    0.269993
 C    4.433153   -0.819507    0.469360
 O    3.428371   -0.027961   -0.161058
 C    2.144205   -0.398582   -0.081192
 C    1.671018   -1.546772    0.558503
 C    0.317664   -1.815650    0.583081
 C    1.219375    0.454052   -0.698370
 C   -0.129058    0.185626   -0.670252
 C   -0.593995   -0.955632   -0.020138
 N   -1.959086   -1.309146    0.064815
 C   -3.041297   -0.643967   -0.308122
 O   -2.987387    0.482350   -0.857264
 C   -4.353407   -1.331753    0.009922
 C   -5.559585   -0.943408   -0.857047
 C   -6.125358    0.467155   -0.643718
 C   -6.342557    0.792370    0.841327
 O   -6.257750    2.103039    1.063865
 O   -6.581763   -0.024846    1.677218
 N   -5.251201    1.479988   -1.266482
 H    6.072897   -0.940778   -1.678520
 H    8.202119    0.243755   -2.029097
 H    9.084977    1.741428   -0.279505
 H    7.828492    2.052268    1.820091
 H    5.699455    0.870564    2.169018
 H    4.210853   -0.916582    1.539637
 H    4.457079   -1.817499    0.012232
 H    2.348256   -2.234976    1.037040
 H   -0.032497   -2.707707    1.083341
 H    1.595105    1.332212   -1.197455
 H   -0.816767    0.859214   -1.151098
 H   -2.103589   -2.203522    0.519484
 H   -4.590889   -1.140054    1.060128
 H   -4.216612   -2.409775   -0.089582
 H   -6.354373   -1.652834   -0.625038
 H   -5.308162   -1.059108   -1.913052
 H   -7.126963    0.507236   -1.093287
 H   -6.446884    2.321555    1.991460
 H   -4.143411    1.079034   -1.100075
 H   -5.417707    1.568716   -2.268147
 H   -5.373455    2.390894   -0.818390
