49 
3chs_ligand_xtb.xyz
 O   -3.345477    0.923364    0.027515
 C   -3.408965   -0.094105   -0.702282
 C   -4.711286   -0.585184   -1.301327
 C   -5.813478    0.464413   -1.503729
 C   -6.477425    1.009651   -0.231946
 N   -5.586380    1.965620    0.453815
 C   -6.901257   -0.108618    0.731549
 O   -7.210478   -1.207567    0.385258
 O   -6.905120    0.318953    1.993304
 N   -2.350465   -0.838421   -0.983469
 C   -1.010296   -0.720242   -0.552527
 C   -0.534022    0.343787    0.210104
 C    0.786049    0.370308    0.596026
 C    1.668537   -0.656569    0.239003
 C    1.187417   -1.713248   -0.536781
 C   -0.136738   -1.736949   -0.924848
 O    2.926724   -0.534358    0.689214
 C    3.878554   -1.528802    0.370283
 C    5.214396   -1.131367    1.018155
 O    6.066530   -2.239297    0.842244
 C    5.734837    0.138016    0.383344
 C    6.506579    0.074795   -0.769146
 C    6.965507    1.235913   -1.365561
 C    6.647965    2.467642   -0.819282
 C    5.871891    2.535181    0.325943
 C    5.418687    1.374894    0.927805
 H   -5.094432   -1.388624   -0.665877
 H   -4.503224   -1.028259   -2.276604
 H   -6.592569   -0.010088   -2.100902
 H   -5.421147    1.306348   -2.077245
 H   -7.413166    1.508088   -0.519631
 H   -5.815378    2.026651    1.448554
 H   -5.625688    2.895325    0.037715
 H   -4.492139    1.529454    0.305709
 H   -7.222885   -0.367696    2.602849
 H   -2.502517   -1.651529   -1.569297
 H   -1.190357    1.145659    0.499938
 H    1.169263    1.186787    1.185676
 H    1.836515   -2.518401   -0.838479
 H   -0.494852   -2.563063   -1.522928
 H    3.577165   -2.506349    0.765791
 H    4.018296   -1.606037   -0.714586
 H    5.029655   -0.954023    2.090321
 H    6.950550   -2.001594    1.143942
 H    6.748841   -0.889999   -1.191704
 H    7.570779    1.178166   -2.257781
 H    7.006105    3.373895   -1.284032
 H    5.624335    3.494903    0.754714
 H    4.815629    1.424133    1.822462
