90 
3cib_ligand_dft.xyz
 F   -6.214334    2.996743    2.025668
 F   -3.225405    3.327617   -1.560546
 C    2.072727    2.011274    0.066367
 C    2.430601    0.735338    0.499593
 C    1.507394   -0.032546    1.201179
 C    0.229977    0.459554    1.439351
 C   -0.115349    1.744397    1.010823
 C    0.803527    2.539478    0.328520
 C    3.690995    0.039303    0.053614
 N    4.889490    0.620737    0.284738
 O    3.570012   -1.038298   -0.533022
 C    5.097590    1.681247    1.272197
 C    6.076828   -0.069018   -0.234169
 C    6.334065    0.249517   -1.707019
 C    6.559998    1.735870   -1.973183
 C    5.271689    1.137585    2.690472
 C    5.537994    2.251242    3.700237
 C    0.425064    3.921695   -0.136982
 C   -0.772578   -0.524555    1.938698
 O   -0.462292   -1.471184    2.687266
 N   -1.981241   -0.418805    1.373579
 C   -3.071321   -1.379132    1.456488
 C   -2.667796   -2.879684    1.415451
 O   -2.417141   -3.377453    2.713391
 C   -4.101316   -1.049809    0.347261
 C   -4.395936    0.428879    0.261319
 C   -5.243493    1.038045    1.186476
 C   -5.400821    2.416212    1.145393
 C   -4.730718    3.220491    0.232558
 C   -3.898616    2.583726   -0.671872
 C   -3.721540    1.206018   -0.684514
 C   -1.527126   -3.367240    0.431173
 C   -0.980893   -2.446613   -0.658168
 C    0.102552   -3.122181   -1.515115
 C    1.202430   -3.713602   -0.620376
 C    0.653305   -4.598613    0.486921
 N   -0.371530   -3.842462    1.268038
 C    0.756534   -2.126085   -2.510514
 C   -0.158074   -1.028359   -2.998094
 C   -0.048750    0.249985   -2.444578
 C   -0.901464    1.275917   -2.839341
 C   -1.886890    1.034657   -3.794036
 C   -2.007789   -0.236892   -4.351085
 C   -1.147727   -1.259139   -3.956774
 H    2.778469    2.594352   -0.520597
 H    1.769288   -1.037906    1.511753
 H   -1.109574    2.142081    1.205088
 H    5.983443    2.245609    0.964008
 H    4.260974    2.381894    1.249875
 H    5.940861   -1.144853   -0.099163
 H    6.929046    0.244836    0.376791
 H    7.211233   -0.325732   -2.025876
 H    5.485849   -0.117850   -2.294550
 H    6.744243    1.920513   -3.035350
 H    7.424262    2.114373   -1.414745
 H    5.683899    2.326621   -1.681402
 H    4.361916    0.588351    2.965692
 H    6.093458    0.411361    2.703587
 H    5.647039    1.845520    4.709744
 H    6.458426    2.793754    3.458012
 H    4.716400    2.976031    3.717063
 H    0.965242    4.194858   -1.047934
 H    0.667196    4.668921    0.627021
 H   -0.647147    3.992955   -0.342774
 H   -2.115099    0.339151    0.715825
 H   -3.573554   -1.259253    2.424557
 H   -3.573981   -3.398692    1.090710
 H   -1.834245   -2.718439    3.140684
 H   -3.729998   -1.403204   -0.620546
 H   -5.014581   -1.610804    0.567897
 H   -5.782517    0.463408    1.932437
 H   -4.866665    4.294901    0.222328
 H   -3.074664    0.759774   -1.433843
 H   -1.897278   -4.281255   -0.046385
 H   -0.557904   -1.537540   -0.229502
 H   -1.805494   -2.125910   -1.299898
 H   -0.374754   -3.937800   -2.077117
 H    1.902682   -4.303415   -1.220029
 H    1.793048   -2.896475   -0.185139
 H    1.429161   -4.913932    1.187847
 H    0.153821   -5.488899    0.094082
 H   -0.776514   -4.391834    2.035736
 H    0.031847   -3.010133    1.734469
 H    1.617974   -1.663284   -2.014648
 H    1.154413   -2.696548   -3.357121
 H    0.722986    0.442212   -1.703791
 H   -0.802284    2.263085   -2.397997
 H   -2.556925    1.832604   -4.098286
 H   -2.766970   -0.430180   -5.102924
 H   -1.241482   -2.245027   -4.406889
