90 
3cib_ligand_xtb.xyz
 F   -6.551299    2.877834    1.779389
 F   -3.286448    3.392921   -1.551094
 C    2.106974    2.049175   -0.196433
 C    2.483396    0.842758    0.378996
 C    1.570225    0.150428    1.158647
 C    0.280391    0.636617    1.335536
 C   -0.070586    1.869047    0.790728
 C    0.844090    2.590978    0.035159
 C    3.730126    0.098094   -0.000975
 N    4.923457    0.654989    0.241477
 O    3.583632   -0.998657   -0.530063
 C    5.100580    1.805484    1.103491
 C    6.107172   -0.080418   -0.179838
 C    6.417683    0.151620   -1.660367
 C    6.762073    1.602715   -1.970998
 C    5.142347    1.405076    2.582547
 C    5.358589    2.620443    3.473823
 C    0.470282    3.915485   -0.547659
 C   -0.688280   -0.320488    1.912260
 O   -0.353871   -1.208382    2.706799
 N   -1.896680   -0.289108    1.334956
 C   -2.994920   -1.219206    1.507696
 C   -2.588413   -2.713291    1.642174
 O   -2.317820   -3.023296    2.984093
 C   -4.002469   -1.003097    0.359884
 C   -4.370448    0.450175    0.240946
 C   -5.338124    1.004496    1.068051
 C   -5.614296    2.358507    0.980567
 C   -4.942284    3.196192    0.106034
 C   -3.983130    2.618545   -0.703619
 C   -3.687654    1.266123   -0.656302
 C   -1.432605   -3.293513    0.735609
 C   -0.895506   -2.459831   -0.421378
 C    0.187348   -3.219623   -1.200473
 C    1.296627   -3.662540   -0.243560
 C    0.743229   -4.438548    0.942648
 N   -0.292907   -3.640240    1.625164
 C    0.800412   -2.315181   -2.291989
 C   -0.200934   -1.379565   -2.909905
 C   -0.189029   -0.029478   -2.580970
 C   -1.122942    0.838765   -3.120673
 C   -2.090719    0.362716   -3.990378
 C   -2.110906   -0.981272   -4.325239
 C   -1.171059   -1.844968   -3.790269
 H    2.789792    2.567348   -0.854318
 H    1.850218   -0.799143    1.590271
 H   -1.054829    2.284093    0.958576
 H    6.034751    2.298125    0.828254
 H    4.285223    2.514282    0.951108
 H    5.920001   -1.146525   -0.020580
 H    6.948510    0.231613    0.439414
 H    7.256679   -0.489516   -1.933918
 H    5.552820   -0.158840   -2.248620
 H    7.001924    1.712430   -3.025222
 H    7.624792    1.926171   -1.392230
 H    5.924111    2.258620   -1.745201
 H    4.199950    0.917570    2.844502
 H    5.946489    0.684139    2.741534
 H    5.384095    2.324109    4.518723
 H    6.299944    3.108644    3.234001
 H    4.554477    3.340794    3.340991
 H    1.010591    4.099535   -1.472711
 H    0.725283    4.711084    0.152748
 H   -0.597412    3.973780   -0.743784
 H   -2.091481    0.473541    0.698857
 H   -3.509271   -0.989613    2.454177
 H   -3.493676   -3.281578    1.401186
 H   -1.718312   -2.330790    3.333764
 H   -3.572233   -1.347911   -0.580098
 H   -4.893585   -1.593393    0.570510
 H   -5.887736    0.398325    1.770251
 H   -5.165388    4.248833    0.054688
 H   -2.955771    0.865138   -1.343779
 H   -1.800516   -4.241948    0.327484
 H   -0.451967   -1.530827   -0.074814
 H   -1.711474   -2.214782   -1.099014
 H   -0.269136   -4.098723   -1.666194
 H    2.011202   -4.289130   -0.775803
 H    1.844274   -2.783518    0.101289
 H    1.536523   -4.671014    1.654831
 H    0.288468   -5.374794    0.609186
 H   -0.695645   -4.124317    2.443691
 H    0.075679   -2.732034    2.002543
 H    1.608235   -1.729623   -1.849401
 H    1.238670   -2.948128   -3.064454
 H    0.569599    0.346588   -1.908939
 H   -1.091095    1.889255   -2.870544
 H   -2.819389    1.038516   -4.411274
 H   -2.855890   -1.354836   -5.011305
 H   -1.183832   -2.889674   -4.065490
