85 
3cid_ligand_dft.xyz
 F   -7.631719   -2.751637    1.424834
 F   -6.627754    1.759077    2.160897
 N   -1.126574   -1.887339   -0.048116
 C   -2.575289   -1.764759    0.001040
 C   -3.159230   -0.833717   -1.077606
 O   -2.965638   -1.330627   -2.382582
 C   -2.667175    0.661372   -1.051127
 N   -2.734716    1.133532   -2.477276
 C   -1.481145    1.892767   -2.790860
 N   -0.575788    1.455480   -1.766424
 C   -1.214611    0.978748   -0.666670
 C   -2.972244   -1.355044    1.433079
 C   -0.430757   -2.482436   -1.043425
 O   -0.751022    0.838070    0.446816
 C    0.787329    2.015227   -1.727541
 C    0.780588    3.469219   -1.322927
 C    0.647867    4.479208   -2.278157
 C    0.589247    5.815191   -1.889638
 C    0.668345    6.146743   -0.540079
 C    0.814559    5.144018    0.416297
 C    0.870901    3.809385    0.028793
 C   -4.445149   -1.063189    1.587321
 C   -4.870904    0.244013    1.829698
 C   -6.232145    0.504862    1.930405
 C   -7.191563   -0.483970    1.792713
 C   -6.736124   -1.773890    1.556483
 C   -5.387974   -2.083439    1.448320
 O   -0.997691   -3.008869   -2.010131
 C    1.055542   -2.424707   -0.948346
 C    1.697106   -1.394956   -0.264087
 C    3.087204   -1.309211   -0.273504
 C    3.822749   -2.257329   -0.981288
 C    3.196453   -3.295345   -1.678904
 C    1.805562   -3.363865   -1.659314
 C    4.012994   -4.283720   -2.471509
 C    3.677459   -0.085268    0.379340
 O    3.111468    0.996208    0.201546
 N    4.801484   -0.187421    1.130177
 C    5.353686   -1.436452    1.649759
 C    6.735058   -1.786490    1.093445
 C    7.208409   -3.149078    1.595224
 C    5.327594    1.053365    1.703645
 C    4.604813    1.479966    2.982031
 C    5.196333    2.765707    3.555958
 H   -0.613368   -1.432650    0.691992
 H   -3.007587   -2.747594   -0.223693
 H   -4.240313   -0.792975   -0.908827
 H   -2.285263   -2.059787   -2.376115
 H   -3.328127    1.261884   -0.422180
 H   -2.771126    0.216822   -2.999693
 H   -3.576083    1.672205   -2.686536
 H   -1.135169    1.630121   -3.793337
 H   -1.683458    2.968505   -2.735022
 H   -2.391704   -0.472739    1.721544
 H   -2.675292   -2.171270    2.100690
 H    1.212221    1.877139   -2.727242
 H    1.379651    1.415522   -1.030938
 H    0.618415    4.224940   -3.336837
 H    0.496334    6.594778   -2.639285
 H    0.629441    7.187711   -0.234652
 H    0.896019    5.403567    1.467237
 H    1.003633    3.023556    0.766073
 H   -4.161364    1.051789    1.982240
 H   -8.248609   -0.265779    1.880625
 H   -5.094611   -3.113311    1.272397
 H    1.150139   -0.603367    0.239843
 H    4.905013   -2.177917   -1.021815
 H    1.285365   -4.142813   -2.208739
 H    4.976856   -4.478159   -1.992228
 H    3.489310   -5.236793   -2.583052
 H    4.216290   -3.897296   -3.476756
 H    4.649819   -2.246343    1.446329
 H    5.415004   -1.348111    2.742343
 H    7.457795   -1.014703    1.381739
 H    6.702977   -1.777484   -0.002470
 H    8.201842   -3.386423    1.205211
 H    6.523827   -3.944951    1.279750
 H    7.265284   -3.171791    2.689022
 H    5.238483    1.836889    0.947949
 H    6.393136    0.900196    1.902590
 H    4.667474    0.677026    3.727499
 H    3.545119    1.623571    2.748019
 H    4.674954    3.065069    4.469697
 H    6.256583    2.639704    3.802612
 H    5.115652    3.588728    2.837302
