37 
3cj2_ligand_xtb.xyz
Br   -3.250045   -1.742792   -0.493348
 C   -2.470532   -0.039924   -0.120409
 C   -1.113270    0.136329   -0.310748
 C   -3.266720    0.996043    0.340123
 C   -2.694128    2.225310    0.583585
 C   -1.325196    2.442353    0.388583
 N   -0.761622    3.654906    0.669860
 C   -0.523621    1.360101   -0.028433
 C    0.928558    1.592762   -0.288946
 O    1.290631    2.564735   -0.944301
 N    1.813494    0.712339    0.219630
 C    1.545783   -0.345486    1.163943
 C    1.968136   -1.702418    0.586619
 C    1.695802   -2.819108    1.587854
 C    3.447947   -1.635669    0.204811
 C    3.215824    0.827531   -0.123292
 C    3.710313   -0.475705   -0.757928
 C    5.189761   -0.370131   -1.110132
 H   -0.517563   -0.674512   -0.700478
 H   -4.324915    0.845381    0.488524
 H   -3.310866    3.046341    0.918738
 H    0.120753    3.833471    0.210649
 H   -1.386935    4.441451    0.730959
 H    2.134750   -0.150315    2.070686
 H    0.492059   -0.347381    1.440918
 H    1.386000   -1.892997   -0.321623
 H    2.246525   -2.647222    2.510238
 H    0.635676   -2.872051    1.824262
 H    2.003943   -3.777712    1.178055
 H    4.047554   -1.497861    1.108387
 H    3.753039   -2.576536   -0.257359
 H    3.321165    1.664454   -0.815454
 H    3.794960    1.041308    0.783376
 H    3.137596   -0.645413   -1.676341
 H    5.781777   -0.185929   -0.216080
 H    5.537526   -1.293113   -1.567748
 H    5.358428    0.445850   -1.808314
