48 
3cj4_ligand_xtb.xyz
 O   -3.194616   -0.567182    0.710786
 C   -4.260523   -0.128072    1.053248
 O   -4.933003   -0.617352    2.101650
 C   -5.012681    1.005272    0.404532
 C   -4.312458    1.531734   -0.848672
 C   -2.986070    2.164148   -0.442255
 O   -2.936864    3.167407    0.235784
 N   -1.905366    1.476456   -0.890580
 C   -0.568704    1.697546   -0.590378
 C   -0.086621    2.940303   -0.182854
 C    1.260591    3.125266    0.058438
 C    2.134624    2.066494   -0.119277
Br    4.000214    2.316173    0.183317
 C    1.678238    0.818101   -0.501133
 C    0.322008    0.617310   -0.712317
 C   -0.198479   -0.714904   -1.155556
 O   -0.877303   -0.800418   -2.174401
 N    0.098921   -1.783543   -0.398860
 C   -0.303590   -3.104434   -0.832728
 C    0.914473   -4.030906   -0.887740
 C    0.499482   -5.431228   -1.324868
 C    1.593943   -4.053499    0.483339
 C    0.694621   -1.771364    0.914708
 C    1.959053   -2.638661    0.936346
 C    2.584221   -2.637975    2.326733
 H   -4.438021   -1.337342    2.523243
 H   -5.095319    1.807296    1.143010
 H   -6.022853    0.658287    0.179595
 H   -4.934903    2.306317   -1.298568
 H   -4.160624    0.726778   -1.566836
 H   -2.065811    0.601075   -1.381130
 H   -0.777140    3.757500   -0.058373
 H    1.630234    4.090429    0.368232
 H    2.375870    0.006767   -0.643499
 H   -1.045785   -3.504008   -0.131589
 H   -0.765825   -3.005462   -1.816134
 H    1.618808   -3.623967   -1.621713
 H    0.030368   -5.401362   -2.305084
 H    1.366466   -6.085244   -1.377450
 H   -0.209103   -5.856919   -0.617492
 H    0.916192   -4.501822    1.214463
 H    2.493044   -4.671303    0.440201
 H   -0.034395   -2.186741    1.623005
 H    0.915595   -0.749425    1.220573
 H    2.679783   -2.221392    0.224758
 H    1.885027   -3.035191    3.059559
 H    2.857093   -1.628145    2.623869
 H    3.480462   -3.252992    2.339365
