60 
3cj5_ligand_dft.xyz
 O    2.040433   -0.473755    0.883254
 C    2.818156   -1.303198    0.421619
 N    3.798547   -0.951183   -0.459829
 C    3.841609    0.417617   -0.957605
 C    5.286792    0.873325   -1.099345
 O    6.033152   -0.020840   -1.899055
 C    6.049027   -1.307078   -1.325491
 C    4.639904   -1.881549   -1.200229
 C    2.737039   -2.767201    0.841958
 C    1.553905   -3.009734    1.778460
 C    0.247261   -2.915315    0.999556
 O    0.002156   -3.695732    0.093078
 N   -0.578855   -1.901336    1.394969
 C   -1.755347   -1.489398    0.757598
 C   -2.586909   -2.383625    0.075389
 C   -3.773287   -1.944256   -0.495917
 C   -4.141497   -0.608839   -0.386951
Br   -5.775269   -0.011098   -1.139310
 C   -3.317513    0.296148    0.262512
 C   -2.111860   -0.129526    0.817982
 C   -1.233606    0.850218    1.545992
 O   -0.826316    0.583962    2.676106
 N   -0.961322    2.036788    0.930349
 C   -0.921972    2.213819   -0.519603
 C    0.519350    2.147726   -1.043120
 C    0.555269    2.360363   -2.553833
 C    1.386604    3.165692   -0.296528
 C   -0.155143    3.010617    1.660530
 C    1.312479    2.971333    1.221738
 C    2.129879    4.018164    1.973441
 H    3.336898    0.472764   -1.933115
 H    3.300823    1.049586   -0.253625
 H    5.331091    1.847378   -1.592515
 H    5.746548    0.961369   -0.101625
 H    6.518344   -1.273543   -0.328378
 H    6.656661   -1.938131   -1.978712
 H    4.687424   -2.844508   -0.690803
 H    4.220257   -2.042700   -2.203520
 H    3.673431   -3.055870    1.334254
 H    2.622124   -3.409053   -0.038643
 H    1.584497   -2.312842    2.619019
 H    1.618627   -4.029359    2.170187
 H   -0.203753   -1.225021    2.052015
 H   -2.293174   -3.420892   -0.007365
 H   -4.415914   -2.645825   -1.016397
 H   -3.603058    1.340289    0.337738
 H   -1.362886    3.192310   -0.758252
 H   -1.530263    1.450687   -1.004031
 H    0.895320    1.142752   -0.808911
 H    1.581237    2.291465   -2.932738
 H   -0.047380    1.610726   -3.078566
 H    0.168678    3.351646   -2.821333
 H    2.427958    3.097491   -0.639271
 H    1.046580    4.183455   -0.548729
 H   -0.575914    4.007057    1.461812
 H   -0.252716    2.798138    2.724983
 H    1.693384    1.970242    1.461151
 H    2.085014    3.854047    3.055537
 H    1.757205    5.030093    1.769862
 H    3.182555    3.983886    1.671427
