80 
3ckp_ligand_dft.xyz
 C   -0.902844    1.008594   -1.826956
 O   -1.003857   -0.152830   -2.246453
 N   -1.628409    1.511998   -0.819847
 C   -2.806201    0.903877   -0.198921
 C   -3.842745    0.447093   -1.246427
 C   -5.098413   -0.122693   -0.625320
 C   -5.436373   -1.464077   -0.811550
 C   -5.934970    0.675475    0.161205
 C   -6.575718   -2.003195   -0.219213
 C   -7.071626    0.140266    0.757675
 C   -7.392550   -1.202803    0.572178
 C   -2.505792   -0.160725    0.890064
 O   -1.505158    0.266880    1.788625
 C   -2.051496   -1.556792    0.458103
 N   -0.626909   -1.553734    0.042287
 C   -0.015994   -2.888752   -0.274854
 C    1.311393   -2.641280   -0.941590
 C    1.365923   -2.440006   -2.319831
 C    2.586224   -2.089360   -2.889370
 C    3.721339   -1.912464   -2.111427
 C    3.677812   -2.092931   -0.711657
 C    2.447925   -2.494366   -0.151477
 N    4.776121   -1.852382    0.083666
 C    4.733813   -2.225275    1.485490
 C    6.068909   -1.636576   -0.539652
 C    0.192453    1.913803   -2.384507
 N    0.131328    3.266131   -1.871689
 C    1.310484    3.621293   -1.194084
 O    1.524450    4.696384   -0.681090
 N    2.137651    2.525691   -1.197767
 C    1.569068    1.384030   -1.880592
 C    3.137092    2.373322   -0.147048
 C    2.480036    1.952289    1.150422
 C    2.165343    0.612895    1.355162
 C    1.422023    0.220692    2.466514
 C    1.040376    1.157410    3.423347
 C    1.382976    2.495875    3.225327
 C    2.078474    2.902782    2.093204
 O    1.080286   -1.108757    2.498133
 C    0.398534   -1.591187    3.644918
 H   -1.391288    2.471712   -0.588264
 H   -3.263190    1.728577    0.362538
 H   -4.086141    1.321865   -1.860337
 H   -3.385330   -0.284979   -1.916030
 H   -4.815353   -2.091210   -1.448131
 H   -5.707101    1.730760    0.297929
 H   -6.826799   -3.046517   -0.383083
 H   -7.713665    0.774268    1.361197
 H   -8.282199   -1.619031    1.033687
 H   -3.462246   -0.314688    1.406549
 H   -1.666960    1.169200    2.089026
 H   -2.143917   -2.237486    1.307812
 H   -2.649948   -1.939107   -0.369549
 H   -0.066349   -1.102173    0.783074
 H   -0.574911   -0.992514   -0.833013
 H    0.074120   -3.439207    0.664517
 H   -0.714717   -3.411332   -0.932535
 H    0.477455   -2.544911   -2.933962
 H    2.659291   -1.950395   -3.963689
 H    4.649471   -1.643178   -2.600406
 H    2.360406   -2.653642    0.916275
 H    3.934609   -1.690414    2.011154
 H    5.676279   -1.946625    1.957496
 H    4.583290   -3.305348    1.628015
 H    6.389609   -2.493693   -1.148508
 H    6.816888   -1.469477    0.235813
 H    6.053769   -0.745300   -1.177425
 H    0.127750    1.862204   -3.474758
 H   -0.291599    3.996139   -2.428527
 H    2.204770    1.048921   -2.705219
 H    1.440881    0.530516   -1.205274
 H    3.643812    3.334216   -0.038273
 H    3.869775    1.632243   -0.480712
 H    2.493382   -0.145474    0.651949
 H    0.484160    0.869331    4.307995
 H    1.090833    3.229968    3.969949
 H    2.302473    3.951929    1.931196
 H    0.986922   -1.421342    4.552774
 H   -0.584960   -1.119135    3.740141
 H    0.279622   -2.665328    3.493539
