79 
3ckt_ligand_xtb.xyz
 N    9.219587    0.718601   -0.538378
 C    6.152713   -0.650713    0.791751
 C    6.923812    0.137205   -0.060856
 C    8.352399   -0.282176   -0.274081
 C    0.025632   -2.611779   -2.658489
 C    4.822341   -0.347323    1.009419
 C    0.547597   -0.630335    0.972873
 C    4.268100    0.736277    0.353014
 C    5.010049    1.520006   -0.509628
 C    6.347136    1.220444   -0.716378
 S    2.554231    1.122341    0.647811
 O    2.099405    2.128286   -0.271649
 N    1.808405   -0.355046    0.326884
 C    1.917746   -0.750478   -1.074098
 C    2.011348   -2.242329   -1.171317
 C    1.201686   -3.056704   -1.841243
 C    1.408275   -4.539007   -1.809959
 C    0.768962   -1.004494    2.453737
 N   -0.349496   -0.364717    3.170539
 O    2.333912    1.381032    2.047337
 O    8.681505   -1.444834   -0.215647
 N   -9.179288   -0.612366   -0.634638
 C   -6.309840   -1.166696   -0.747844
 O   -8.606110    1.533539   -0.257131
 C   -6.118718    0.682711    0.787872
 C   -6.883652   -0.083066   -0.090303
 C   -8.300584    0.365666   -0.329858
 S   -2.545451   -1.137539    0.685587
 C   -0.122525    2.715095   -2.555353
 C   -1.484143    4.587110   -1.559458
 O   -2.091560   -2.173272   -0.194732
 C   -4.980886   -1.487205   -0.521296
 C   -4.796583    0.359731    1.025890
 C   -0.449138    0.575239    1.007272
 C   -0.547692    0.933585    2.493338
 C   -4.244630   -0.721439    0.362864
 N   -1.748080    0.309076    0.416212
 C   -1.904257    0.765262   -0.966857
 C   -2.027729    2.257745   -0.992588
 C   -1.261247    3.111518   -1.665213
 O   -2.404512   -1.419936    2.110235
 H    8.968544    1.688236   -0.472373
 H   10.191585    0.481503   -0.655769
 H    6.618211   -1.501036    1.266181
 H   -0.856345   -2.550668   -2.020064
 H    0.189949   -1.643853   -3.124011
 H   -0.178761   -3.337360   -3.441251
 H    4.207936   -0.940237    1.667499
 H    0.086388   -1.461498    0.430316
 H    4.530360    2.347433   -1.008511
 H    6.922362    1.815074   -1.409498
 H    1.083003   -0.345475   -1.654044
 H    2.839840   -0.290132   -1.440014
 H    2.833451   -2.656753   -0.604232
 H    1.652906   -4.902838   -2.806918
 H    0.489189   -5.031092   -1.496007
 H    2.210705   -4.818355   -1.133293
 H    1.712974   -0.565405    2.781438
 H    0.768486   -2.081500    2.614368
 H   -1.237764   -0.926071    2.946678
 H   -0.186280   -0.281045    4.174225
 H  -10.142837   -0.352949   -0.773687
 H   -8.950533   -1.588370   -0.582809
 H   -6.879910   -1.745848   -1.457903
 H   -6.582007    1.532897    1.264748
 H    0.781888    2.600006   -1.956851
 H    0.062046    3.491948   -3.292136
 H   -0.316127    1.784009   -3.081288
 H   -0.557278    5.075151   -1.262937
 H   -2.259173    4.826646   -0.837156
 H   -1.774443    4.991614   -2.528030
 H   -4.504216   -2.315664   -1.021356
 H   -4.188667    0.935600    1.704428
 H   -0.028607    1.417663    0.451333
 H   -1.511003    1.369826    2.751175
 H    0.272221    1.607120    2.752205
 H   -2.823042    0.302262   -1.338077
 H   -1.072252    0.407377   -1.579205
 H   -2.829310    2.634492   -0.372446
