43 
3ckz_ligand_dft.xyz
 C   -2.197993    3.410557   -0.344197
 O   -1.306746    4.398452   -0.163657
 O   -3.362486    3.603706   -0.600255
 C   -1.588621    2.059003   -0.189996
 C   -2.308300    0.951098   -0.377989
 C   -1.716774   -0.415352   -0.197931
 C   -0.363052   -0.310045    0.550346
 N    0.350509   -1.574887    0.565006
 C    0.700149   -2.250548   -0.570715
 O    0.561085   -1.752446   -1.681555
 C    1.227526   -3.647352   -0.360810
 C    0.467089    0.859926   -0.003133
 O   -0.280444    2.076808    0.160324
 C    1.760671    1.175842    0.761177
 O    2.266950    2.423640    0.322274
 C    2.931618    0.201263    0.621276
 O    4.025276    0.716718    1.370619
 C    3.399373   -0.052785   -0.813022
 O    4.532108   -0.890962   -0.788724
 N   -2.652855   -1.284892    0.484546
 C   -2.712153   -2.661004    0.277756
 N   -2.223716   -3.361847   -0.673025
 N   -3.420192   -3.297927    1.301590
 H   -1.798144    5.226769   -0.284846
 H   -3.348134    1.041327   -0.668277
 H   -1.522571   -0.840076   -1.186578
 H   -0.581259   -0.070255    1.598800
 H    0.361789   -2.086691    1.433442
 H    1.918191   -3.887805   -1.169518
 H    0.374267   -4.334162   -0.403073
 H    1.733700   -3.769238    0.601012
 H    0.658177    0.715775   -1.071708
 H    1.504496    1.234634    1.832282
 H    1.536918    3.057392    0.350710
 H    2.680690   -0.754919    1.084103
 H    4.070059    1.658433    1.143501
 H    2.632915   -0.561636   -1.402265
 H    3.616208    0.913177   -1.294830
 H    5.100067   -0.521403   -0.096742
 H   -2.860430   -1.003472    1.434160
 H   -1.661878   -2.816898   -1.321861
 H   -4.282883   -2.831665    1.557324
 H   -3.591531   -4.263343    1.048774
