45 
3cl0_ligand_xtb.xyz
 C   -3.932968    0.229161   -0.154183
 O   -4.121143    1.536372   -0.306780
 O   -4.824466   -0.567865   -0.023355
 C   -2.494659   -0.165474   -0.161390
 C   -2.261647   -1.633808    0.048406
 C   -0.824478   -2.077781   -0.233463
 C    0.157899   -1.055258    0.348799
 N    1.586979   -1.308189    0.172723
 C    2.328825   -2.405295    0.108063
 O    1.871183   -3.565154    0.123434
 C    3.804320   -2.190857    0.007476
 C   -0.067174    0.315177   -0.337431
 C   -1.512703    0.714620   -0.315000
 O    0.769275    1.225399    0.330837
 C    1.199529    2.372170   -0.421360
 C    2.524407    2.061311   -1.136239
 C    1.300976    3.547214    0.551523
 C   -0.070641    4.018425    1.019543
 C    3.692375    1.842880   -0.178099
 N   -0.601473   -3.418118    0.349963
 H   -5.069262    1.748237   -0.294915
 H   -2.965577   -2.188453   -0.576148
 H   -2.522960   -1.857987    1.088398
 H   -0.654786   -2.156585   -1.312207
 H   -0.040227   -0.922629    1.421317
 H    2.078827   -0.415772    0.213362
 H    4.199448   -1.935335    0.990095
 H    4.045532   -1.384415   -0.679302
 H    4.280322   -3.111020   -0.320486
 H    0.243938    0.222785   -1.394868
 H   -1.725574    1.764716   -0.437563
 H    0.441667    2.605462   -1.180675
 H    2.753458    2.886819   -1.809767
 H    2.382415    1.169858   -1.756771
 H    1.888034    3.234538    1.414394
 H    1.822078    4.364517    0.052962
 H   -0.665079    4.372831    0.179999
 H    0.037663    4.834871    1.727596
 H   -0.603164    3.207463    1.510746
 H    4.015823    2.786455    0.250134
 H    3.410622    1.183691    0.641957
 H    4.538043    1.408581   -0.705944
 H   -0.873581   -3.442293    1.333848
 H   -1.130451   -4.133717   -0.147473
 H    0.591089   -3.623390    0.259553
