75 
3cm2_ligand_xtb.xyz
 C   -5.504750   -1.144179   -3.087619
 C   -5.086112   -2.301875   -2.186083
 C   -5.459735   -2.082806   -0.716916
 N   -6.923475   -1.902806   -0.546256
 C   -4.880452   -0.760326   -0.143207
 O   -5.689051    0.051135    0.290168
 N   -3.567852   -0.606195   -0.130318
 C   -2.924388    0.650469    0.220210
 C   -1.559963    0.616254   -0.471884
 O   -1.137524   -0.476133   -0.868596
 N   -0.881495    1.742252   -0.578089
 C   -2.828466    0.845779    1.747262
 C   -1.916420   -0.152675    2.492058
 N   -0.621082   -0.509405    1.863818
 C   -2.580556    2.323546    2.087444
 C   -1.313366    2.969768    1.536724
 C   -1.217292    3.037190    0.009946
 C   -0.054083    3.947247   -0.422550
 C    0.628586    3.214825   -1.576482
 C    0.430702    1.744961   -1.206733
 C    1.460222    1.237048   -0.190706
 O    1.165566    1.129894    1.007582
 N    2.644375    0.903114   -0.662435
 C    3.672243    0.303413    0.186348
 C    3.128761   -0.892068    0.943240
 C    3.688344   -1.217134    2.173068
 C    3.235327   -2.311943    2.886952
 C    2.206631   -3.092522    2.384573
 C    1.647429   -2.777209    1.157334
 C    2.110630   -1.688492    0.434802
 C    4.856999   -0.112769   -0.653966
 C    6.140010    0.274432   -0.292970
 C    7.227315   -0.125016   -1.050547
 C    7.039675   -0.909957   -2.175395
 C    5.761717   -1.300359   -2.538932
 C    4.674129   -0.908269   -1.779187
 H   -6.585024   -1.048018   -3.174556
 H   -5.103090   -0.199205   -2.729657
 H   -5.121663   -1.312496   -4.089577
 H   -4.006516   -2.439152   -2.253647
 H   -5.544704   -3.229125   -2.534320
 H   -5.109660   -2.922293   -0.110663
 H   -7.378384   -2.592988    0.054136
 H   -6.941826   -0.918545   -0.082959
 H   -7.407012   -1.863533   -1.449659
 H   -2.928189   -1.257358   -0.587484
 H   -3.531120    1.474003   -0.173737
 H   -3.833959    0.636644    2.130733
 H   -2.468562   -1.084126    2.640698
 H   -1.705639    0.269368    3.476585
 H    0.032608    0.321262    1.611819
 H   -0.750315   -1.007829    0.967365
 H   -0.074730   -1.113858    2.486115
 H   -2.569785    2.424480    3.173286
 H   -3.442379    2.890737    1.729726
 H   -1.297269    3.998274    1.900244
 H   -0.420933    2.477449    1.923856
 H   -2.166156    3.384533   -0.413672
 H   -0.401056    4.934913   -0.713560
 H    0.644520    4.061139    0.406385
 H    0.126875    3.424449   -2.521081
 H    1.677223    3.484983   -1.673075
 H    0.422286    1.077188   -2.072938
 H    2.872000    1.015173   -1.640470
 H    3.988756    1.055947    0.919281
 H    4.491202   -0.614688    2.568967
 H    3.688086   -2.559349    3.833976
 H    1.856153   -3.950598    2.937186
 H    0.864490   -3.397123    0.743301
 H    1.666804   -1.469772   -0.526323
 H    6.291319    0.889861    0.581633
 H    8.221013    0.179451   -0.761770
 H    7.887114   -1.220091   -2.765998
 H    5.611173   -1.916099   -3.412206
 H    3.682312   -1.235496   -2.058919
