73 
3cm7_ligand_dft.xyz
 C    0.239953    3.574511    2.588632
 C    1.491433    2.890794    2.036494
 C    1.543269    2.888510    0.512302
 N    0.348626    2.160039   -0.057709
 C    2.764412    2.233001   -0.152096
 O    3.353485    2.798988   -1.046696
 N    3.021483    0.946833    0.245634
 C    3.354009   -0.045864   -0.785785
 C    1.988427   -0.654820   -1.130446
 O    1.185317    0.057420   -1.752036
 N    1.606027   -1.861192   -0.665920
 C    4.511141   -0.971636   -0.419869
 C    5.835148   -0.238959   -0.636544
 O    6.872501   -1.144600   -0.339585
 C    4.434015   -1.542879    0.998658
 C    3.067495   -2.119965    1.382304
 C    2.306253   -2.803782    0.248609
 C    1.154699   -3.666296    0.786776
 C    0.089075   -3.623469   -0.303859
 C    0.195469   -2.181308   -0.815851
 C   -0.642107   -1.184370    0.006229
 O   -0.146378   -0.430803    0.854528
 N   -1.956270   -1.198414   -0.257541
 C   -2.900919   -0.289600    0.394304
 C   -4.300899   -0.871069    0.258337
 C   -4.647355   -1.956795    1.068392
 C   -5.894476   -2.557012    0.948346
 C   -6.810614   -2.075867    0.014866
 C   -6.473134   -0.994703   -0.791704
 C   -5.222334   -0.392956   -0.672046
 C   -2.756187    1.128173   -0.135490
 C   -2.413866    1.380989   -1.466132
 C   -2.307518    2.689191   -1.934830
 C   -2.528695    3.762234   -1.071108
 C   -2.870528    3.516441    0.259842
 C   -2.989075    2.206141    0.720238
 H   -0.672566    3.022387    2.336868
 H    0.140860    4.593497    2.199070
 H    0.292427    3.637474    3.678058
 H    1.547481    1.864634    2.422089
 H    2.389902    3.407302    2.389032
 H    1.499579    3.907240    0.122929
 H   -0.471097    2.772390   -0.136201
 H    0.556522    1.757211   -0.989913
 H    0.071647    1.322761    0.496514
 H    2.427288    0.584501    0.981500
 H    3.629491    0.532542   -1.671561
 H    4.491297   -1.802062   -1.139256
 H    5.866598    0.649324    0.014839
 H    5.893995    0.111680   -1.678619
 H    7.716753   -0.690789   -0.438976
 H    5.202082   -2.315393    1.081191
 H    4.710585   -0.761853    1.716632
 H    3.207235   -2.859695    2.178339
 H    2.395981   -1.360123    1.803425
 H    2.986147   -3.422081   -0.349668
 H    1.490947   -4.677972    1.022994
 H    0.767066   -3.215056    1.707816
 H   -0.911663   -3.869041    0.060254
 H    0.332869   -4.312108   -1.118313
 H   -0.102072   -2.083201   -1.863503
 H   -2.322045   -1.836373   -0.951029
 H   -2.632003   -0.276991    1.455947
 H   -3.934291   -2.329844    1.800274
 H   -6.155700   -3.394620    1.587383
 H   -7.786601   -2.541163   -0.078727
 H   -7.185521   -0.613072   -1.516195
 H   -4.976429    0.457860   -1.299850
 H   -2.214722    0.553603   -2.140376
 H   -2.049607    2.870087   -2.973632
 H   -2.446592    4.781505   -1.435243
 H   -3.052385    4.344356    0.938166
 H   -3.264488    2.020369    1.755379
