56 
3co9_ligand_xtb.xyz
 C   -5.142794   -2.766980    0.442882
 C    3.557922   -0.051941    0.243423
 C   -6.137768   -0.892405   -0.281475
 C    1.251791    0.669754   -0.059575
 C    4.001930    1.257790    0.083895
 C   -4.165770   -1.863781    0.022804
 C   -0.585674   -0.720330   -0.347517
 C   -4.712550    3.364394    2.156105
 C    6.427617   -0.345415   -1.535063
 C   -4.142300    2.745837    0.880328
 O    6.437791   -0.530948    1.105988
 S    6.607844    0.443852    0.078818
 O    7.786830    1.254336    0.075845
 N    5.353302    1.549124    0.113720
 C    3.057885    2.272201   -0.119549
 C    2.209594   -0.322579    0.153906
 S    1.641272   -1.981012    0.350646
 O    2.454229   -2.909582   -0.373159
 O    1.346232   -2.277183    1.720204
 N    0.173161   -1.858732   -0.494450
 N   -0.093423    0.444672   -0.154633
 C    1.712932    1.988732   -0.178098
 C   -2.043722   -0.823214   -0.460264
 C   -2.746542   -1.902406    0.012610
 O   -2.119510   -2.997654    0.492663
 C   -2.737844    0.324824   -1.043964
 O   -2.201272    1.236999   -1.636000
 N   -4.125057    0.328405   -0.923751
 N   -4.807508   -0.729796   -0.409470
 C   -6.372107   -2.149985    0.247255
 C   -4.860285    1.527570   -1.267598
 C   -5.299882    2.316737   -0.030368
 C   -3.205151    3.730825    0.187147
 H   -4.982750   -3.752100    0.835733
 H    4.245452   -0.853116    0.456937
 H   -6.849963   -0.145919   -0.562832
 H   -5.288329    4.256897    1.919610
 H   -5.363655    2.662304    2.673340
 H   -3.909328    3.644658    2.832445
 H    7.201613   -1.098428   -1.610078
 H    5.448967   -0.802733   -1.594288
 H    6.561050    0.414148   -2.293347
 H   -3.561861    1.858495    1.157728
 H    5.633111    2.506011   -0.018693
 H    3.399303    3.291661   -0.226550
 H   -0.315890   -2.731565   -0.619630
 H    0.981915    2.764623   -0.336439
 H   -2.756841   -3.593266    0.907960
 H   -7.336343   -2.563152    0.463770
 H   -5.724120    1.257254   -1.881851
 H   -4.176658    2.124944   -1.872298
 H   -5.833914    3.204397   -0.375100
 H   -5.998988    1.717227    0.557975
 H   -3.763443    4.577658   -0.207435
 H   -2.472447    4.104185    0.898129
 H   -2.664152    3.249143   -0.622056
