57 
3coy_ligand_dft.xyz
 C    2.291349   -0.310160   -0.973000
 C   -0.747503    2.164975   -2.072023
 C    3.027320   -0.520292    0.364102
 C   -1.276918    1.674513    0.024203
 C   -0.058124    2.173598    0.488692
 C    0.807623    2.687289   -0.478498
 C    4.562198   -0.702114    0.216428
 N    0.453006    2.673069   -1.756971
 N    1.134579   -1.044915   -1.191108
 O    2.695927    0.445537   -1.823566
 C   -1.058964    1.429705    2.189882
 O   -5.448394    0.427344    0.806465
 N   -1.661774    1.652967   -1.251201
 C    4.798116   -1.812322   -0.820419
 C    5.276817    0.588970   -0.209807
 C    5.114798   -1.171665    1.574646
 N    2.681756    0.656768    1.225653
 S    0.208665   -1.826004   -0.021843
 O    0.551075   -3.220001    0.088917
 O    0.267576   -0.997360    1.166335
 O   -1.150840   -1.647213   -0.823337
 C   -2.290265   -2.485581   -0.445066
 C   -3.360861   -1.602597    0.158447
 C   -3.897915   -0.512465   -0.776721
 O   -5.060876   -0.998684   -1.409544
 C   -4.201773    0.636446    0.203892
 C   -3.150225    0.423805    1.297408
 O   -2.823600   -0.945324    1.293309
 N   -1.930247    1.220813    1.151445
 N    0.071065    1.996828    1.853431
 N    2.093816    3.122535   -0.133054
 H   -1.000021    2.178400   -3.128227
 H    2.642055   -1.397705    0.884587
 H    0.703760   -0.933378   -2.104106
 H   -1.316678    1.118621    3.193955
 H   -5.985739   -0.059464    0.160219
 H    4.514252   -1.492837   -1.826925
 H    4.241837   -2.723213   -0.569151
 H    5.860742   -2.069869   -0.844249
 H    6.345877    0.386105   -0.321781
 H    4.897284    0.968173   -1.159874
 H    5.186435    1.380327    0.545813
 H    4.639730   -2.099919    1.909805
 H    6.188073   -1.360406    1.483359
 H    5.006657   -0.421818    2.370238
 H    2.739695    1.565749    0.695779
 H    1.710773    0.600569    1.580605
 H    3.302884    0.708616    2.036323
 H   -2.637246   -2.950711   -1.368897
 H   -1.960454   -3.259506    0.250425
 H   -4.197458   -2.246917    0.459033
 H   -3.139816   -0.194309   -1.496749
 H   -5.200870   -0.511663   -2.230752
 H   -4.129180    1.625798   -0.263193
 H   -3.572632    0.682701    2.270359
 H    2.090009    3.785937    0.637541
 H    2.574984    3.503296   -0.943636
