54 
3coz_ligand_xtb.xyz
 C   -1.652554    1.893092    0.217955
 C   -0.430528    2.579883    0.270348
 C   -0.377822    3.823891   -0.388616
 C   -0.201269    0.796215    1.421317
 N   -1.466140    4.226486   -1.044922
 N   -2.739607    2.326416   -0.418557
 C    4.443923    1.612981    1.212881
 C    4.555885    0.346129    0.366123
 C    5.316385   -0.735254    1.130410
 C    3.157469   -0.179260    0.008523
 N    2.313306    0.908652   -0.562664
 C    3.230060   -1.340658   -1.006637
 O    4.147493   -1.496667   -1.761975
 N    2.137610   -2.172976   -0.986524
 S    0.668687   -1.867293   -0.181358
 O    1.015136   -1.823699    1.189689
 O    0.198222   -0.676983   -0.841766
 O   -0.111871   -3.132461   -0.645746
 C   -1.473623   -2.956752   -1.033676
 C   -2.315216   -2.569057    0.190858
 O   -1.593123   -1.579689    0.923544
 C   -3.672642   -1.950733   -0.178603
 O   -4.611226   -2.314724    0.780539
 C   -3.369048   -0.439454   -0.132258
 O   -4.526557    0.287751    0.076134
 C   -2.354135   -0.386329    1.035405
 N   -1.474863    0.751490    0.957604
 N    0.468474    1.845758    1.017565
 C   -2.555779    3.486646   -1.030374
 N    0.722830    4.601163   -0.434449
 H    0.198963    0.016815    2.036875
 H    4.063596    2.460414    0.648067
 H    5.427935    1.885457    1.582896
 H    3.799154    1.441577    2.071228
 H    5.097844    0.561063   -0.560148
 H    5.423154   -1.631701    0.527590
 H    6.310588   -0.379716    1.383938
 H    4.796041   -0.990040    2.050037
 H    2.664482   -0.552487    0.909179
 H    2.869355    1.503952   -1.181364
 H    1.790159    1.473201    0.225025
 H    1.516301    0.476904   -1.069903
 H    2.190412   -2.959149   -1.618503
 H   -1.791768   -3.910940   -1.454340
 H   -1.511701   -2.165146   -1.788804
 H   -2.458564   -3.434037    0.847303
 H   -3.997001   -2.260467   -1.182603
 H   -5.326055   -1.660700    0.767963
 H   -2.848774   -0.140337   -1.053333
 H   -4.318481    1.228564   -0.084095
 H   -2.890444   -0.381040    1.998734
 H   -3.404485    3.877476   -1.572875
 H    1.425319    4.487919    0.276884
 H    0.592497    5.523922   -0.819652
