53 
3cp9_ligand_dft.xyz
 N   -6.768364   -0.887896   -1.227285
 C   -5.682703   -0.179861   -1.397192
 C   -4.604413   -0.168451   -0.479905
 C   -4.759894   -1.000592    0.654392
 N   -5.880809   -1.742312    0.843402
 C   -6.812865   -1.642124   -0.083780
 C   -3.428932    0.597187   -0.652326
 C   -2.417290    0.553090    0.278480
 C   -2.572108   -0.302268    1.407435
 C   -3.703511   -1.049547    1.598881
 N   -7.975521   -2.333414    0.095575
 C   -1.188843    1.372723    0.119436
 C    0.073874    0.631061    0.169179
 N    1.240114    1.407020   -0.019997
 C    1.190795    2.758323   -0.228145
 C    0.019293    3.434244   -0.247892
 C   -1.212094    2.733496   -0.059166
 C   -2.479418    3.550075   -0.060686
 O    0.158458   -0.573609    0.362219
 C    2.526227    0.770353    0.054332
 C    3.468162    1.273061    0.947120
 C    4.746772    0.708725    0.994139
 C    5.054515   -0.341900    0.153875
 C    4.086506   -0.848576   -0.724428
 C    2.815017   -0.298579   -0.795463
 C    6.316545   -1.178600    0.028954
 C    6.059297   -1.870084   -1.336320
 N    4.599183   -1.933206   -1.432423
 C    6.350684   -2.223005    1.158232
 C    7.604861   -0.356625    0.020617
 H   -5.628684    0.424047   -2.304368
 H   -3.330123    1.217697   -1.540314
 H   -1.761777   -0.360432    2.125717
 H   -3.818012   -1.694105    2.463904
 H   -8.562453   -2.454413   -0.713895
 H   -7.965665   -3.065966    0.787129
 H    2.150839    3.237091   -0.379738
 H    0.021772    4.505577   -0.411705
 H   -2.819353    3.739805   -1.085817
 H   -3.290885    3.049651    0.470831
 H   -2.300193    4.523985    0.405794
 H    3.199051    2.088048    1.611426
 H    5.485571    1.099315    1.688994
 H    2.057490   -0.687884   -1.464971
 H    6.499775   -2.870978   -1.381801
 H    6.489711   -1.262895   -2.149334
 H    4.211540   -2.106769   -2.349192
 H    6.396150   -1.730469    2.135449
 H    5.453479   -2.849325    1.133074
 H    7.230197   -2.870497    1.058669
 H    7.571804    0.423900   -0.746629
 H    7.764791    0.127273    0.990607
 H    8.472237   -0.997898   -0.175115
