44 
3cpc_ligand_dft.xyz
 C   -2.916791    0.536277   -0.751386
 C   -4.094660   -0.203897   -0.504413
 C   -5.103396   -0.431215   -1.472087
 N   -6.192183   -1.112999   -1.233032
 C   -6.313739   -1.613708    0.037484
 N   -7.478820   -2.279946    0.275547
 N   -5.450636   -1.496164    1.027776
 C   -4.325542   -0.784576    0.765530
 C   -3.340525   -0.610875    1.770787
 C   -2.204313    0.106128    1.506313
 C   -1.975577    0.709981    0.236553
 C   -0.745190    1.505412   -0.007455
 C    0.516274    0.816346    0.272236
 O    0.603647   -0.319526    0.715810
 C   -0.764354    2.799348   -0.463838
 C   -2.033604    3.572474   -0.714285
 C    0.472989    3.472235   -0.716998
 C    1.645836    2.842094   -0.487040
 N    1.688141    1.561056   -0.001282
 C    2.961045    0.971711    0.285034
 C    3.301942   -0.260635   -0.267340
 C    3.861385    1.654872    1.095213
 C    5.122154    1.116137    1.339268
 C    5.474356   -0.107450    0.788844
 C    4.557625   -0.791967   -0.009652
 C    4.935262   -2.141628   -0.560939
 F    6.206110   -2.149828   -1.003196
 F    4.843928   -3.098024    0.377591
 F    4.150175   -2.508351   -1.584708
 H   -2.758463    0.960254   -1.740563
 H   -4.988492   -0.028533   -2.479620
 H   -8.010452   -2.573974   -0.527635
 H   -7.518876   -2.847220    1.107037
 H   -3.512641   -1.063479    2.741462
 H   -1.448571    0.218147    2.276056
 H   -2.302154    3.544694   -1.777016
 H   -2.876222    3.171943   -0.147974
 H   -1.893865    4.623793   -0.443504
 H    0.476673    4.485832   -1.100499
 H    2.609235    3.298992   -0.680276
 H    2.589426   -0.795057   -0.881600
 H    3.571138    2.600657    1.542930
 H    5.824996    1.652710    1.968008
 H    6.454599   -0.532757    0.975507
