28 
3cqw_ligand_xtb.xyz
 C    2.406634    1.053156   -0.778403
 C    1.200731    2.825931   -0.144684
 C    1.550901    0.161566    0.018306
 C   -2.887461    0.296187   -0.226179
 N    3.444006    0.365111   -1.332804
 C   -2.601709    1.450315    0.639829
Cl    1.950862   -2.499550    0.830571
 C    2.234175   -1.050081   -0.017440
 C    3.359562   -0.855979   -0.883295
 N    2.216725    2.342395   -0.852531
 C    0.432466    0.793432    0.611673
 N    0.352718    2.139877    0.577545
 N   -0.600712    0.173594    1.219449
 C   -1.056542   -1.151222    0.842172
 C   -2.121433   -0.932340   -0.171664
 N   -2.580234   -1.765034   -1.087793
 C   -3.599361   -1.081819   -1.653712
 N   -3.829831    0.141033   -1.146928
 C   -1.658874    0.989275    1.769706
 H    1.060449    3.897746   -0.169342
 H   -3.515762    1.913311    1.013640
 H   -2.047309    2.203772    0.065273
 H    4.077122   -1.606844   -1.156896
 H   -1.434253   -1.674784    1.728496
 H   -0.257455   -1.750286    0.406183
 H   -4.198200   -1.499521   -2.439221
 H   -2.205276    0.383227    2.495718
 H   -1.217209    1.856369    2.260025
