28 
3cqw_ligand_dft.xyz
 C    2.445766    1.072739   -0.745013
 C    1.202406    2.841580   -0.154989
 C    1.575437    0.178162    0.038219
 C   -3.015454    0.199983   -0.138209
 N    3.543797    0.397577   -1.279664
 C   -2.813055    1.332191    0.802605
Cl    1.987674   -2.490786    0.846083
 C    2.254299   -1.017316    0.017772
 C    3.432907   -0.810728   -0.818859
 N    2.272232    2.351928   -0.856205
 C    0.407932    0.809669    0.575367
 N    0.312508    2.169067    0.521540
 N   -0.658008    0.185477    1.095192
 C   -1.067054   -1.196080    0.797107
 C   -2.180331   -0.967782   -0.162274
 N   -2.470037   -1.709777   -1.233899
 C   -3.503794   -1.021533   -1.770969
 N   -3.868798    0.135181   -1.158555
 C   -1.705726    0.946369    1.796137
 H    1.090222    3.921640   -0.173627
 H   -3.735875    1.629465    1.313087
 H   -2.448647    2.207109    0.247196
 H    4.161798   -1.585326   -1.035296
 H   -1.329472   -1.706795    1.730107
 H   -0.274741   -1.754589    0.305840
 H   -4.032428   -1.388510   -2.643427
 H   -2.086615    0.285262    2.580487
 H   -1.256541    1.825410    2.251991
