49 
3cr5_ligand_dft.xyz
 C   -3.671571   -1.255203   -0.337946
 C   -2.952615   -0.354043    0.454178
 C   -3.437555    0.933783    0.645963
 C   -4.634809    1.352396    0.067884
 C   -5.338737    0.445154   -0.732341
 C   -4.866594   -0.841301   -0.934115
 C   -2.071939   -3.021127   -0.090830
 C   -0.892337   -2.556859   -0.940176
 C   -5.109704    2.744063    0.304766
 C    0.455640   -3.075637   -0.433866
 C    3.643450   -1.209124    0.258066
 C    3.276954   -0.197348    1.149019
 C    3.754486    1.095001    0.954509
 C    4.589961    1.408886   -0.115357
 C    4.942052    0.386591   -1.005621
 C    4.480150   -0.905058   -0.821465
 C    2.293915   -2.892997    1.312362
 C    0.877041   -2.487481    0.915877
 C    5.095526    2.801957   -0.292580
 O   -3.312235   -2.540339   -0.583654
 O    3.265725   -2.509406    0.351327
 N   -4.262075    3.644609    0.635146
 N   -6.470250    2.941867    0.090967
 N    5.428525    3.608714    0.644268
 N    5.244500    3.198294   -1.611613
 H   -2.016286   -0.637037    0.921353
 H   -2.881943    1.642779    1.250566
 H   -6.250617    0.755247   -1.234490
 H   -5.403478   -1.545697   -1.560637
 H   -1.955708   -2.747530    0.965509
 H   -2.157833   -4.110802   -0.136448
 H   -0.872323   -1.461054   -0.980316
 H   -1.062676   -2.903058   -1.965590
 H    1.225961   -2.832353   -1.172944
 H    0.431903   -4.172531   -0.363164
 H    2.620122   -0.394491    1.988036
 H    3.448038    1.879674    1.640975
 H    5.602993    0.609581   -1.837743
 H    4.760532   -1.705024   -1.498710
 H    2.372886   -3.983113    1.353654
 H    2.560294   -2.505671    2.303933
 H    0.206226   -2.820275    1.718218
 H    0.800414   -1.393521    0.874307
 H   -4.721765    4.542456    0.799778
 H   -6.833282    3.830066    0.409114
 H   -7.073400    2.166961    0.329992
 H    5.388011    3.134624    1.545427
 H    5.467612    4.181538   -1.699061
 H    4.531600    2.882891   -2.254481
