67 
3cs7_ligand_xtb.xyz
 C    2.163022   -0.776691   -0.012311
 C   -3.445166   -0.392210   -2.096963
 C   -5.391298    1.018251   -1.375858
 C   -4.006892    0.482555   -1.174472
 C    6.197182    5.531532   -0.039861
 C    1.209568   -3.082719   -0.250868
 C    0.207268   -2.344450   -1.137032
 C   -5.626985    2.503636   -1.368183
 C   -2.171710   -0.893254   -1.913616
 C   -6.443052    0.103077   -0.769818
 C    4.466976   -3.615253    0.181527
 C    2.349612   -2.155914   -0.042983
 C   -6.565761    0.966640    1.580061
 C    4.691320    3.754130    0.447123
 C    3.537334    3.346004    1.125012
 C    3.090276    2.047600    1.043618
 C    3.787229    1.130023    0.264120
 C    4.947326    1.517327   -0.394022
 C    5.397744    2.820041   -0.309944
 N    3.392619   -0.220514    0.175326
 N    4.325226   -1.146232    0.247353
 N   -0.125776   -1.030202   -0.594328
 C   -1.427301   -0.547408   -0.784511
 C   -2.002931    0.301762    0.161043
 C   -3.270644    0.813956   -0.038181
 C    0.856450   -0.141234   -0.174013
 C    3.724657   -2.325932    0.128887
 O    0.610071    1.026039    0.046433
 F    5.787032   -3.475340    0.203554
 F    4.122208   -4.341084    1.264584
 F    4.166369   -4.393573   -0.880897
 O    5.032741    5.051457    0.595743
 C   -5.733869    1.735808   -2.650415
 N   -6.145364   -0.118255    0.665086
 C   -6.744927   -1.330753    1.265275
 C   -6.568157   -1.143195    2.775752
 C   -6.337134    0.369545    2.965479
 H   -4.001065   -0.658463   -2.983514
 H    7.090858    5.011063    0.316167
 H    6.126616    5.438386   -1.127570
 H    6.263244    6.584492    0.227682
 H    1.526930   -4.005293   -0.736210
 H    0.759131   -3.340888    0.712504
 H   -0.715535   -2.922657   -1.208174
 H    0.636045   -2.235649   -2.141923
 H   -4.771818    3.147996   -1.237755
 H   -6.535714    2.888898   -0.930123
 H   -1.747825   -1.530996   -2.672130
 H   -6.416779   -0.868232   -1.272362
 H   -7.445293    0.523569   -0.869276
 H   -7.625094    1.166343    1.408393
 H   -5.996265    1.875790    1.396599
 H    3.012902    4.074312    1.721804
 H    2.207834    1.748035    1.582562
 H    5.495475    0.787689   -0.969074
 H    6.297637    3.095576   -0.834983
 H   -1.448804    0.580129    1.041076
 H   -3.662041    1.525689    0.677228
 H   -6.711372    1.582266   -3.080272
 H   -4.951244    1.857499   -3.381676
 H   -5.111994   -0.186243    0.722781
 H   -6.262314   -2.229358    0.883442
 H   -7.801720   -1.354585    0.992405
 H   -5.717503   -1.712574    3.145188
 H   -7.449881   -1.486877    3.310715
 H   -7.015303    0.799677    3.697533
 H   -5.319829    0.563577    3.303243
