65 
3cso_ligand_xtb.xyz
 C    4.571928    2.325494   -1.140074
 C    4.349907    2.807701    0.292362
 C    4.248256    1.566973    1.186419
 C    3.267769    0.541070    0.683663
 C    2.925608    0.471686   -0.626112
 C    3.465723    1.405844   -1.612508
 C    1.913700   -1.330338    1.708267
 N    2.251143   -1.880822   -0.633919
 C    1.976574   -0.550722   -1.191233
 C    1.293463   -1.625417    2.924773
 C    0.728811   -3.187098    0.727539
 C    0.510606   -0.249940   -0.992186
 C    3.027868   -2.752743   -1.333579
 C    3.386471   -4.038884   -0.618500
 C   -1.302778    0.779935    0.194383
 C   -1.779307   -0.738781   -1.585688
 C   -0.420951   -0.914059   -1.776936
 O   -3.549638    0.355882   -0.305538
 C   -5.903706    0.166664   -0.585705
 C   -8.416249    0.930265    0.323354
 C   -7.342651    0.893656    1.196193
 C   -6.092093    0.508962    0.746009
 C    5.532743    3.665258    0.747181
 C    3.065464    3.634884    0.375267
Cl   -1.857792    1.832486    1.444308
 C    0.051382    0.607239   -0.001885
 C   -2.249594    0.111954   -0.590476
 C   -4.549068   -0.269071   -1.082199
 C   -8.234049    0.584819   -1.005092
 C   -6.982645    0.208247   -1.458834
 O    3.059105    1.441472   -2.757098
 O    3.433873   -2.497407   -2.447196
 C    1.647590   -2.150845    0.605164
 C    0.116498   -3.459371    1.934491
 C    0.408798   -2.676392    3.040128
 N    2.802523   -0.265519    1.688765
 H    4.642239    3.164978   -1.833172
 H    5.508050    1.762441   -1.199735
 H    5.233366    1.089951    1.242892
 H    3.976602    1.874082    2.201086
 H    2.184620   -0.614525   -2.268046
 H    1.511464   -1.009529    3.786417
 H    0.503296   -3.780017   -0.145246
 H    3.478112   -3.891442    0.454052
 H    2.625449   -4.792542   -0.807219
 H    4.326206   -4.400439   -1.028341
 H   -2.470950   -1.270423   -2.219412
 H   -0.078068   -1.579846   -2.554601
 H   -9.392224    1.229737    0.675555
 H   -7.478857    1.164485    2.232834
 H   -5.251530    0.483884    1.421614
 H    5.393823    3.996136    1.774441
 H    5.624564    4.545164    0.115683
 H    6.463878    3.105574    0.688858
 H    2.882628    3.959775    1.397830
 H    2.208533    3.060662    0.032295
 H    3.148979    4.518512   -0.252379
 H    0.737746    1.154322    0.623639
 H   -4.434750    0.000852   -2.141315
 H   -4.463750   -1.364676   -0.993595
 H   -9.067319    0.614220   -1.691598
 H   -6.841928   -0.054727   -2.497788
 H   -0.587027   -4.273232    2.013026
 H   -0.060295   -2.879333    3.990402
 H    3.040820    0.056552    2.618225
