30 
3ctt_ligand_dft.xyz
 O    2.943738   -0.207688   -1.271791
 C    2.137866    0.348081   -0.264585
 C    0.681943    0.501956   -0.730776
 C   -0.182781    1.555590   -0.040771
 O   -0.141399    2.715864   -0.818322
 C   -1.555747    0.890444    0.059418
 O   -2.343527    1.517784    1.031703
 C   -1.202522   -0.550613    0.453763
 C   -2.260703   -1.596056    0.152385
 O   -2.323940   -1.675349   -1.258482
 N    0.021491   -0.837803   -0.387557
 C    1.070047   -1.714034    0.245786
 C    2.051997   -0.719289    0.842735
 O    1.465099   -0.216458    2.020861
 H    3.220200    0.481615   -1.888169
 H    2.527068    1.301017    0.113861
 H    0.625281    0.645669   -1.811811
 H    0.176041    1.732099    0.982340
 H   -0.569309    3.428199   -0.326099
 H   -2.027344    0.906299   -0.932101
 H   -3.250614    1.599363    0.717930
 H   -0.905856   -0.565962    1.504527
 H   -3.206345   -1.263117    0.598695
 H   -1.994397   -2.563208    0.599968
 H   -2.942311   -2.364930   -1.527714
 H   -0.348208   -1.280104   -1.238496
 H    1.545084   -2.296955   -0.543412
 H    0.609315   -2.368309    0.986003
 H    3.029472   -1.179749    1.014920
 H    2.121117    0.282983    2.522976
