64 
3cvk_ligand_xtb.xyz
 C    2.256188    1.193702   -0.100271
 C    5.033468    0.823347   -0.324394
 C    2.874385    0.034187    0.351918
 C   -1.421900    0.690959   -0.088458
 C   -1.815436    1.995573   -0.477994
 C   -2.385974   -0.370757    0.117888
 C   -4.057034    2.028227    1.494478
 C   -7.682416   -2.016582   -2.018917
 C   -7.826466   -1.638939    0.440695
 C   -4.785821   -0.978744    0.348823
 C   -6.893396   -2.036387   -0.705677
 O    6.145921   -1.803690   -1.101335
 S    7.136478   -0.874942   -0.665942
 O    8.262003   -0.590708   -1.492503
 C    7.686759   -1.272112    0.997695
 N    6.389591    0.646768   -0.432826
 C    4.422200    2.013485   -0.746932
 C    4.232428   -0.166077    0.252864
 S    1.842078   -1.098781    1.234439
 O    2.207484   -2.460712    1.103673
 O    1.573800   -0.556117    2.529130
 N    0.391059   -0.861265    0.335544
 C   -0.025472    0.382364    0.075460
 N    0.876413    1.354202   -0.060808
 C    3.060992    2.197307   -0.643736
 O   -2.117626   -1.552448    0.262443
 N   -3.725633   -0.004639    0.139880
 N   -4.118067    1.339816    0.170253
 C   -4.280401    3.493545    1.132057
 C   -3.326039    2.222386   -0.718539
 C   -3.747844    3.633778   -0.308971
 O   -1.068424    2.953171   -0.670146
 C   -5.736661   -1.023224   -0.845903
 C   -6.352274   -3.446800   -0.468835
 H   -3.061422    1.858764    1.907707
 H   -4.804075    1.622665    2.174737
 H   -7.051469   -2.315687   -2.852280
 H   -8.519208   -2.706748   -1.964728
 H   -8.077611   -1.023627   -2.223669
 H   -8.193525   -0.621968    0.313124
 H   -7.332986   -1.718483    1.406198
 H   -8.686302   -2.302456    0.457744
 H   -5.315459   -0.747005    1.277461
 H   -4.280164   -1.937469    0.465053
 H    8.419819   -0.531524    1.287215
 H    8.136064   -2.257313    0.966971
 H    6.832756   -1.265624    1.661013
 H    6.899372    1.384756   -0.894779
 H    5.033547    2.795200   -1.171356
 H    4.645032   -1.101381    0.586787
 H   -0.355262   -1.566836    0.374767
 H    2.608829    3.113119   -0.992146
 H   -5.100421    1.356790   -0.147760
 H   -3.755139    4.147713    1.823006
 H   -5.339459    3.745388    1.177414
 H   -3.534221    1.995882   -1.767972
 H   -2.876598    4.287161   -0.364564
 H   -4.509670    4.033155   -0.975558
 H    0.484712    2.270900   -0.327364
 H   -5.156314   -1.279867   -1.734555
 H   -6.185568   -0.035628   -1.015517
 H   -5.610991   -3.707784   -1.219933
 H   -5.901431   -3.542161    0.515292
 H   -7.164222   -4.165924   -0.532159
