59 
3cwj_ligand_dft.xyz
 O    7.130245   -0.947366    1.243870
 S    7.431873    0.074800    0.261560
 O    8.672758    0.828022    0.295433
 C    7.242859   -0.670118   -1.354133
 N    6.239731    1.252323    0.330331
 C    4.881343    1.014114    0.019382
 C    4.180096    1.964396   -0.739971
 C    4.221691   -0.129024    0.449522
 C    2.890737   -0.327380    0.083951
 S    2.135646   -1.883267    0.443248
 O    2.544627   -2.338731    1.768897
 O    2.370933   -2.765578   -0.699775
 C    0.460120   -1.413613    0.483114
 C   -0.016329   -0.384386   -0.259628
 N    0.820287    0.490932   -0.917330
 C    2.170063    0.627606   -0.636362
 C    2.845116    1.789635   -1.041434
 C   -1.473565   -0.104924   -0.388436
 C   -2.438449   -1.067599   -0.183228
 O   -2.112572   -2.331325    0.101956
 C   -1.930655    1.220134   -0.793939
 O   -1.206191    2.179301   -1.081851
 N   -3.308748    1.395182   -0.883823
 C   -3.830405    2.724089   -1.230948
 C   -3.774917    3.699243   -0.054477
 C   -4.503982    3.243411    1.217525
 C   -4.295897    4.277672    2.326832
 C   -5.995564    2.991896    0.980408
 N   -4.224598    0.474481   -0.621236
 C   -3.835385   -0.717892   -0.274859
 C   -4.883470   -1.718412   -0.016346
 C   -4.968339   -2.618531    1.019685
 S   -6.252151   -1.852507   -1.068212
 C   -6.924761   -3.115199   -0.114739
 C   -6.141978   -3.421142    0.959464
 H    7.974693   -1.477367   -1.418587
 H    6.233245   -1.075252   -1.446517
 H    7.436171    0.083692   -2.118589
 H    6.613376    2.153436    0.058616
 H    4.688714    2.862409   -1.080788
 H    4.726133   -0.871799    1.059702
 H   -0.167840   -2.080725    1.051004
 H    0.349493    1.323360   -1.268231
 H    2.309579    2.552204   -1.599331
 H   -2.911461   -2.884209    0.060631
 H   -4.852157    2.555039   -1.572241
 H   -3.232795    3.102694   -2.061624
 H   -4.209514    4.647051   -0.400923
 H   -2.723167    3.900749    0.175316
 H   -4.049321    2.299756    1.551910
 H   -3.231036    4.447186    2.520496
 H   -4.744418    5.239810    2.049411
 H   -4.761825    3.949925    3.262166
 H   -6.479875    3.888647    0.572769
 H   -6.164858    2.162581    0.286638
 H   -6.498302    2.741424    1.920709
 H   -4.245950   -2.669193    1.828158
 H   -7.867603   -3.563296   -0.397321
 H   -6.392225   -4.181413    1.688963
