100 
3cyx_ligand_dft.xyz
 O    3.575419   -1.440408    0.888342
 C    4.271965   -0.474913    0.565991
 N    6.357267    0.476336   -0.140316
 C    5.726502   -0.621625    0.216304
 C    6.320093   -1.900081    0.284493
 C    7.646095   -2.009749   -0.040559
 C    8.369337   -0.857898   -0.432253
 C    9.742923   -0.888745   -0.784918
 C   10.386916    0.261969   -1.156168
 C    9.690954    1.495875   -1.193082
 C    8.364382    1.558780   -0.858164
 C    7.672546    0.383004   -0.469408
 N    3.800698    0.787785    0.491759
 C    2.450268    1.123847    0.894646
 C    1.442939    0.818886   -0.228128
 O    0.890399    1.719849   -0.868981
 C    2.342704    2.575655    1.327665
 C    0.985811    2.837285    1.968794
 O    0.200934    1.936531    2.239387
 N    0.710770    4.139067    2.222171
 C   -1.083796   -0.504300   -1.406269
 O   -1.182267    0.655193   -2.204277
 C    0.345830   -1.094500   -1.397709
 N    1.216859   -0.491315   -0.395559
 C    0.366163   -2.626867   -1.202075
 C   -0.319660   -3.104595    0.058495
 C   -1.650463   -3.532456    0.017574
 C    0.333292   -3.070087    1.294752
 C   -2.324441   -3.877403    1.185902
 C   -0.339898   -3.413184    2.463573
 C   -1.673647   -3.808719    2.414597
 N   -2.750122    0.797522   -0.127808
 C   -1.643099   -0.216443    0.006486
 C   -4.051868    0.311558    0.418087
 C   -4.480117   -0.877741   -0.455716
 O   -4.210353   -0.841778   -1.651053
 C   -5.138374    1.388837    0.302047
 C   -4.716773    2.745814    0.874277
 C   -5.805780    3.811988    0.681699
 C   -5.960692    4.251315   -0.778474
 C   -4.622946    4.708693   -1.365789
 C   -3.552205    3.622654   -1.227469
 C   -3.387622    3.195098    0.239837
 C   -2.327186    2.124319    0.435781
 N   -5.205363   -1.825301    0.161315
 C   -6.039153   -2.848215   -0.520401
 C   -6.703944   -3.662829    0.591606
 C   -5.171204   -3.758998   -1.394476
 C   -7.102432   -2.139876   -1.369319
 H    5.720309   -2.749007    0.589601
 H    8.151550   -2.970703   -0.001705
 H   10.272620   -1.836713   -0.755268
 H   11.438290    0.233789   -1.423816
 H   10.219104    2.396432   -1.489938
 H    7.813387    2.493144   -0.879815
 H    4.456898    1.490418    0.169530
 H    2.189550    0.481621    1.741745
 H    2.476879    3.245266    0.471581
 H    3.127909    2.794261    2.060963
 H    1.392283    4.867243    2.076948
 H   -0.114403    4.361052    2.758516
 H   -1.741732   -1.233593   -1.885799
 H   -0.428013    1.228476   -1.945197
 H    0.747184   -0.883176   -2.396826
 H    1.827940   -1.105601    0.141252
 H    1.413215   -2.952100   -1.212834
 H   -0.110121   -3.075786   -2.079359
 H   -2.167659   -3.584085   -0.937937
 H    1.382313   -2.790071    1.353169
 H   -3.357482   -4.208863    1.136632
 H    0.183141   -3.378911    3.414159
 H   -2.195043   -4.082954    3.326618
 H   -2.858580    0.912909   -1.150490
 H   -0.896102    0.201032    0.682659
 H   -2.047990   -1.118515    0.464120
 H   -3.870684    0.040046    1.463660
 H   -6.030395    1.019443    0.819615
 H   -5.407459    1.480221   -0.755751
 H   -4.548203    2.613589    1.952784
 H   -6.759877    3.442127    1.075765
 H   -5.536873    4.687374    1.287360
 H   -6.363695    3.429114   -1.384234
 H   -6.695340    5.060679   -0.837379
 H   -4.743115    4.981131   -2.418954
 H   -4.286619    5.613293   -0.840825
 H   -3.830558    2.767878   -1.860055
 H   -2.589818    3.981788   -1.609639
 H   -3.028985    4.071811    0.796499
 H   -1.388144    2.372620   -0.063121
 H   -2.101515    1.957997    1.492205
 H   -5.353316   -1.719528    1.155234
 H   -7.346054   -3.033426    1.219474
 H   -7.331750   -4.443529    0.154528
 H   -5.957147   -4.150558    1.228693
 H   -5.809668   -4.491933   -1.897179
 H   -4.641559   -3.181888   -2.154522
 H   -4.444431   -4.308271   -0.788911
 H   -6.636179   -1.545934   -2.159514
 H   -7.758842   -2.878798   -1.838802
 H   -7.719561   -1.482689   -0.747092
