100 
3cyx_ligand_xtb.xyz
 O    3.534190   -1.698661    0.525822
 C    4.220618   -0.689530    0.402864
 N    6.243168    0.458442   -0.109174
 C    5.645434   -0.709580   -0.023099
 C    6.276060   -1.935069   -0.309042
 C    7.588181   -1.917443   -0.697618
 C    8.263415   -0.684312   -0.798810
 C    9.613013   -0.570700   -1.188021
 C   10.208994    0.657045   -1.264149
 C    9.486472    1.823490   -0.957159
 C    8.176348    1.752292   -0.577486
 C    7.532002    0.499261   -0.487901
 N    3.752819    0.549512    0.635356
 C    2.421605    0.801235    1.134309
 C    1.389254    0.666534   -0.002394
 O    0.852301    1.636480   -0.525355
 C    2.307067    2.169336    1.791754
 C    0.958752    2.290950    2.483678
 O    0.063539    1.478541    2.352871
 N    0.825721    3.393976    3.241659
 C   -1.103149   -0.471347   -1.366938
 O   -1.103674    0.734786   -2.084755
 C    0.294662   -1.126401   -1.353204
 N    1.152344   -0.608765   -0.302361
 C    0.248054   -2.659375   -1.219875
 C   -0.334002   -3.123826    0.087008
 C   -1.689081   -3.420707    0.187451
 C    0.465898   -3.260766    1.215753
 C   -2.238265   -3.811862    1.396663
 C   -0.084601   -3.649422    2.425113
 C   -1.438969   -3.917269    2.522040
 N   -2.720191    0.848028   -0.096104
 C   -1.696599   -0.218382    0.044440
 C   -4.070489    0.439459    0.337234
 C   -4.523852   -0.759944   -0.528970
 O   -4.110771   -0.855220   -1.666255
 C   -5.077783    1.561614    0.063379
 C   -4.654780    2.888565    0.694461
 C   -5.637894    4.017079    0.366041
 C   -5.570814    4.448687   -1.096686
 C   -4.146688    4.839357   -1.477843
 C   -3.188842    3.676536   -1.230875
 C   -3.237106    3.259325    0.241705
 C   -2.285502    2.106764    0.546518
 N   -5.403200   -1.568214    0.067244
 C   -6.194550   -2.616505   -0.605549
 C   -7.032636   -3.295202    0.474346
 C   -5.263837   -3.628930   -1.270466
 C   -7.094019   -1.954668   -1.651312
 H    5.709995   -2.847660   -0.212123
 H    8.115892   -2.831809   -0.927962
 H   10.163164   -1.470208   -1.422799
 H   11.243132    0.741065   -1.561645
 H    9.980386    2.781045   -1.024825
 H    7.607578    2.637531   -0.339000
 H    4.398992    1.307256    0.452704
 H    2.186257    0.020983    1.871876
 H    2.367515    2.948159    1.027288
 H    3.111340    2.312587    2.513981
 H    1.576040    4.049820    3.367451
 H   -0.026051    3.541128    3.757949
 H   -1.785597   -1.125213   -1.920825
 H   -0.357240    1.277175   -1.735493
 H    0.735601   -0.887889   -2.334053
 H    1.792987   -1.289688    0.113912
 H    1.270568   -3.029977   -1.312633
 H   -0.334626   -3.057891   -2.051066
 H   -2.313045   -3.355371   -0.692503
 H    1.530155   -3.090310    1.151162
 H   -3.291847   -4.043946    1.462039
 H    0.548682   -3.753116    3.292894
 H   -1.866618   -4.224458    3.464294
 H   -2.736084    1.023631   -1.126754
 H   -0.935257    0.115309    0.750643
 H   -2.146320   -1.132446    0.429697
 H   -4.024934    0.193207    1.402613
 H   -6.051851    1.264443    0.456047
 H   -5.182530    1.674493   -1.016265
 H   -4.642815    2.753639    1.783179
 H   -6.652447    3.701599    0.614974
 H   -5.396031    4.876053    0.995016
 H   -5.918576    3.644761   -1.747280
 H   -6.237927    5.297858   -1.246960
 H   -4.109881    5.129485   -2.528052
 H   -3.835556    5.699989   -0.882303
 H   -3.460466    2.850109   -1.889845
 H   -2.170574    3.975027   -1.485218
 H   -2.904720    4.117020    0.835857
 H   -1.282031    2.339969    0.184797
 H   -2.221508    1.925353    1.622191
 H   -5.685027   -1.361010    1.013125
 H   -7.713578   -2.586544    0.941945
 H   -7.625132   -4.091430    0.034216
 H   -6.395013   -3.731263    1.240564
 H   -5.853232   -4.390425   -1.772057
 H   -4.638181   -3.135360   -2.007897
 H   -4.632489   -4.114064   -0.530762
 H   -6.487665   -1.465116   -2.408420
 H   -7.712733   -2.703537   -2.135700
 H   -7.744216   -1.215960   -1.187096
