29 
3cyz_ligand_xtb.xyz
 O    4.835733   -1.069951   -0.132015
 C    4.388376    0.048370   -0.133777
 C    4.685709    1.040340   -1.228734
 C    3.492706    0.563480    0.975405
 C    2.020239    0.619454    0.546483
 C    1.493307   -0.756794    0.144739
 C    0.045771   -0.730249   -0.344669
 C   -0.960284   -0.403179    0.766475
 C   -2.355155   -0.555932    0.277302
 C   -3.288836    0.392867    0.286745
 C   -4.644056    0.123904   -0.236691
 O   -5.512248    1.156531   -0.160971
 O   -4.988713   -0.926346   -0.706176
 H    3.768634    1.493802   -1.595208
 H    5.316159    1.831683   -0.827174
 H    5.208233    0.551498   -2.046508
 H    3.819984    1.563041    1.266437
 H    3.588203   -0.106889    1.831423
 H    1.902777    1.312176   -0.289786
 H    1.440139    1.010081    1.384379
 H    1.577960   -1.437483    0.994293
 H    2.121500   -1.155431   -0.654438
 H   -0.200594   -1.709586   -0.759051
 H   -0.056700    0.003305   -1.147519
 H   -0.802997    0.609886    1.139176
 H   -0.802945   -1.103556    1.591965
 H   -2.623911   -1.522228   -0.130768
 H   -3.084827    1.381834    0.679438
 H   -5.116451    1.942421    0.236973
