29 
3cyz_ligand_dft.xyz
 O    5.426351    0.570336   -0.878629
 C    4.484359    0.564311   -0.116227
 C    4.130689    1.784800    0.712685
 C    3.604271   -0.664304    0.048144
 C    2.106347   -0.389109   -0.135983
 C    1.270863   -1.665400   -0.016553
 C   -0.218721   -1.471403   -0.311971
 C   -0.926485   -0.515621    0.662770
 C   -2.405205   -0.495250    0.440493
 C   -3.119840    0.571715    0.079815
 C   -4.589702    0.452505   -0.127558
 O   -5.227141    1.590329   -0.489148
 O   -5.213848   -0.569031    0.005840
 H    4.971091    2.480749    0.715949
 H    3.261231    2.287416    0.271829
 H    3.861613    1.510335    1.738403
 H    3.772305   -1.067000    1.057893
 H    3.952432   -1.414232   -0.668452
 H    1.936130    0.065241   -1.121775
 H    1.774101    0.343427    0.609844
 H    1.391631   -2.083646    0.992732
 H    1.669461   -2.416119   -0.710489
 H   -0.717207   -2.448103   -0.275505
 H   -0.347657   -1.096861   -1.335619
 H   -0.520372    0.498199    0.570876
 H   -0.727134   -0.850777    1.690933
 H   -2.942587   -1.435288    0.565828
 H   -2.636548    1.537904   -0.064639
 H   -4.600851    2.322232   -0.555997
