29 
3cz1_ligand_dft.xyz
 O    1.673419   -2.391665   -0.743895
 S    0.808824   -1.633548    0.144178
 O    0.612668   -1.984778    1.539663
 N   -0.682239   -1.659015   -0.578751
 C   -1.796425   -0.885300   -0.031026
 C   -2.002535    0.476022   -0.700805
 C   -3.061208    1.336490   -0.004368
 C   -4.463499    0.725634    0.002680
 C    1.354949    0.068106    0.117613
 C    1.096832    0.883970    1.215330
 C    1.433530    2.232620    1.149456
 C    2.023757    2.749254   -0.001170
 C    2.291942    1.918435   -1.087621
 C    1.957163    0.570066   -1.033335
 H   -0.601826   -1.676700   -1.589319
 H   -1.611765   -0.769170    1.042096
 H   -2.696271   -1.501990   -0.122641
 H   -2.291343    0.317990   -1.749948
 H   -1.051425    1.019525   -0.713353
 H   -3.095942    2.311930   -0.503543
 H   -2.739086    1.531703    1.027265
 H   -4.788864    0.479748   -1.015081
 H   -4.507314   -0.192295    0.598243
 H   -5.191567    1.424508    0.426272
 H    0.650646    0.457627    2.107478
 H    1.239431    2.878566    1.999936
 H    2.284921    3.802040   -0.048901
 H    2.767240    2.320703   -1.976751
 H    2.171910   -0.094552   -1.864024
