29 
3cz1_ligand_xtb.xyz
 O    1.164413   -2.648945   -0.454274
 S    0.390412   -1.594001    0.134166
 O   -0.108800   -1.769249    1.469750
 N   -0.861655   -1.284799   -0.943553
 C   -2.089045   -0.760132   -0.372158
 C   -1.841563    0.641694    0.177648
 C   -3.123332    1.329064    0.651089
 C   -4.038061    1.750522   -0.493292
 C    1.334546   -0.078774    0.047280
 C    1.643285    0.613111    1.200786
 C    2.381215    1.782573    1.109722
 C    2.799297    2.238916   -0.130240
 C    2.488073    1.530534   -1.281122
 C    1.751529    0.361059   -1.193008
 H   -1.001833   -2.106828   -1.511756
 H   -2.450227   -1.406107    0.438594
 H   -2.836649   -0.733442   -1.167294
 H   -1.359779    1.245438   -0.594666
 H   -1.151990    0.553156    1.017552
 H   -2.846023    2.217266    1.222374
 H   -3.661818    0.658595    1.323523
 H   -3.507360    2.403929   -1.182116
 H   -4.400297    0.888608   -1.046989
 H   -4.900225    2.288622   -0.106473
 H    1.301009    0.225571    2.147665
 H    2.630076    2.335242    2.002975
 H    3.373925    3.150498   -0.200621
 H    2.820673    1.889310   -2.243440
 H    1.494933   -0.218103   -2.065157
