59 
3d0e_ligand_xtb.xyz
 C   -3.175732   -1.871661   -0.004893
 N    0.459878    1.037838   -0.151281
 N   -1.767041    0.799424   -0.093622
 C   -1.774106   -1.720630   -0.049351
 O    2.387208   -1.296361   -0.110799
 N   -0.991525   -2.785135   -0.050052
 C   -1.200298   -0.434892   -0.086389
 N   -3.455719    3.090778   -0.226314
 C   -2.278291    3.710757   -0.152865
 N   -2.058622    5.006504   -0.129401
 O   -0.716392    5.171420   -0.093710
 N   -0.069986    4.005353   -0.091445
 C   -0.979102    3.063094   -0.129364
 C   -0.767626    1.650135   -0.125427
 C    1.746673    1.680987   -0.154961
 C    2.228033    1.948285    1.269709
 C   -4.374872   -1.966364    0.057828
 C   -5.836757   -1.989491    0.094525
 C   -6.344892   -3.100778   -0.834345
 C   -6.298479   -2.223643    1.536050
 O   -6.344655   -0.722770   -0.298876
 C    0.208021   -0.306583   -0.116350
 C    1.010398   -1.451471   -0.107331
 C    0.329491   -2.658700   -0.077407
 C    3.177154   -2.460268   -0.076783
 C    4.647141   -2.019747   -0.051028
 C    4.864855   -1.110707    1.159885
 N    6.262469   -0.606651    1.189749
 C    6.591087    0.177106   -0.031783
 C    6.440209   -0.721831   -1.249512
 C    5.018494   -1.269127   -1.331883
 H   -3.452438    2.085796   -0.126980
 H   -4.302427    3.621665   -0.135360
 H    1.652422    2.629424   -0.687835
 H    2.440252    1.024364   -0.685545
 H    3.217991    2.397412    1.253865
 H    2.250953    1.025165    1.847274
 H    1.551171    2.644065    1.757178
 H   -5.982864   -4.067763   -0.496472
 H   -7.432425   -3.105172   -0.831694
 H   -5.994534   -2.936667   -1.852610
 H   -5.947854   -1.411212    2.166755
 H   -5.907209   -3.165157    1.910214
 H   -7.384441   -2.241891    1.563190
 H   -6.155756   -0.584752   -1.233510
 H    0.856942   -3.601694   -0.073591
 H    2.994520   -3.080233   -0.962943
 H    2.947294   -3.054243    0.818310
 H    5.264193   -2.919055    0.043165
 H    4.657351   -1.651208    2.085481
 H    4.185763   -0.258660    1.088967
 H    6.408296   -0.035724    2.029018
 H    6.898993   -1.412500    1.236139
 H    5.899923    1.019868   -0.092154
 H    7.609367    0.560182    0.051125
 H    7.156839   -1.544220   -1.195742
 H    6.669205   -0.146786   -2.145517
 H    4.932261   -1.940695   -2.184773
 H    4.312337   -0.452228   -1.482271
