37 
3d1g_ligand_dft.xyz
 C  -43.195482 -109.615992  -39.875033
 C  -43.334777 -111.226489  -42.657263
 C  -42.111236 -110.163258  -40.790046
 C  -44.660598 -116.024548  -42.638482
 C  -45.003674 -115.523784  -41.377182
 C  -44.303109 -114.327661  -40.769525
 C  -45.319945 -117.115158  -43.179281
 C  -44.124111 -117.059046  -45.252600
 C  -44.110236 -117.832617  -46.554007
 C  -43.266875 -113.640438  -41.659553
Br  -46.493459 -115.526374  -38.958724
Br  -48.065146 -118.163421  -40.286053
 N  -42.601910 -111.323364  -41.494167
 S  -43.969922 -112.796332  -43.118366
 O  -45.076759 -117.674945  -44.395112
 C  -42.542210 -112.564531  -40.865406
 C  -46.021486 -116.167589  -40.671791
 C  -46.689804 -117.275920  -41.207224
 C  -46.344779 -117.753454  -42.465562
 O  -44.266214 -110.132325  -39.688465
 S  -43.598738 -109.862730  -43.523274
 O  -42.786571 -108.484691  -39.287030
 O  -41.975246 -112.751736  -39.817073
 O  -46.980345 -118.813323  -43.001134
 H  -41.802957 -109.399157  -41.505650
 H  -41.252706 -110.463788  -40.185181
 H  -43.866629 -115.560508  -43.210376
 H  -45.047736 -113.583723  -40.463514
 H  -43.784020 -114.631188  -39.852194
 H  -43.135866 -117.079079  -44.773878
 H  -44.406588 -116.010883  -45.418212
 H  -43.383081 -117.390621  -47.241275
 H  -43.832814 -118.875815  -46.378776
 H  -45.095574 -117.805961  -47.027451
 H  -42.505412 -114.355497  -41.988090
 H  -43.508518 -108.189104  -38.709147
 H  -46.590467 -118.963950  -43.875906
