18 
3d1v_ligand_dft.xyz
 O   -0.114362    2.785180    0.000650
 C    0.078927    1.587624   -0.000297
 C   -0.968414    0.553855   -0.000020
 C   -0.603710   -0.796500   -0.000273
 N    0.745324   -1.129181   -0.001005
 C    1.773309   -0.237141   -0.000495
 S    3.367242   -0.701604    0.000694
 N    1.380547    1.076979   -0.001217
 C   -1.588934   -1.788323    0.000090
 C   -2.923556   -1.415510    0.000307
 C   -3.296475   -0.066932    0.000095
 C   -2.318201    0.912128    0.000340
 H    1.020653   -2.101322    0.000249
 H    2.124798    1.763667   -0.000079
 H   -1.305820   -2.836876    0.000121
 H   -3.687735   -2.186596    0.000475
 H   -4.345773    0.207268    0.000446
 H   -2.565886    1.968298   -0.000444
