100 
3d1x_ligand_xtb.xyz
 O    3.533305   -1.696986    0.527685
 C    4.219850   -0.688138    0.403158
 N    6.242223    0.458750   -0.111688
 C    5.644624   -0.709130   -0.022579
 C    6.275512   -1.935287   -0.304880
 C    7.587836   -1.918626   -0.692668
 C    8.262982   -0.685699   -0.796996
 C    9.612826   -0.572950   -1.185586
 C   10.208514    0.654727   -1.265346
 C    9.485469    1.821983   -0.962689
 C    8.175183    1.751587   -0.583369
 C    7.531143    0.498647   -0.490094
 N    3.752242    0.551293    0.633769
 C    2.421396    0.803805    1.133249
 C    1.388305    0.667728   -0.002563
 O    0.850390    1.637043   -0.525727
 C    2.307616    2.172712    1.789068
 C    0.959454    2.295799    2.480954
 O    0.064874    1.482147    2.353477
 N    0.825775    3.401659    3.234661
 C   -1.104218   -0.472437   -1.365001
 O   -1.105930    0.733667   -2.082981
 C    0.294135   -1.126362   -1.351877
 N    1.151850   -0.607887   -0.301517
 C    0.248620   -2.659366   -1.218717
 C   -0.332454   -3.124429    0.088358
 C   -1.687370   -3.421866    0.189406
 C    0.468108   -3.261600    1.216593
 C   -2.235725   -3.813915    1.398676
 C   -0.081535   -3.651236    2.425996
 C   -1.435742   -3.919703    2.523553
 N   -2.720697    0.847040   -0.094130
 C   -1.697282   -0.219497    0.046538
 C   -4.071503    0.438616    0.337610
 C   -4.524294   -0.760546   -0.529118
 O   -4.109837   -0.856358   -1.665889
 C   -5.078213    1.561067    0.062918
 C   -4.655584    2.887675    0.694888
 C   -5.638120    4.016482    0.365827
 C   -5.569109    4.448754   -1.096628
 C   -4.144429    4.839383   -1.475869
 C   -3.187071    3.676278   -1.228395
 C   -3.237306    3.258308    0.243912
 C   -2.286368    2.105405    0.549410
 N   -5.404974   -1.568182    0.065974
 C   -6.195109   -2.616785   -0.607765
 C   -7.036894   -3.293482    0.470507
 C   -5.263051   -3.630876   -1.268282
 C   -7.090819   -1.955971   -1.657378
 H    5.709372   -2.847606   -0.205821
 H    8.115792   -2.833616   -0.919979
 H   10.163408   -1.473002   -1.417051
 H   11.242814    0.738116   -1.562427
 H    9.979046    2.779538   -1.033340
 H    7.605943    2.637378   -0.347964
 H    4.398439    1.308733    0.449945
 H    2.186387    0.024478    1.871907
 H    2.368506    2.950673    1.023794
 H    3.111959    2.316179    2.511172
 H    1.575892    4.058224    3.358040
 H   -0.025848    3.550182    3.750792
 H   -1.786394   -1.126839   -1.918560
 H   -0.359653    1.276584   -1.734024
 H    0.734458   -0.887438   -2.332924
 H    1.792709   -1.288360    0.115148
 H    1.271244   -3.029399   -1.312307
 H   -0.334404   -3.058021   -2.049592
 H   -2.311748   -3.356348   -0.690257
 H    1.532265   -3.090545    1.151496
 H   -3.289165   -4.046486    1.464447
 H    0.552341   -3.755178    3.293329
 H   -1.862706   -4.227647    3.465842
 H   -2.735280    1.023173   -1.124837
 H   -0.935662    0.114246    0.752420
 H   -2.146970   -1.133448    0.432098
 H   -4.027121    0.192177    1.402993
 H   -6.052735    1.264005    0.454481
 H   -5.181789    1.674289   -1.016795
 H   -4.644766    2.752365    1.783561
 H   -6.653023    3.701002    0.613324
 H   -5.396909    4.875119    0.995501
 H   -5.916151    3.645129   -1.748002
 H   -6.235874    5.298141   -1.247367
 H   -4.106322    5.130164   -2.525858
 H   -3.833819    5.699595   -0.879440
 H   -3.457825    2.850278   -1.888256
 H   -2.168423    3.974845   -1.481099
 H   -2.905469    4.115711    0.838791
 H   -1.282529    2.338546    0.188724
 H   -2.223561    1.923711    1.625086
 H   -5.688130   -1.360740    1.011394
 H   -7.718387   -2.583701    0.935588
 H   -7.628977   -4.089528    0.029496
 H   -6.401765   -3.729506    1.238825
 H   -5.851494   -4.392919   -1.770147
 H   -4.635082   -3.138946   -2.004840
 H   -4.634063   -4.115052   -0.525941
 H   -6.481723   -1.468301   -2.413499
 H   -7.708645   -2.705216   -2.142312
 H   -7.741789   -1.215867   -1.196494
