42 
3d2r_ligand_xtb.xyz
 P   -2.503774   -1.294703   -0.615749
 O   -3.566718   -2.206530    0.091818
 O   -1.503258   -1.968003   -1.440005
 O   -3.376281   -0.172333   -1.248617
 P   -0.702510   -1.458477    1.390686
 O   -1.207029   -2.815742    1.598661
 O   -0.389325   -0.611781    2.686666
 O   -1.767967   -0.520267    0.643854
 O    0.653828   -1.267241    0.617729
 C    1.251861   -2.281228   -0.193759
 C    2.581795   -1.738553   -0.732942
 O    2.383986   -0.766091   -1.749043
 C    3.420682   -1.019188    0.338140
 O    4.777894   -1.074474    0.009092
 C    2.864229    0.414975    0.268435
 O    3.850871    1.365456    0.549145
 C    2.331408    0.508407   -1.189032
 N    0.975254    1.020055   -1.201709
 C   -0.054910    0.605559   -1.984537
 N   -1.186548    1.189621   -1.710876
 C   -0.908337    2.041440   -0.669020
 C   -1.689702    2.875184    0.149920
 N   -3.020564    3.018428    0.006893
 N   -1.068039    3.579702    1.099926
 C    0.237546    3.453775    1.254180
 N    1.071089    2.666690    0.596735
 C    0.454906    1.953287   -0.350925
 H   -3.102487   -2.907102    0.565727
 H   -2.732403    0.434505   -1.699682
 H   -0.920995   -0.897096    3.428683
 H    1.415846   -3.175549    0.410952
 H    0.581681   -2.517034   -1.024603
 H    3.146558   -2.554166   -1.191050
 H    3.253226   -1.456737    1.331352
 H    5.156985   -0.206619    0.210292
 H    2.029247    0.503944    0.967079
 H    3.393467    2.198019    0.733261
 H    2.967700    1.179663   -1.788435
 H    0.073657   -0.138262   -2.744410
 H   -3.523998    2.337638   -0.536094
 H   -3.505852    3.526696    0.726702
 H    0.678394    4.062434    2.032245
