26 
3d2t_ligand_xtb.xyz
 F   -1.210897   -1.667679    1.201447
 C   -1.987258   -0.781120    0.549697
 C   -3.345082   -1.034032    0.505256
 C   -4.154352   -0.121255   -0.145119
 F   -5.477411   -0.351673   -0.203266
 C   -3.636459    1.018135   -0.735122
 C   -2.275107    1.243088   -0.667852
 C   -1.413970    0.351908   -0.027880
 C    0.031505    0.618771    0.034648
 C    0.964846   -0.390453   -0.178043
 C    2.329570   -0.139193   -0.119492
 C    3.313807   -1.255486   -0.280461
 O    3.017891   -2.136870   -1.258790
 O    4.284155   -1.398814    0.402259
 C    0.495613    1.904918    0.305844
 C    1.847516    2.170123    0.363606
 C    2.783797    1.159509    0.155424
 O    4.106646    1.397721    0.166776
 H   -3.755811   -1.915555    0.969586
 H   -4.294739    1.708793   -1.236816
 H   -1.859795    2.121553   -1.136808
 H    0.621129   -1.397301   -0.368789
 H    2.218984   -1.894328   -1.744819
 H   -0.210607    2.698843    0.496029
 H    2.191853    3.172300    0.581440
 H    4.287670    2.314078    0.411550
