53 
3d3p_ligand_xtb.xyz
 O   -1.103947   -1.900485   -0.237356
 C   -1.323116   -0.717089   -0.498758
 N   -2.493408   -0.343839   -1.063475
 C   -3.605401   -1.254429   -1.226447
 C   -4.771406   -0.855882   -0.359511
 C   -4.578521   -0.650579    1.001714
 C   -5.633417   -0.269071    1.809661
 C   -6.894995   -0.091130    1.265713
 C   -7.095115   -0.295540   -0.088376
 C   -6.036890   -0.672037   -0.897832
 C   -0.338892    0.359452   -0.269671
 C   -0.761045    1.682947   -0.082702
 N    0.017132    2.724482    0.105790
 C    1.320416    2.435286    0.115284
 N    2.322114    3.318056    0.298550
 C    2.208077    4.744952    0.421080
 C    2.128905    5.411491   -0.949500
 N    3.510801    2.702494    0.297529
 C    1.909617    1.150991   -0.008495
 C    3.294772    1.421640    0.124639
 C    1.047703    0.041861   -0.192484
 N    1.445861   -1.229397   -0.324256
 C    2.785776   -1.746781   -0.240223
 C    2.844883   -3.115068   -0.921928
 C    4.251421   -3.698951   -0.767816
 O    4.628869   -3.815316    0.582746
 C    4.627241   -2.569619    1.238651
 C    3.245714   -1.914383    1.216099
 H   -2.660011    0.624684   -1.280531
 H   -3.233131   -2.242358   -0.935398
 H   -3.904802   -1.284004   -2.279468
 H   -3.594428   -0.795497    1.424127
 H   -5.472545   -0.112207    2.866101
 H   -7.719845    0.205617    1.896420
 H   -8.076817   -0.157926   -0.517439
 H   -6.196674   -0.828659   -1.955489
 H   -1.818055    1.917804   -0.047397
 H    3.086603    5.094853    0.967018
 H    1.302011    4.956783    0.993860
 H    3.020472    5.184971   -1.529387
 H    1.256269    5.048392   -1.486721
 H    2.047740    6.488724   -0.834918
 H    4.135093    0.757146    0.109903
 H    0.680467   -1.905048   -0.304500
 H    3.461862   -1.060464   -0.764030
 H    2.594995   -3.027390   -1.979712
 H    2.124850   -3.783466   -0.446015
 H    4.974088   -3.062774   -1.304724
 H    4.298559   -4.709573   -1.177823
 H    5.361771   -1.897487    0.765366
 H    4.944806   -2.772329    2.263250
 H    2.532857   -2.554857    1.738696
 H    3.282623   -0.949455    1.722130
