39 
3d52_ligand_xtb.xyz
 C   -2.331040   -0.494940    0.222592
 N   -2.682411    0.796805    0.096155
 C   -3.982844    1.295485   -0.286675
 C   -4.213844    2.648863    0.389435
 O   -3.195609    3.527582   -0.039719
 C   -5.085277    0.298911    0.073834
 O   -6.274331    0.709843   -0.542767
 C   -4.673022   -1.103540   -0.387494
 O   -5.747094   -1.975272   -0.134935
 C   -3.417454   -1.534256    0.377286
 O   -3.016966   -2.798872   -0.073980
 N   -1.149070   -0.970035    0.296597
Cl    7.944073    0.068387   -0.150852
 C    6.217603    0.137382   -0.085821
 C    5.581762    1.368693   -0.081283
 C    4.202831    1.419564   -0.028490
 C    5.481478   -1.035582   -0.038548
 C    4.101444   -0.983388    0.014488
 C    3.449911    0.247331    0.020495
 N    2.060890    0.362493    0.074454
 C    1.129021   -0.633864    0.144877
 O    1.317243   -1.814681    0.167769
 O   -0.093509   -0.028435    0.179802
 H   -1.934800    1.468202   -0.016698
 H   -4.017731    1.460372   -1.374351
 H   -4.178466    2.522706    1.480708
 H   -5.206804    3.009662    0.100704
 H   -3.390301    4.413229    0.281992
 H   -5.220154    0.270804    1.168762
 H   -6.869408   -0.052151   -0.536676
 H   -4.448164   -1.089359   -1.466095
 H   -5.406671   -2.875091   -0.214442
 H   -3.676559   -1.591102    1.451701
 H   -2.054350   -2.849729    0.025076
 H    6.160652    2.277894   -0.118340
 H    3.704576    2.378331   -0.024788
 H    5.985514   -1.988915   -0.042979
 H    3.523776   -1.891347    0.052203
 H    1.692499    1.303799    0.069716
