39 
3d52_ligand_dft.xyz
 C   -2.339795   -0.570843    0.329506
 N   -2.596841    0.761963    0.300394
 C   -3.805714    1.327227   -0.293919
 C   -3.996037    2.732769    0.248820
 O   -2.813346    3.450041   -0.061256
 C   -5.005228    0.429907   -0.005058
 O   -6.102261    0.926202   -0.730575
 C   -4.676130   -0.999088   -0.412136
 O   -5.843831   -1.763824   -0.212582
 C   -3.517115   -1.524036    0.421355
 O   -3.199667   -2.818261   -0.013700
 N   -1.192921   -1.148841    0.393458
Cl    7.891139    0.135304   -0.293431
 C    6.149131    0.153219   -0.134343
 C    5.487658    1.361816    0.045713
 C    4.105762    1.368218    0.170087
 C    5.437290   -1.037858   -0.188876
 C    4.052566   -1.033814   -0.063569
 C    3.376405    0.176079    0.116863
 N    1.981439    0.266289    0.252264
 C    1.068215   -0.754516    0.202314
 O    1.285331   -1.927840    0.055708
 O   -0.167172   -0.184206    0.348152
 H   -1.789314    1.368356    0.243776
 H   -3.696259    1.398345   -1.385846
 H   -4.157344    2.679622    1.335891
 H   -4.881441    3.177443   -0.221397
 H   -2.883484    4.332839    0.317216
 H   -5.215575    0.439901    1.078246
 H   -6.765317    0.221259   -0.727051
 H   -4.381617   -1.010905   -1.473825
 H   -5.625395   -2.679918   -0.429882
 H   -3.840625   -1.542693    1.475425
 H   -2.240407   -2.928615    0.092637
 H    6.044930    2.291131    0.087860
 H    3.590731    2.315440    0.309738
 H    5.960559   -1.977403   -0.329158
 H    3.498071   -1.960999   -0.105356
 H    1.596919    1.188754    0.390719
