62 
3d5m_ligand_xtb.xyz
 C   -3.896085   -1.714413    0.645514
 C   -4.481281   -2.763554   -0.036910
 C   -5.929659   -0.452759    0.474009
 C    1.788513    0.223383    1.414359
 C   -4.614989   -0.552320    0.906088
 C   -5.794083   -2.652187   -0.460471
 C    0.860409    0.450171    0.292285
 C   -1.259311    1.013224   -0.781379
 C   -2.685965    1.338169   -0.451084
 C   -1.906684    3.734432   -0.194901
 C    6.186455   -1.211138   -2.532300
 C   -3.952471    0.592561    1.629146
 C   -3.000970    2.837438   -0.776053
Cl   -8.166533   -1.373568   -0.740264
 C   -6.530426   -1.500547   -0.207916
 F   -6.356513   -3.674985   -1.123053
 N   -2.740658    1.011358    0.956540
 C   -4.349894    3.240850   -0.178014
 C   -3.074880    3.000503   -2.294597
 O   -0.795253    1.075560   -1.996696
 C   -1.527501    0.633691    1.467038
 O   -1.379903    0.282356    2.621499
 C   -0.554627    0.704432    0.360240
 C    1.529033    0.173300    2.776676
 N    1.407316    0.454846   -0.884006
 S    3.066245    0.187653   -0.827046
 O    3.310672   -1.051116   -1.505665
 O    3.692985    1.374467   -1.336265
 C    3.097765    0.062531    0.960391
 C    4.161029   -0.148092    1.805415
 C    3.882836   -0.196831    3.175270
 C    2.591719   -0.041268    3.644531
 C    5.563305   -0.319145    1.300801
 N    5.662741   -0.103108   -0.118127
 S    6.888020   -0.945487   -0.906266
 O    8.049232   -0.105427   -1.018439
 O    7.042263   -2.191632   -0.213453
 H   -2.875033   -1.797222    0.985446
 H   -3.939379   -3.672306   -0.244406
 H   -6.504847    0.438447    0.671547
 H   -3.382564    0.711965   -1.021200
 H   -1.753473    3.516040    0.859942
 H   -0.964017    3.594405   -0.718083
 H   -2.196500    4.777958   -0.290186
 H    6.320371   -0.302845   -3.103227
 H    6.707632   -2.041778   -2.990114
 H    5.135911   -1.432011   -2.386703
 H   -4.648790    1.423484    1.741475
 H   -3.629995    0.269229    2.625146
 H   -5.122896    2.521269   -0.436153
 H   -4.285044    3.336212    0.901810
 H   -4.642527    4.208764   -0.578658
 H   -3.907442    2.429617   -2.699588
 H   -2.161491    2.665255   -2.774496
 H   -3.225784    4.048294   -2.541987
 H    0.186302    0.852377   -1.943786
 H    0.523804    0.282081    3.149850
 H    4.695864   -0.361502    3.866575
 H    2.402491   -0.085534    4.706164
 H    5.885474   -1.355518    1.458297
 H    6.238834    0.331032    1.877427
 H    5.635345    0.863216   -0.407659
