28 
3d62_ligand_dft.xyz
 O    5.379096   -0.736728   -0.419612
 C    4.223184   -0.548116   -0.112855
 C    3.525927   -1.304882    0.992223
 C    3.421526    0.546378   -0.825741
 N    1.999015    0.321261   -0.906819
 C    1.138341    0.814393    0.024340
 O    1.462009    1.461226    1.001104
 O   -0.127831    0.476333   -0.290429
 C   -1.127724    0.938131    0.629771
 C   -2.432710    0.284046    0.268205
 C   -2.541547   -1.108793    0.263259
 C   -3.748553   -1.720228   -0.051854
 C   -4.865383   -0.944265   -0.358792
 C   -4.765630    0.442617   -0.353450
 C   -3.551497    1.052582   -0.045310
 H    4.248148   -1.930450    1.518423
 H    3.046366   -0.602980    1.683347
 H    2.732646   -1.934623    0.573652
 H    3.843252    0.684431   -1.824332
 H    3.580101    1.473262   -0.262257
 H    1.612379   -0.216155   -1.666392
 H   -1.196109    2.028629    0.570573
 H   -0.814144    0.680082    1.646041
 H   -1.670522   -1.713125    0.502049
 H   -3.821647   -2.803742   -0.054557
 H   -5.809856   -1.421950   -0.601675
 H   -5.630783    1.052967   -0.594454
 H   -3.474746    2.136999   -0.049959
