42 
3d6p_ligand_dft.xyz
 C   -3.679381   -2.406970    0.300939
 C   -2.231689   -2.526185    0.450487
 C   -1.433251   -1.494773    0.133963
 N   -1.919448   -0.285984   -0.320240
 N   -4.075834   -1.143598   -0.188132
 O    4.793488   -2.049844   -0.028606
 C    3.527267   -2.218384    0.551710
 C    2.966491   -0.882732    1.027285
 C    4.732440   -1.229585   -1.166745
 C    4.243993    0.168653   -0.804055
 N    2.900338    0.073683   -0.133222
 C    2.338211    1.417705    0.227048
 C    0.851834    1.297215    0.513355
 O    0.300310    0.491746   -0.525721
 C    0.088779    2.611669    0.435290
 O    0.227360    3.288522    1.647640
 C   -1.322810    2.131225    0.087373
 O   -1.978676    3.132004   -0.615804
 C   -1.061401    0.837731   -0.732358
 O   -4.501001   -3.257228    0.548719
 C   -3.281068   -0.078431   -0.507808
 O   -3.714264    0.986170   -0.925319
 H   -1.833870   -3.464017    0.812526
 H   -0.356214   -1.545813    0.214685
 H   -5.071643   -1.002437   -0.315892
 H    2.828927   -2.692316   -0.158411
 H    3.645127   -2.884013    1.408269
 H    3.621791   -0.427793    1.773986
 H    1.962002   -0.992492    1.439815
 H    5.740853   -1.162032   -1.577804
 H    4.077318   -1.672685   -1.934794
 H    4.133200    0.800973   -1.687909
 H    4.919505    0.648626   -0.091705
 H    2.227307   -0.311559   -0.810912
 H    2.502965    2.063236   -0.639447
 H    2.885473    1.814973    1.084278
 H    0.668580    0.843502    1.497422
 H    0.450566    3.206902   -0.417973
 H   -0.278351    4.110628    1.598428
 H   -1.838438    1.860485    1.021278
 H   -2.859121    2.780212   -0.832699
 H   -1.215595    1.023112   -1.798153
