29 
3d78_ligand_dft.xyz
 O   -1.186607   -2.460410    0.946203
 S   -0.664931   -1.531392   -0.044467
 O   -0.529100   -1.927748   -1.440498
 N    0.795616   -1.009880    0.579750
 C    1.716210   -0.337329   -0.340625
 C    2.926338    0.185710    0.424092
 C    3.909760    0.925661   -0.483263
 C    5.128843    1.445662    0.275956
 C   -1.615079   -0.024552   -0.011298
 C   -1.936028    0.605889   -1.207724
 C   -2.677642    1.784328   -1.169759
 C   -3.087728    2.310248    0.051274
 C   -2.762901    1.662998    1.243515
 C   -2.022524    0.488361    1.218208
 H    1.210764   -1.784254    1.092440
 H    1.173699    0.502954   -0.789413
 H    2.027108   -1.000008   -1.159220
 H    3.443401   -0.654770    0.909138
 H    2.580994    0.848491    1.226749
 H    3.393179    1.764428   -0.967947
 H    4.236212    0.256255   -1.289706
 H    4.830768    2.140406    1.069268
 H    5.680942    0.622799    0.744078
 H    5.816838    1.973654   -0.391709
 H   -1.614259    0.168390   -2.146632
 H   -2.937260    2.287299   -2.095874
 H   -3.667393    3.228062    0.076831
 H   -3.090569    2.073852    2.193203
 H   -1.764680   -0.032720    2.134131
