29 
3d78_ligand_xtb.xyz
 O   -1.307100   -2.475907    0.865352
 S   -0.706652   -1.554956   -0.053477
 O   -0.511025   -1.969473   -1.415627
 N    0.745745   -1.073885    0.637882
 C    1.646406   -0.405724   -0.279611
 C    2.875447    0.126505    0.450285
 C    3.793882    0.910605   -0.484027
 C    5.021732    1.438781    0.248061
 C   -1.588039   -0.003351   -0.028419
 C   -1.847818    0.662155   -1.209025
 C   -2.506172    1.881128   -1.164420
 C   -2.891102    2.411985    0.056639
 C   -2.625512    1.730946    1.235485
 C   -1.967640    0.513042    1.194292
 H    1.173589   -1.850989    1.120825
 H    1.078320    0.422367   -0.713007
 H    1.944486   -1.072504   -1.099829
 H    3.426221   -0.711785    0.883019
 H    2.546027    0.767535    1.269896
 H    3.239627    1.746498   -0.915722
 H    4.109587    0.263669   -1.305020
 H    4.726670    2.100445    1.059225
 H    5.598230    0.618114    0.668709
 H    5.662311    1.994144   -0.432507
 H   -1.537420    0.211278   -2.138601
 H   -2.718856    2.414288   -2.078727
 H   -3.404329    3.361673    0.090184
 H   -2.931674    2.149291    2.182358
 H   -1.748660   -0.050940    2.086298
