41 
3d7b_ligand_xtb.xyz
 C   -3.890403   -2.032279    0.325748
 C   -2.498096   -2.321732    0.630165
 C   -1.534055   -1.447533    0.309599
 N   -1.798605   -0.253334   -0.299268
 N   -4.056152   -0.783886   -0.296337
 C    4.474711   -0.316786   -0.960624
 C    2.680895    1.045048    0.107285
 C    1.210530    0.968737    0.520211
 O    0.524001    0.198211   -0.459751
 C    0.528717    2.342631    0.571222
 O    0.638963    2.836901    1.866873
 C   -0.910410    2.038257    0.104885
 O   -1.372388    3.086992   -0.670526
 C   -0.768102    0.705317   -0.685201
 O   -4.840276   -2.732086    0.551503
 C   -3.100449    0.124874   -0.615368
 O   -3.331629    1.198523   -1.129029
 C    3.376477   -1.226841    0.897244
 C    4.334880   -2.311901    0.382452
 C    4.838211   -1.795016   -0.975951
 N    3.176556   -0.298673   -0.246107
 H   -2.279248   -3.257830    1.112705
 H   -0.489953   -1.635582    0.508067
 H   -5.010265   -0.523713   -0.528845
 H    4.384443    0.120883   -1.953602
 H    5.193105    0.259994   -0.374911
 H    3.275993    1.471381    0.916007
 H    2.768395    1.679686   -0.778033
 H    1.106418    0.509852    1.513962
 H    0.970258    3.031601   -0.164122
 H    0.180936    3.684379    1.927042
 H   -1.545374    1.864372    0.988741
 H   -2.260682    2.858853   -0.999336
 H   -0.888733    0.905343   -1.760818
 H    3.825870   -0.662777    1.715908
 H    2.423542   -1.630447    1.233345
 H    3.834733   -3.271409    0.273089
 H    5.158117   -2.449695    1.079654
 H    5.906716   -1.945478   -1.102697
 H    4.330743   -2.302248   -1.796214
 H    2.455583   -0.700910   -0.860529
