46 
3d7d_ligand_dft.xyz
 F   -6.356231    0.339443   -1.964839
 C   -5.323255   -0.238682   -1.330834
 C   -4.092498   -0.299247   -1.961974
 C   -3.027851   -0.896036   -1.291334
 C   -5.520558   -0.755215   -0.057467
 C   -4.447196   -1.345983    0.597116
 C   -3.189768   -1.425387   -0.008860
 C   -2.011312   -2.053109    0.693053
 S   -1.588454   -1.302159    2.312262
 C   -1.644450    0.466657    1.915279
 C   -0.727830    0.902614    0.750996
 C   -0.820525    2.404693    0.521461
 O    0.112263    3.157874    0.330503
 O   -2.081563    2.841618    0.535954
 N    0.632522    0.481191    0.878168
 C    1.190581   -0.360180   -0.056567
 O    0.590977   -0.743747   -1.058395
 N    2.469527   -0.746668    0.234215
 C    3.360972   -1.186806   -0.811586
 C    4.541916   -1.873155   -0.154561
 O    4.866917   -1.738603    1.000575
 O    5.235120   -2.616313   -1.031486
 C    3.855752   -0.018297   -1.699626
 C    4.444897    1.156977   -0.896857
 C    3.384530    1.906257   -0.115789
 O    3.333108    1.980731    1.096882
 O    2.474668    2.449834   -0.920422
 H   -3.975211    0.116746   -2.956560
 H   -2.052167   -0.948691   -1.769221
 H   -6.499931   -0.686680    0.403288
 H   -4.581839   -1.741887    1.600195
 H   -1.131335   -2.022610    0.045247
 H   -2.210139   -3.102294    0.935568
 H   -2.671298    0.758674    1.683967
 H   -1.352444    0.971178    2.842484
 H   -1.104201    0.445929   -0.171004
 H   -2.054599    3.795310    0.353561
 H    1.245596    0.978422    1.511852
 H    2.915914   -0.414698    1.079272
 H    2.837550   -1.907615   -1.444437
 H    5.994755   -2.979908   -0.548300
 H    3.002229    0.334688   -2.285014
 H    4.603602   -0.397640   -2.403056
 H    5.209867    0.825146   -0.189896
 H    4.905585    1.859518   -1.599249
 H    1.732707    2.792568   -0.371591
