46 
3d7z_ligand_xtb.xyz
 C   -0.687063    3.548994    0.176106
 C   -7.676420   -1.648814    0.010227
 C   -6.819378   -2.609902   -0.188426
 C   -6.724760   -1.463784   -1.131280
 C    7.359650   -0.498045   -2.236767
 C    8.367794   -0.753570   -1.458641
 C    7.120101   -0.287963   -0.768719
 C   -1.677979    2.430319    0.057710
 C   -3.021782    2.728614   -0.136843
 C   -3.979110    1.737416   -0.235810
 C   -3.606582    0.402035   -0.120052
 C   -4.577523   -0.730905   -0.181495
 O   -4.408753   -1.762656    0.442415
 N   -5.631330   -0.533631   -1.008429
 C   -2.270389    0.097028    0.102309
 C   -1.299594    1.088561    0.171395
 C    0.102785    0.681355    0.382567
 C    1.103286    1.052871   -0.511014
 C    2.408657    0.642465   -0.318332
 C    2.742460   -0.140626    0.782139
 C    1.746222   -0.499447    1.685139
 C    0.438829   -0.107122    1.480032
 C    4.142557   -0.577869    1.061928
 O    4.585244   -0.666762    2.190987
 N    4.866855   -0.888006   -0.038884
 C    6.262799   -1.261802    0.017863
 H   -0.339905    3.855451   -0.811070
 H   -1.150403    4.413847    0.646361
 H    0.177782    3.248335    0.762074
 H   -8.454939   -1.203113    0.577601
 H   -6.384981   -3.538351    0.083317
 H   -7.054709   -1.549514   -2.164041
 H    6.933684   -0.446149   -3.208218
 H    9.371815   -1.065359   -1.313019
 H    7.074459    0.727069   -0.380075
 H   -3.322564    3.764814   -0.204223
 H   -5.016192    2.015378   -0.362212
 H   -5.713439    0.341752   -1.500894
 H   -1.990782   -0.940855    0.208050
 H    0.851559    1.655250   -1.371475
 H    3.171732    0.963653   -1.013939
 H    2.018680   -1.091148    2.545899
 H   -0.331560   -0.393907    2.180490
 H    4.443481   -0.819431   -0.950040
 H    6.535338   -1.253416    1.076856
 H    6.392981   -2.276366   -0.377683
