46 
3d8y_ligand_dft.xyz
 C   -1.983573   -1.433582    1.536908
 C   -1.405124   -2.735767    1.000793
 C   -2.359284   -3.398187    0.005369
 C   -2.713503   -2.420902   -1.116847
 C   -3.285159   -1.123278   -0.561347
 N   -2.328207   -0.496719    0.410820
 C   -2.798608    0.836071    0.919396
 C   -1.725505    1.893581    0.723344
 O   -0.495220    1.377858    1.205458
 C   -1.487972    2.323948   -0.730772
 O   -2.384097    3.372203   -0.989339
 C   -0.001557    2.702606   -0.712915
 C    0.589197    1.928577    0.481806
 N    1.535010    0.865000    0.142264
 C    2.841625    0.925188    0.629228
 C    3.794485    0.023134    0.344112
 C    5.197462    0.091981    0.863543
 C    3.445562   -1.102970   -0.525281
 O    4.183724   -1.992772   -0.876649
 N    2.097793   -1.091543   -0.949733
 C    1.134197   -0.173942   -0.661216
 O   -0.016948   -0.288410   -1.101623
 H   -2.910419   -1.608046    2.093375
 H   -1.278201   -0.897005    2.173911
 H   -0.441094   -2.533516    0.518894
 H   -1.204795   -3.392284    1.852486
 H   -1.901770   -4.298736   -0.412501
 H   -3.272858   -3.716052    0.524042
 H   -1.820972   -2.188206   -1.709589
 H   -3.452630   -2.852622   -1.797841
 H   -3.460241   -0.387595   -1.350260
 H   -4.223864   -1.288021   -0.021967
 H   -1.434352   -0.342860   -0.105348
 H   -3.053475    0.720811    1.974339
 H   -3.698171    1.134104    0.376092
 H   -2.021170    2.790258    1.284294
 H   -1.646734    1.487797   -1.422629
 H   -2.359062    3.591413   -1.928326
 H    0.516030    2.472354   -1.645466
 H    0.079207    3.777062   -0.526293
 H    1.146668    2.599835    1.139494
 H    3.042651    1.776524    1.270113
 H    5.436307   -0.807501    1.438933
 H    5.343997    0.967423    1.500678
 H    5.909451    0.136776    0.033991
 H    1.820212   -1.848858   -1.563369
