43 
3d8z_ligand_xtb.xyz
 C    2.146044   -1.652408    1.390936
 C    1.782285   -2.992082    0.758184
 C    2.598905   -3.035577   -0.549145
 C    3.273692   -1.664330   -0.641103
 N    2.450625   -0.796278    0.224804
 C    3.031865    0.515650    0.554880
 C    1.951293    1.597738    0.615610
 O    0.768691    1.081510    1.206893
 C    1.538751    2.155868   -0.760902
 O    2.440820    3.166856   -1.095604
 C    0.100340    2.622207   -0.485493
 C   -0.365482    1.731575    0.681702
 N   -1.365484    0.744134    0.281567
 C   -2.666753    0.885427    0.728402
 C   -3.676614    0.077719    0.365658
 C   -5.078834    0.238505    0.841988
 C   -3.406151   -1.027034   -0.551990
 O   -4.190172   -1.833711   -0.972462
 N   -2.054909   -1.095332   -0.931924
 C   -1.037620   -0.275728   -0.570084
 O    0.102384   -0.465716   -0.991558
 H    3.047002   -1.740451    2.002374
 H    1.347925   -1.210491    1.984674
 H    0.715921   -3.034452    0.542596
 H    2.021513   -3.820077    1.420275
 H    3.339271   -3.831516   -0.538488
 H    1.944621   -3.200739   -1.402357
 H    4.287833   -1.695055   -0.237008
 H    3.304412   -1.273831   -1.656965
 H    1.525231   -0.629674   -0.262354
 H    3.753089    0.812527   -0.208886
 H    3.548913    0.443912    1.513468
 H    2.332272    2.445091    1.203689
 H    1.539019    1.359883   -1.519477
 H    2.191203    3.575603   -1.932171
 H    0.118129    3.667019   -0.175894
 H   -0.551698    2.516130   -1.349809
 H   -0.833429    2.327783    1.474751
 H   -2.829431    1.711624    1.404074
 H   -5.160052    1.034562    1.575054
 H   -5.729592    0.456732   -0.003429
 H   -5.427845   -0.697204    1.274591
 H   -1.820039   -1.841722   -1.579853
