70 
3d94_ligand_xtb.xyz
 N   -0.806069    5.001929   -0.068884
 C    0.408433    4.495449   -0.401363
 C    0.647227    3.089162   -0.369841
 N    1.893803    2.657388   -0.818804
 C    2.873703    3.559872   -1.145548
 C    2.568793    4.877334   -1.065997
 N    1.348576    5.351767   -0.728538
 C    1.865858    1.300401   -0.834854
 C    3.021642    0.467780   -1.238504
 C    2.814634   -1.052047   -1.153881
 C    4.166863   -1.181934   -0.428555
 N    4.137373   -1.948946    0.793732
 C    3.907945   -3.368255    0.625152
 C    5.080430   -4.158329    0.024797
 N    6.272095   -3.994224    0.839208
 C    7.387843   -4.791864    0.371799
 C    7.754174   -0.956131    0.387258
 C    7.432768    0.111052    1.089110
 C    4.172352    0.340632   -0.213302
 N    0.701596    0.850545   -0.424358
 C   -0.070731    1.917402   -0.115315
 C   -1.411728    1.726444    0.414384
 C   -2.188212    0.691660   -0.056303
 C   -3.484235    0.478180    0.447779
 C   -3.986038    1.340976    1.462746
 C   -3.160148    2.370604    1.953587
 C   -1.905888    2.557841    1.447159
 N   -4.212562   -0.535370   -0.051662
 C   -5.423010   -0.754562    0.405895
 C   -6.013560    0.061933    1.402805
 C   -5.296075    1.101157    1.923365
 C   -6.152626   -1.883669   -0.188880
 C   -7.146699   -2.570068    0.504524
 C   -7.809889   -3.628276   -0.089338
 C   -7.493488   -4.014860   -1.380803
 C   -6.497964   -3.345336   -2.074419
 C   -5.830166   -2.291416   -1.482792
 H   -1.610561    4.399179   -0.086784
 H   -0.935496    5.980355   -0.264633
 H    3.829332    3.171073   -1.450600
 H    3.301378    5.633978   -1.303043
 H    3.389570    0.787531   -2.217955
 H    2.707934   -1.578586   -2.098919
 H    1.981438   -1.286750   -0.497511
 H    4.970194   -1.486382   -1.118547
 H    5.008880   -1.809487    1.296576
 H    3.027904   -3.499010   -0.008243
 H    3.678469   -3.777054    1.615330
 H    5.311933   -3.783203   -0.976895
 H    4.782434   -5.217227   -0.076052
 H    6.053867   -4.247522    1.800432
 H    7.164688   -5.868504    0.324211
 H    7.661079   -4.457617   -0.629937
 H    8.238013   -4.638017    1.034519
 H    8.461084   -0.903912   -0.425875
 H    7.330605   -1.927127    0.588827
 H    6.728043    0.069660    1.903857
 H    7.858927    1.081435    0.887844
 H    3.848465    0.591823    0.793891
 H    5.098720    0.861568   -0.445374
 H   -1.808646    0.030172   -0.817773
 H   -3.532290    3.002989    2.748167
 H   -1.262690    3.322129    1.858568
 H   -7.026580   -0.124138    1.723807
 H   -5.718414    1.748321    2.680964
 H   -7.389352   -2.296908    1.521002
 H   -8.576114   -4.156503    0.459768
 H   -8.017347   -4.839108   -1.842428
 H   -6.243353   -3.648692   -3.079589
 H   -5.049041   -1.762867   -2.006447
