70 
3d94_ligand_dft.xyz
 N    4.222117    3.471069   -0.555489
 C    4.755398    2.216276   -0.454040
 C    3.879351    1.083312   -0.264985
 N    4.482637   -0.173832   -0.299305
 C    5.865546   -0.307702   -0.359082
 C    6.591788    0.831713   -0.422782
 N    6.054157    2.084184   -0.500611
 C    3.493461   -1.098714   -0.203747
 C    3.602315   -2.584241   -0.170443
 C    2.507545   -3.258463   -1.047420
 C    1.761764   -3.734836    0.221346
 N    0.326754   -3.197493    0.494858
 C   -0.425120   -2.841229   -0.754079
 C   -1.909803   -2.678153   -0.462483
 N   -2.196729   -1.656638    0.586366
 C   -3.624585   -1.766857    1.030992
 C   -1.297749   -1.808189    1.774623
 C    0.172663   -2.053445    1.460355
 C    2.932688   -3.216532    1.091041
 N    2.319083   -0.508669   -0.096584
 C    2.515425    0.839229   -0.107032
 C    1.324400    1.675120    0.098574
 C    0.109425    1.092468   -0.201380
 C   -1.107682    1.731334    0.070707
 C   -1.099191    3.050849    0.582418
 C    0.151377    3.647550    0.884345
 C    1.330309    2.973311    0.676837
 N   -2.263506    1.039903   -0.176294
 C   -3.423043    1.674722   -0.047263
 C   -3.501138    3.013305    0.417457
 C   -2.354857    3.682951    0.756527
 C   -4.640854    0.923504   -0.426317
 C   -5.789145    0.956984    0.369571
 C   -6.899390    0.190302    0.027313
 C   -6.878757   -0.596105   -1.122340
 C   -5.746702   -0.610383   -1.937728
 C   -4.629598    0.141770   -1.588901
 H    3.337135    3.570240   -1.032450
 H    4.907327    4.177083   -0.797593
 H    6.279275   -1.305370   -0.342990
 H    7.674459    0.778658   -0.448093
 H    4.615902   -2.934828   -0.365149
 H    2.868171   -4.111720   -1.625423
 H    1.991302   -2.575359   -1.720893
 H    1.623237   -4.816397    0.259965
 H   -0.155390   -3.997507    0.914508
 H   -0.288261   -3.639091   -1.487177
 H    0.027629   -1.925836   -1.136798
 H   -2.346586   -3.626802   -0.129329
 H   -2.430371   -2.371313   -1.372876
 H   -2.117140   -0.656242    0.166221
 H   -4.273451   -1.693542    0.158542
 H   -3.769118   -2.722931    1.538388
 H   -3.839200   -0.940682    1.708390
 H   -1.702967   -2.633319    2.371073
 H   -1.379080   -0.894208    2.367678
 H    0.700576   -1.205474    1.013057
 H    0.664814   -2.323117    2.395679
 H    2.705442   -2.505389    1.884990
 H    3.494683   -4.046775    1.523142
 H    0.083509    0.129888   -0.695741
 H    0.167645    4.648161    1.306177
 H    2.271503    3.429890    0.964850
 H   -4.470354    3.494211    0.485114
 H   -2.399769    4.701093    1.132520
 H   -5.810252    1.564659    1.270334
 H   -7.784688    0.213307    0.654252
 H   -7.751802   -1.179907   -1.395398
 H   -5.747129   -1.189236   -2.856236
 H   -3.753694    0.159090   -2.231837
