44 
3d9v_ligand_xtb.xyz
 O   -0.864360   -0.605307   -1.865308
 S   -0.570459   -0.284355   -0.503941
 O   -0.708446   -1.407458    0.428203
 N   -1.742224    0.829446    0.012392
 C   -3.042009    0.804433   -0.642264
 C   -2.980928    1.397146   -2.047567
 C   -3.632771   -0.620196   -0.683400
 N   -3.317643   -1.376952    0.553815
 C   -3.595927   -0.655249    1.825544
 C   -2.325610    0.011831    2.346559
 C   -1.759293    1.116030    1.434632
 C    0.981656    0.585241   -0.302124
 C    2.241632   -0.036556   -0.106491
 C    2.564176   -1.406989   -0.292819
 C    1.635079   -2.413631   -0.886349
 C    3.308881    0.835583    0.280195
 C    3.127977    2.230945    0.327171
 C    1.926094    2.788314   -0.009291
 C    0.843691    1.948928   -0.299685
 C    4.565802    0.260181    0.583068
 N    4.809327   -1.013147    0.498068
 C    3.841278   -1.810928    0.044627
 H   -3.693501    1.447178   -0.039940
 H   -2.619053    2.419874   -1.999275
 H   -2.315032    0.819855   -2.679646
 H   -3.974852    1.403727   -2.485998
 H   -4.715963   -0.562309   -0.811175
 H   -3.197602   -1.154853   -1.530064
 H   -3.811234   -2.270685    0.526305
 H   -2.257716   -1.577509    0.542615
 H   -4.395139    0.070325    1.663297
 H   -3.938959   -1.376473    2.569354
 H   -2.538502    0.456699    3.318718
 H   -1.567814   -0.758535    2.493484
 H   -2.329995    2.038904    1.571305
 H   -0.729535    1.314502    1.736566
 H    2.210700   -3.227474   -1.321128
 H    0.981446   -2.833765   -0.123766
 H    1.013117   -1.971787   -1.660560
 H    3.965186    2.848479    0.614758
 H    1.789627    3.857420   -0.024432
 H   -0.122920    2.376972   -0.509844
 H    5.385498    0.893557    0.893974
 H    4.127446   -2.848239   -0.065417
