22 
3d9z_ligand_xtb.xyz
 O    3.548790    1.324200    0.695664
 S    3.435678    0.123315   -0.070783
 O    3.832228    0.124681   -1.445707
 N    4.186054   -1.099399    0.759340
 C    1.741632   -0.397479   -0.010144
 S    0.488563    0.785656    0.002335
 N    1.327996   -1.617383   -0.020765
 N    0.018308   -1.722738   -0.012563
 C   -0.616358   -0.587209   -0.002626
 C   -2.060498   -0.521122    0.002218
 C   -2.764223   -1.733688   -0.004737
 C   -2.799669    0.666478    0.011147
 C   -4.186473    0.637437    0.012387
 C   -4.857166   -0.571036    0.004814
 C   -4.141655   -1.760025   -0.003493
Cl   -2.020694    2.204523    0.020337
 H    4.836993   -0.763099    1.447904
 H    4.573680   -1.807496    0.159689
 H   -2.187012   -2.644039   -0.011635
 H   -4.730689    1.568447    0.018754
 H   -5.936111   -0.583254    0.005148
 H   -4.661093   -2.705530   -0.009577
