59 
3da6_ligand_xtb.xyz
 N    4.537350    0.204627   -0.216004
 C    6.634555    0.304289    0.501911
 C    8.008706    0.475294    0.406504
 C    8.535847    0.757445   -0.838869
 C    7.729000    0.870563   -1.969222
 C    6.357051    0.705729   -1.895931
 C    0.457947   -1.102237   -0.003152
 C    2.238856   -2.866629   -1.238187
 C    0.054089   -1.885437   -1.105256
 C   -0.454011   -0.274758    0.694725
 C    2.216542   -0.335444    1.509373
 C   -3.634416    0.929601   -0.595076
 C   -4.063270    2.125672   -1.159878
 C   -1.834996    2.930747   -1.094407
 C   -2.259930    0.837051   -0.291882
 C   -4.614236   -0.131904   -0.333111
 C   -8.518324    1.124916    0.113518
 N   -8.082508   -0.242550    0.175995
 C   -6.807614   -0.642026    0.023779
 N   -5.873006    0.281269   -0.198721
 N   -6.593663   -1.964334    0.114473
 C   -5.345290   -2.360587   -0.029470
 C   -4.291689   -1.487278   -0.255728
 C   -3.161229    3.145022   -1.418599
 N   -1.400299    1.810721   -0.540771
 O   -1.781970   -0.284564    0.277328
 C   -0.068954    0.443307    1.804687
 C   -1.046443    1.277365    2.572270
 C    1.278869    0.407441    2.188267
 C    0.927685   -2.738991   -1.717572
 C    2.669653   -2.098320   -0.191830
 C    1.808242   -1.169598    0.430505
 N    3.550084   -0.308516    1.924583
 C    4.628103   -0.044875    1.128973
 N    5.846672    0.013747    1.590398
 C    5.825852    0.424783   -0.652660
 H    8.633268    0.387128    1.280710
 H    9.602262    0.894138   -0.943598
 H    8.184691    1.091405   -2.923062
 H    5.729629    0.793081   -2.770736
 H    2.907559   -3.579320   -1.697166
 H   -0.965519   -1.803897   -1.450435
 H   -5.111718    2.230840   -1.392502
 H   -1.072906    3.677219   -1.275444
 H   -9.058268    1.397653    1.022812
 H   -7.632982    1.748842    0.018455
 H   -9.171876    1.289648   -0.747362
 H   -8.759792   -0.972718    0.324831
 H   -5.183654   -3.429402    0.039251
 H   -3.285832   -1.845362   -0.370742
 H   -3.480779    4.074265   -1.861999
 H   -1.151917    2.253770    2.098061
 H   -2.026546    0.804176    2.588497
 H   -0.705436    1.424577    3.593889
 H    1.589377    0.998538    3.038265
 H    0.607439   -3.335256   -2.558949
 H    3.672681   -2.220882    0.187636
 H    3.721880   -0.106682    2.898862
 H    3.698209    0.213149   -0.769655
