23 
3daz_ligand_xtb.xyz
 N   -3.520739    0.218629    1.168330
 S   -2.736843   -0.402716   -0.118967
 O   -2.356266   -1.758612    0.118493
 O   -3.293855    0.023507   -1.348256
 C   -1.098910    0.379974    0.007834
 S    0.144746   -0.832809    0.015675
 C    1.299209    0.467691    0.010237
 N    0.656664    1.652780    0.002502
 C    1.277691    2.955529   -0.003214
 N   -0.673724    1.579881   -0.003344
 N    2.630935    0.393282    0.014540
 C    3.540878   -0.724711    0.013183
 O    4.697127   -0.445475    0.011237
 C    2.931933   -2.077701    0.014411
 H   -3.750953   -0.441798    1.892097
 H   -4.272987    0.848835    0.943937
 H    1.874573    3.107461    0.897101
 H    1.897778    3.088011   -0.890714
 H    0.475198    3.690389   -0.023069
 H    3.150067    1.271284    0.010881
 H    2.325447   -2.231145   -0.876231
 H    3.734055   -2.812755    0.024350
 H    2.307572   -2.223938    0.893622
