51 
3db6_ligand_xtb.xyz
 N    1.126846    3.399242   -0.835250
 N    4.434544    2.734838   -0.357092
 C    3.078830    2.734545   -0.468111
 C    5.250451    1.685098   -0.018898
 C    4.768018    0.441468    0.362535
 C    5.724894   -0.535482    0.645674
 C    3.553059   -2.593950   -0.405380
 C   -0.317366   -2.684073   -0.318177
 C   -2.057959   -1.029739   -0.087772
 C   -4.105949    0.277034    0.181432
 C   -5.472872    0.447652    0.189359
 C   -6.598061   -0.498738   -0.015121
 C   -3.560690    1.565875    0.426401
 C   -4.619386    2.416415    0.559188
 C   -4.671093    3.875949    0.820214
 O   -1.283102   -0.100317   -0.037930
 N   -3.426285   -0.910903   -0.012392
 F   -6.180454   -1.779021    0.081129
 F   -7.170778   -0.395158   -1.230317
 F   -7.582916   -0.346717    0.876421
 O   -5.778099    1.752229    0.416167
 N   -1.645369   -2.327838   -0.233005
 N    0.054464   -3.910220   -0.459714
 C    1.407476   -3.998098   -0.511974
 C    2.085952   -2.825078   -0.413718
 S    0.959064   -1.503458   -0.235119
 C    4.064824   -2.311834    1.026461
 N    5.402771   -1.790141    1.051735
 N    6.563682    1.950724   -0.090555
 C    7.370116    0.952879    0.207297
 N    7.039709   -0.271296    0.557593
 N    2.411129    3.813322   -0.847897
 C    1.070342    2.112938   -0.457478
 N    2.277382    1.665615   -0.218389
 H    4.903592    3.593486   -0.608414
 H    3.709899    0.270507    0.415190
 H    3.790125   -1.728029   -1.026817
 H    4.064423   -3.466972   -0.815421
 H   -2.519947    1.797099    0.494844
 H   -3.672686    4.248688    1.023879
 H   -5.081389    4.399566   -0.042219
 H   -5.316360    4.081207    1.672154
 H   -3.989145   -1.743938   -0.098750
 H   -2.296767   -3.098511   -0.278180
 H    1.849068   -4.970263   -0.633486
 H    4.040335   -3.232325    1.613496
 H    3.397978   -1.586688    1.501877
 H    6.176381   -2.435916    1.070345
 H    8.431132    1.162882    0.148026
 H    0.177524    1.530827   -0.365877
 H    0.392125    4.035912   -1.096572
