51 
3db6_ligand_dft.xyz
 N   86.293400   77.460773   20.992233
 N   88.595196   79.003839   19.017965
 C   87.869557   78.388957   20.017454
 C   89.912797   79.404573   19.018854
 C   90.732643   79.364324   20.142135
 C   92.054293   79.779670   19.953211
 C   92.679766   77.633166   22.222103
 C   90.561475   76.255711   25.301321
 C   88.364634   76.216331   25.913883
 C   86.163060   75.949405   26.984409
 C   85.322355   75.400959   27.912428
 C   85.528490   74.496287   29.064977
 C   85.330553   76.748392   26.133008
 C   84.064247   76.620515   26.610390
 C   82.762145   77.192903   26.178623
 O   87.952266   76.821651   24.922752
 N   87.535504   75.774942   26.917420
 F   86.844760   74.209133   29.191018
 F   84.875552   73.330474   28.935272
 F   85.122014   75.035245   30.225101
 O   84.041331   75.807260   27.688602
 N   89.674684   75.890861   26.181254
 N   91.878553   75.974825   25.473375
 C   92.731709   76.397986   24.464069
 C   92.099129   77.031530   23.463344
 S   90.362292   77.116564   23.779321
 C   92.714879   79.178335   22.260244
 N   92.962711   79.778655   20.972836
 N   90.344541   79.843811   17.821492
 C   91.616792   80.222004   17.782069
 N   92.512469   80.211538   18.762252
 N   86.621462   78.006142   19.792796
 C   87.317133   77.535645   21.850403
 N   88.344055   78.125178   21.264022
 H   88.132824   79.093508   18.124159
 H   90.345442   79.019346   21.087892
 H   93.694847   77.248452   22.073657
 H   92.091318   77.318193   21.352853
 H   85.659897   77.337867   25.294268
 H   82.058029   76.402417   25.898263
 H   82.305663   77.778005   26.983579
 H   82.912954   77.847275   25.317283
 H   87.982830   75.257906   27.658908
 H   92.169428   75.467679   26.296205
 H   93.789472   76.189512   24.547583
 H   91.767831   79.561590   22.657428
 H   93.494208   79.512934   22.950695
 H   93.908410   79.986547   20.690236
 H   91.973364   80.580644   16.818115
 H   87.299279   77.165312   22.868743
 H   85.376756   77.065229   21.124497
