51 
3db8_ligand_dft.xyz
 C    3.267456    1.444891   -1.287243
 C    2.646177    2.175287   -2.295902
 C    1.751155    3.193384   -1.976452
 C    2.093886    2.735582    0.366417
 C    2.994632    1.717037    0.052733
 C    3.673362    0.939843    1.176400
 C   -2.096965    2.256200   -0.825621
 C   -1.329653   -0.136138   -0.573833
 C   -3.902378   -0.992904   -0.065137
 C   -3.670708    0.350743   -0.333617
 C   -2.371307    0.790758   -0.590717
 C   -2.871699   -1.919521   -0.034562
 C   -1.568867   -1.482882   -0.289892
 C   -0.456304   -2.446173   -0.260483
 C    0.937092   -2.206116    0.030844
 C    1.498883   -3.466534   -0.095443
 C    2.862048   -3.662802    0.108122
 C    1.743518   -1.124946    0.380675
 C    3.106694   -1.395388    0.527544
Cl   -5.537546   -1.524565    0.261509
 C   -1.813168    3.022603    0.478036
 C   -2.944242    2.954684    1.491326
 O   -4.126570    3.428484    0.868387
 O    0.547972   -4.375803   -0.414830
 N   -0.657955   -3.712638   -0.516180
 N    3.640044   -2.634678    0.404877
 N    4.031769   -0.404159    0.776864
 C    4.938976    1.667481    1.636048
 C    1.479976    3.475613   -0.640250
 H    3.955859    0.641425   -1.531715
 H    2.858920    1.946483   -3.335961
 H    1.265796    3.762229   -2.763902
 H    1.868672    2.950482    1.409542
 H    2.969080    0.905113    2.025294
 H   -1.230743    2.366697   -1.487607
 H   -2.954386    2.718227   -1.323184
 H   -0.324911    0.201191   -0.813042
 H   -4.488715    1.064110   -0.326707
 H   -3.064996   -2.963625    0.182979
 H    3.325446   -4.642278    0.029052
 H    1.344784   -0.129224    0.514047
 H   -1.625662    4.074325    0.230690
 H   -0.901958    2.629097    0.945744
 H   -3.072231    1.919107    1.839381
 H   -2.685368    3.570475    2.366168
 H   -4.853769    3.331248    1.493087
 H    4.928790   -0.758244    1.074853
 H    4.699915    2.691394    1.934053
 H    5.666511    1.711394    0.818843
 H    5.395115    1.156653    2.491395
 H    0.782521    4.266010   -0.379991
