51 
3db8_ligand_xtb.xyz
 C    3.372625    1.067798   -1.270491
 C    2.826457    1.560303   -2.442492
 C    1.921024    2.606783   -2.403276
 C    2.104237    2.661182   -0.013752
 C    3.008873    1.607575   -0.044105
 C    3.593820    1.077745    1.251725
 C   -2.166474    2.303516   -0.788329
 C   -1.377234   -0.058018   -0.521461
 C   -3.948137   -0.959521   -0.105811
 C   -3.725003    0.386178   -0.351844
 C   -2.431406    0.843863   -0.565831
 C   -2.904883   -1.863460   -0.057516
 C   -1.603872   -1.406096   -0.260768
 C   -0.497950   -2.349487   -0.212527
 C    0.875183   -2.098421    0.147172
 C    1.475233   -3.363535   -0.023149
 C    2.831935   -3.526046    0.218300
 C    1.641617   -1.034249    0.593968
 C    3.002562   -1.291545    0.787304
Cl   -5.566689   -1.514445    0.152650
 C   -1.709150    2.985528    0.508160
 C   -2.793358    2.965965    1.581347
 O   -3.911573    3.687259    1.109995
 O    0.539515   -4.254108   -0.426433
 N   -0.650146   -3.605967   -0.528504
 N    3.561279   -2.502189    0.596453
 N    3.877407   -0.338510    1.205767
 C    4.885192    1.827070    1.579015
 C    1.566304    3.162109   -1.185662
 H    4.077288    0.249921   -1.309728
 H    3.108915    1.124547   -3.389398
 H    1.493948    2.989188   -3.318432
 H    1.818996    3.091377    0.936684
 H    2.868082    1.260702    2.059717
 H   -1.384302    2.423947   -1.540125
 H   -3.071384    2.801734   -1.134702
 H   -0.375980    0.291599   -0.723773
 H   -4.554592    1.075580   -0.382704
 H   -3.077229   -2.910367    0.130802
 H    3.336418   -4.473765    0.102400
 H    1.218546   -0.064268    0.784454
 H   -1.461570    4.025177    0.291252
 H   -0.821527    2.485323    0.898238
 H   -3.071485    1.927114    1.808888
 H   -2.402107    3.426875    2.500765
 H   -4.609795    3.653924    1.770721
 H    4.842986   -0.626051    1.192279
 H    4.686209    2.891783    1.667349
 H    5.614661    1.678438    0.785593
 H    5.301954    1.469033    2.517472
 H    0.866792    3.983798   -1.147163
