59 
3dbd_ligand_dft.xyz
 C   -3.071991   -4.094617    0.419747
 C   -3.601041   -3.248094    1.390327
 C   -2.685536   -1.324033    0.229698
 C    2.474336    5.359422    0.862801
 C    3.780338   -3.276488   -1.427808
 C   -1.150510    0.640013    0.273518
 C   -2.453553    0.146977    0.197322
 C    1.887747    4.038187    0.491913
 C   -3.273168    2.391302   -0.002519
 C    2.577659    2.862535    0.047936
 C    3.903495    2.495586   -0.192311
 C    1.574644    1.902127   -0.172791
 C    1.893756    0.635883   -0.656777
 C    3.258918    0.370273   -0.801874
 C    2.909369   -2.079481   -1.044827
 C    1.041334   -2.836436    0.474983
 C    2.307219   -2.264482    0.346409
 C    2.994325   -1.876971    1.496900
 C    0.461739   -3.003656    1.730221
 C    1.151195   -2.609315    2.873380
 C    2.421275   -2.049833    2.752717
 O   -0.435878   -2.368144   -2.384527
 C   -1.396794   -1.726395   -1.975221
 N   -1.855016   -0.633578   -2.633495
 C   -2.171279   -2.178971   -0.760418
 C   -2.356609   -3.558297   -0.642835
 C   -3.401977   -1.876108    1.294490
 C   -3.529824    1.024521    0.070135
Cl   -4.617362    3.497252   -0.158441
 C   -1.985252    2.899217    0.018597
 C   -0.914919    2.007931    0.149018
 N    0.391834    2.518321    0.155668
 N    0.599208    3.823996    0.548533
 N    4.243531    1.282343   -0.585698
 N    3.707936   -0.869642   -1.172977
 H   -3.214524   -5.168210    0.491729
 H   -4.157197   -3.655908    2.228838
 H    2.989722    5.810125    0.007572
 H    1.687199    6.039194    1.195342
 H    3.207589    5.247733    1.668759
 H    4.193998   -3.146314   -2.433053
 H    4.605413   -3.395499   -0.715283
 H    3.185435   -4.192922   -1.408830
 H   -0.338776   -0.055060    0.452774
 H    4.716986    3.205436   -0.049955
 H    1.157618   -0.117060   -0.894436
 H    2.080489   -2.027119   -1.762561
 H    0.500408   -3.125729   -0.421716
 H    3.972098   -1.410259    1.407847
 H   -0.533342   -3.433424    1.808886
 H    0.699506   -2.731248    3.853590
 H    2.963197   -1.735310    3.640115
 H   -1.297489   -0.287381   -3.399912
 H   -2.575289   -0.037849   -2.256826
 H   -1.929712   -4.202940   -1.404226
 H   -3.783522   -1.213296    2.065735
 H   -4.546520    0.649747    0.017665
 H   -1.794814    3.962096   -0.054792
 H    4.711875   -0.961790   -1.108155
