62 
3dbs_ligand_dft.xyz
 O   -3.375238    5.046842   -0.726929
 C   -2.249630    1.122146    0.286265
 C    1.162052    0.142813    1.927540
 C    0.387490   -0.956486    1.746890
 N   -1.809433   -1.572794    0.896111
 C    2.560652    0.133628    2.425043
 C   -4.035991   -2.036299    0.086253
 N   -3.165658    0.202413    0.063100
 C    4.867201   -0.704052    1.891627
 C    5.757644   -1.295889    0.809894
 C    4.479254   -0.168512   -0.909154
 C    3.570386    0.457182    0.132727
 N   -2.588162    2.437048    0.040983
 C    8.318359    0.456766   -0.867171
 C   -3.957972    2.703357   -0.404507
 C   -4.298974    4.158261   -0.122570
 N    3.498316   -0.418012    1.354600
 O    7.537839   -2.028731   -1.230712
 S    7.062248   -0.671857   -1.437384
 O    6.571701   -0.217002   -2.724061
 N    5.802332   -0.374546   -0.320771
 S    0.403499    1.611069    1.363802
 C   -0.878602   -0.656636    1.125176
 C   -0.998408    0.713566    0.830178
 C   -2.959650   -1.109689    0.361549
 C   -3.907472   -3.369641    0.502748
 C   -4.920378   -4.308597    0.293861
 C   -6.102597   -3.947263   -0.348159
 C   -6.264441   -2.634899   -0.786405
 N   -7.326215   -2.092908   -1.444380
 C   -5.235207   -1.648901   -0.580333
 C   -5.801786   -0.518329   -1.177850
 N   -7.025075   -0.817133   -1.674346
 C   -2.073541    4.798532   -0.262935
 C   -1.640588    3.366797   -0.560647
 H    0.648624   -1.966231    2.050428
 H    2.675949   -0.530991    3.285934
 H    2.941969    1.123515    2.688882
 H    5.266117    0.247300    2.252221
 H    4.757406   -1.393839    2.731545
 H    5.396021   -2.291883    0.511561
 H    6.757569   -1.432962    1.226600
 H    4.559377    0.507758   -1.760589
 H    4.043151   -1.110185   -1.279091
 H    2.553068    0.578059   -0.242487
 H    3.953475    1.425139    0.465415
 H    8.583439    0.213425    0.162992
 H    9.185289    0.317086   -1.516422
 H    7.937961    1.475022   -0.948680
 H   -4.639389    2.038346    0.126515
 H   -4.059964    2.489079   -1.478033
 H   -5.279889    4.398560   -0.537541
 H   -4.322058    4.328717    0.965801
 H    3.074202   -1.303975    1.055348
 H   -2.995798   -3.666607    1.010792
 H   -4.780551   -5.328945    0.641710
 H   -6.896436   -4.671549   -0.514426
 H   -5.393914    0.473274   -1.300619
 H   -2.009577    4.973546    0.824537
 H   -1.413601    5.505286   -0.773964
 H   -1.606545    3.217656   -1.651896
 H   -0.631786    3.213510   -0.172787
