22 
3dcc_ligand_xtb.xyz
 O    3.555146    1.299606    0.740591
 S    3.435462    0.125496   -0.065422
 O    3.818036    0.174189   -1.443513
 N    4.195489   -1.124501    0.712591
 C    1.741728   -0.397163   -0.007659
 S    0.488572    0.786024    0.003030
 N    1.328053   -1.616964   -0.020003
 N    0.018284   -1.722254   -0.014487
 C   -0.616486   -0.586867   -0.005006
 C   -2.060620   -0.521205   -0.000673
 C   -2.764056   -1.733939   -0.007149
 C   -2.800204    0.666134    0.009668
 C   -4.187023    0.636557    0.014888
 C   -4.857374   -0.572119    0.009447
 C   -4.141460   -1.760855   -0.002153
Cl   -2.021517    2.204252    0.016885
 H    4.838650   -0.813416    1.419934
 H    4.592050   -1.802787    0.085150
 H   -2.186482   -2.644007   -0.016190
 H   -4.731367    1.567420    0.023628
 H   -5.936304   -0.584840    0.014273
 H   -4.660556   -2.706554   -0.007090
