75 
3dcq_ligand_dft.xyz
 C   -3.498536   -1.049155   -0.164183
 C   -3.113511    0.409805   -0.508654
 O   -2.165190    0.528467   -1.550081
 C   -4.360564    1.181737   -0.938014
 O   -4.152774    2.577460   -0.805183
 C   -5.546818    0.796816   -0.072227
 O   -5.247799    1.047503    1.290846
 C   -5.855636   -0.696734   -0.300934
 O   -4.721722   -1.413107   -0.783946
 C   -6.466133   -1.375223    0.919064
 C   -2.463933   -2.051621   -0.643619
 C   -1.148526   -1.904188    0.091719
 O   -1.079191   -1.433335    1.228402
 N   -0.063768   -2.390257   -0.554583
 C    1.261223   -2.436150    0.022945
 C    2.260292   -2.184750   -1.110248
 O    1.981762   -2.489800   -2.262038
 C    1.560150   -3.814767    0.651066
 C    0.668486   -4.138866    1.845846
 N    3.475187   -1.657416   -0.788956
 C    3.951812   -1.308381    0.547447
 C    3.344894   -0.018464    1.106633
 O    3.253328    0.145178    2.316657
 C    5.475750   -1.182934    0.352110
 C    5.616387   -0.743091   -1.108758
 C    4.512322   -1.526719   -1.820039
 N    2.963628    0.908780    0.191915
 C    2.176816    2.076527    0.583174
 C    0.722998    1.582760    0.631437
 O    0.003989    1.684280   -0.361564
 C    2.387041    3.219249   -0.400883
 C    1.596142    4.494817   -0.075450
 C    1.878268    5.014544    1.337434
 C    1.906012    5.569129   -1.120575
 N    0.360717    0.973049    1.774407
 H   -3.595825   -1.126531    0.925460
 H   -2.719806    0.878174    0.401529
 H   -1.333289    0.842318   -1.152168
 H   -4.573204    0.917753   -1.983666
 H   -3.289443    2.751585   -1.205257
 H   -6.426272    1.387281   -0.370166
 H   -4.880218    1.942556    1.308425
 H   -6.566272   -0.749673   -1.133132
 H   -6.704311   -2.414751    0.677286
 H   -7.382783   -0.861108    1.225243
 H   -5.776533   -1.353187    1.766076
 H   -2.845211   -3.061320   -0.449030
 H   -2.321600   -1.944747   -1.721864
 H   -0.125995   -2.674216   -1.523801
 H    1.311066   -1.661976    0.795116
 H    2.613403   -3.852868    0.956195
 H    1.439499   -4.570298   -0.134858
 H    0.755254   -3.373138    2.622620
 H   -0.383558   -4.192553    1.553174
 H    0.947874   -5.104627    2.278073
 H    3.715608   -2.079416    1.283600
 H    5.934899   -2.165826    0.499493
 H    5.920982   -0.489955    1.069285
 H    6.605151   -0.953699   -1.521720
 H    5.436514    0.333831   -1.196712
 H    4.849146   -2.521461   -2.135058
 H    4.107790   -1.022950   -2.700902
 H    2.877094    0.603200   -0.768740
 H    2.517802    2.351467    1.583600
 H    2.100112    2.874919   -1.401965
 H    3.461193    3.446804   -0.423804
 H    0.529604    4.250504   -0.148696
 H    2.952841    5.180169    1.487835
 H    1.367700    5.968508    1.505657
 H    1.530622    4.320578    2.110469
 H    1.691863    5.211943   -2.133816
 H    2.964119    5.857737   -1.080752
 H    1.307964    6.469812   -0.946834
 H    1.084347    0.771825    2.454708
 H   -0.417311    0.315049    1.733125
