23 
3dcs_ligand_xtb.xyz
 N   -3.537050    0.205620    1.161295
 S   -2.735276   -0.401278   -0.121636
 O   -2.356000   -1.758649    0.108190
 O   -3.276637    0.034977   -1.354770
 C   -1.099192    0.382263    0.024130
 S    0.143655   -0.831658    0.028868
 C    1.299138    0.467862    0.015994
 N    0.657593    1.653512    0.007412
 C    1.280481    2.955292   -0.011230
 N   -0.672933    1.581730    0.007044
 N    2.630831    0.392380    0.015644
 C    3.539982   -0.726280    0.011295
 O    4.696430   -0.447803    0.017170
 C    2.930307   -2.078864   -0.001619
 H   -3.789182   -0.466215    1.867229
 H   -4.278727    0.847051    0.933382
 H    1.886146    3.111785    0.882412
 H    1.892513    3.081318   -0.905425
 H    0.479167    3.691553   -0.028132
 H    3.150817    1.269900    0.014681
 H    3.732110   -2.814314   -0.005631
 H    2.311688   -2.236061    0.879843
 H    2.317678   -2.220569   -0.889976
