35 
3dcv_ligand_xtb.xyz
 O   -1.105088    3.858240   -0.258117
 C   -0.879327    2.674413   -0.181273
 N    0.343845    2.111125   -0.121739
 C    0.515191    0.815093   -0.030462
 C    1.904238    0.350483    0.017099
 C    2.261679   -0.997634    0.019277
 C    3.582996   -1.407092    0.055593
 C    3.931346   -2.865865    0.054157
 C    4.587602   -0.433266    0.088899
 O    5.886850   -0.832117    0.120696
 C    4.244332    0.916002    0.088072
 C    2.924351    1.304013    0.052412
 C   -0.583588   -0.083851    0.019910
 C   -1.847979    0.439408   -0.049639
 N   -1.981419    1.777077   -0.154802
 C   -3.063185   -0.384446   -0.001394
 C   -3.102708   -1.622010   -0.640444
 C   -4.249040   -2.393111   -0.597937
 C   -5.365867   -1.944523    0.088054
 C   -5.333320   -0.718126    0.730817
 C   -4.192506    0.061125    0.683340
 H    1.506581   -1.767958   -0.014604
 H    3.439746   -3.374275    0.882104
 H    3.600701   -3.332994   -0.872633
 H    5.004819   -2.995957    0.147159
 H    6.461745   -0.057368    0.137067
 H    5.028430    1.661739    0.114591
 H    2.649175    2.345877    0.049307
 H   -0.448310   -1.143066    0.140071
 H   -2.899781    2.196010   -0.232646
 H   -2.239814   -1.965414   -1.190847
 H   -4.272438   -3.346937   -1.103588
 H   -6.259394   -2.549355    0.122096
 H   -6.199327   -0.366941    1.271680
 H   -4.168492    1.006568    1.206510
