38 
3ddf_ligand_dft.xyz
 C    2.739560   -1.223567   -1.195103
 C    2.890127   -2.585328   -0.950270
 C    2.558654   -3.107664    0.295907
 C    2.080871   -2.267157    1.299556
 C    1.939578   -0.904886    1.060914
 C    2.266764   -0.375288   -0.192450
 C    2.112764    1.095404   -0.476434
 C    2.952142    2.014887    0.404415
 O    2.530735    3.325835    0.083837
 N    0.675003    1.536922   -0.303480
 C   -0.286745    0.971295   -1.308812
 C   -1.644969    0.816330   -0.634915
 N   -2.626781    0.142714   -1.450815
 C   -3.536214   -0.572102   -0.692624
 O   -4.582831   -1.031778   -1.073756
 C   -2.998132   -0.606790    0.749940
 O   -3.630755    0.399007    1.517333
 C   -1.559034   -0.136744    0.584229
 O   -1.004830    0.495048    1.714578
 H    2.998578   -0.818862   -2.170366
 H    3.262990   -3.236685   -1.733662
 H    2.674212   -4.169432    0.487151
 H    1.824980   -2.672245    2.273049
 H    1.559603   -0.268713    1.857030
 H    2.348792    1.312513   -1.522561
 H    4.009075    1.841942    0.172602
 H    2.789868    1.784455    1.467010
 H    3.035310    3.973250    0.590376
 H    0.696443    2.565398   -0.331352
 H    0.338112    1.284774    0.646180
 H    0.092939   -0.005254   -1.619207
 H   -0.303026    1.640248   -2.172364
 H   -2.001675    1.799109   -0.288907
 H   -2.932278    0.504664   -2.345161
 H   -3.099879   -1.597444    1.202300
 H   -4.561672    0.170152    1.639647
 H   -0.914458   -0.986099    0.332646
 H   -1.746204    0.905539    2.193602
