52 
3ddq_ligand_xtb.xyz
 O    3.923585    1.577269   -0.651611
 C    3.198929    2.741046   -0.935776
 C    2.008718    2.943514    0.028012
 C    1.674645    4.421880    0.228149
 C    0.621007    4.632978    1.309969
 N    0.823744    2.256602   -0.438902
 C    0.655633    0.917152   -0.460122
 N    1.659717    0.151978   -0.025448
 C    1.369466   -1.150415   -0.055259
 N    2.152884   -2.198911    0.317141
 C    3.507360   -2.109108    0.817849
 C    4.491092   -2.633868   -0.226613
 C    3.639562   -2.856036    2.143342
 C    1.398612   -3.317773    0.081009
 C    0.161294   -1.701688   -0.499570
 N    0.217712   -3.070100   -0.396829
 N   -0.538885    0.508396   -0.911040
 C   -0.815193   -0.792861   -0.949925
 N   -1.989271   -1.217272   -1.454361
 C   -3.088093   -0.324054   -1.745625
 C   -4.019827   -0.190311   -0.566811
 C   -5.277816   -0.775716   -0.571665
 C   -6.103338   -0.673017    0.535287
 C   -5.673497    0.008681    1.660218
 C   -4.416204    0.590600    1.674423
 C   -3.594582    0.492949    0.566794
 H    3.263271    0.881766   -0.448260
 H    3.905418    3.571501   -0.845656
 H    2.819172    2.721818   -1.970319
 H    2.293149    2.497268    0.990338
 H    1.324835    4.837632   -0.720156
 H    2.586431    4.951408    0.507255
 H   -0.294305    4.096950    1.072535
 H    0.987473    4.272236    2.267997
 H    0.385967    5.690006    1.407834
 H    0.111364    2.790422   -0.908400
 H    3.691144   -1.041046    0.979470
 H    5.509150   -2.519420    0.134638
 H    4.307394   -3.686747   -0.430849
 H    4.388750   -2.074267   -1.153220
 H    2.891427   -2.507367    2.851835
 H    4.625456   -2.681463    2.565406
 H    3.509992   -3.926180    1.999633
 H    1.761284   -4.306640    0.279522
 H   -2.191430   -2.196003   -1.318327
 H   -3.625876   -0.705460   -2.618370
 H   -2.640536    0.643677   -1.983092
 H   -5.616694   -1.311005   -1.447704
 H   -7.082649   -1.128578    0.519958
 H   -6.316443    0.086857    2.524575
 H   -4.077518    1.123161    2.551162
 H   -2.612827    0.942756    0.569043
