41 
3dei_ligand_dft.xyz
 O    5.805754   -0.715545    0.563886
 C    4.743475   -0.291132    0.163612
 N    4.698667    0.858655   -0.614314
 C    3.581478    1.468703   -1.146403
 O    3.643594    2.476914   -1.803648
 C    3.433656   -0.938994    0.464480
 C    2.211452   -0.422653   -0.020349
 C    2.227917    0.783578   -0.857890
 O    1.246632    1.307327   -1.358317
 C    3.469871   -2.074682    1.252418
 C    2.274926   -2.717387    1.572704
 C    1.058223   -2.240704    1.120239
 C    1.004148   -1.087341    0.318600
 N   -0.196003   -0.580834   -0.155964
 C   -1.475803   -0.988851    0.137032
 O   -1.780560   -1.919301    0.852023
 C   -2.532034   -0.077420   -0.524071
 O   -3.800253   -0.694897   -0.407209
 C   -3.978559   -1.796808   -1.173451
 O   -3.171426   -2.167344   -1.988977
 C   -5.286374   -2.462284   -0.852690
 C   -2.571625    1.260155    0.176726
 C   -1.988429    2.378407   -0.415865
 C   -1.969120    3.597078    0.257067
 C   -2.541079    3.703052    1.520519
 C   -3.126701    2.586049    2.114159
 C   -3.136388    1.365944    1.449261
 H    5.591655    1.299141   -0.807129
 H    4.427583   -2.440115    1.604086
 H    2.293402   -3.611230    2.188335
 H    0.133939   -2.740660    1.372384
 H   -0.090381    0.246011   -0.740055
 H   -2.276109    0.044707   -1.582080
 H   -6.090153   -1.724786   -0.791678
 H   -5.509706   -3.212066   -1.611185
 H   -5.198944   -2.946129    0.125198
 H   -1.542814    2.301618   -1.404520
 H   -1.511090    4.462731   -0.211041
 H   -2.531657    4.654663    2.043344
 H   -3.574127    2.666287    3.100241
 H   -3.584379    0.489599    1.907395
