41 
3dei_ligand_xtb.xyz
 O    5.794548   -0.637948    0.601031
 C    4.730491   -0.237599    0.193783
 N    4.672299    0.872008   -0.628344
 C    3.563453    1.462081   -1.178679
 O    3.644343    2.446823   -1.866217
 C    3.430377   -0.856528    0.523019
 C    2.216078   -0.353873    0.011865
 C    2.219690    0.799988   -0.873432
 O    1.225928    1.285425   -1.393697
 C    3.447681   -1.957891    1.361608
 C    2.257491   -2.581931    1.713598
 C    1.055103   -2.112159    1.234760
 C    1.007382   -1.001122    0.381670
 N   -0.180149   -0.523346   -0.117164
 C   -1.456422   -0.912667    0.181927
 O   -1.776094   -1.751089    0.985259
 C   -2.491348   -0.079109   -0.596616
 O   -3.729091   -0.774017   -0.596639
 C   -3.706777   -1.974274   -1.197069
 O   -2.743567   -2.397637   -1.779335
 C   -5.022039   -2.679758   -1.037034
 C   -2.634360    1.242930    0.113255
 C   -1.921280    2.353550   -0.320070
 C   -2.028437    3.551459    0.364801
 C   -2.845477    3.647226    1.478676
 C   -3.554812    2.539457    1.911697
 C   -3.445604    1.337247    1.236238
 H    5.565869    1.308717   -0.843839
 H    4.399589   -2.311366    1.726556
 H    2.273906   -3.441495    2.365639
 H    0.129729   -2.593525    1.504910
 H   -0.059615    0.253552   -0.774483
 H   -2.148083    0.054825   -1.630964
 H   -5.833847   -1.959275   -1.014829
 H   -5.157045   -3.395712   -1.841910
 H   -5.003686   -3.214426   -0.088865
 H   -1.285308    2.291427   -1.191049
 H   -1.472610    4.411568    0.023480
 H   -2.929158    4.584368    2.008441
 H   -4.191560    2.609775    2.780830
 H   -3.988900    0.466329    1.567444
