41 
3dej_ligand_xtb.xyz
 O   -6.120834   -0.198615    1.080797
 C   -5.070781   -0.333453    0.500376
 N   -4.968477   -1.214248   -0.560292
 C   -3.866254   -1.494366   -1.326261
 O   -3.898098   -2.309512   -2.211244
 C   -3.830991    0.389570    0.850827
 C   -2.633727    0.206889    0.128821
 C   -2.594392   -0.712656   -0.997297
 O   -1.616557   -0.912781   -1.703045
 C   -3.887177    1.261192    1.924986
 C   -2.754470    1.969615    2.305698
 C   -1.569794    1.811690    1.621527
 C   -1.484247    0.937138    0.530407
 N   -0.315418    0.769640   -0.173676
 C    0.926732    1.268481    0.096060
 O    1.236038    1.947201    1.040811
 C    1.958669    0.793547   -0.949017
 O    3.091324    1.644155   -0.885929
 C    2.849270    2.934094   -1.176714
 O    1.779870    3.326655   -1.560632
 C    4.073737    3.772261   -0.956996
 C    2.347298   -0.618915   -0.598222
 C    1.722261   -1.698304   -1.210747
 C    2.063785   -2.988723   -0.843998
 C    3.024242   -3.215991    0.126087
 C    3.639593   -2.131675    0.732311
Cl    4.836844   -2.397895    1.947129
 C    3.304157   -0.834321    0.384127
 H   -5.817014   -1.725862   -0.792528
 H   -4.824083    1.372240    2.448578
 H   -2.801918    2.650048    3.141676
 H   -0.689425    2.360650    1.912050
 H   -0.418059    0.148901   -0.982712
 H    1.513126    0.850506   -1.950822
 H    4.023090    4.668261   -1.567929
 H    4.966853    3.196764   -1.180040
 H    4.098586    4.062054    0.092163
 H    0.974369   -1.540993   -1.973222
 H    1.577996   -3.825470   -1.321347
 H    3.295276   -4.220149    0.411000
 H    3.780694    0.006269    0.861784
