76 
3djk_ligand_dft.xyz
 C   -6.115460   -0.865618    0.187099
 O   -7.333441   -0.525235    0.661105
 C   -8.051484   -1.478510    1.416524
 C   -5.459954    0.123578   -0.557152
 C   -4.207496   -0.119850   -1.087885
 C   -3.597493   -1.358035   -0.875087
 C   -4.243086   -2.347232   -0.142268
 C   -5.505448   -2.107636    0.390182
 S   -1.939854   -1.638579   -1.441339
 O   -1.696274   -0.698244   -2.534570
 O   -1.758288   -3.067764   -1.623656
 N   -0.936040   -1.162611   -0.213171
 C   -0.773607   -2.049332    0.943037
 C    0.667875   -2.060773    1.468030
 C    0.715584   -2.825254    2.792311
 C    1.630592   -2.664826    0.446951
 C   -0.835332    0.280679    0.046068
 C    0.438014    0.872916   -0.578484
 O    0.274283    1.244481   -1.926946
 C    0.999434    2.090687    0.180460
 N    2.428370    2.224818   -0.073055
 C    3.284654    1.341325    0.510462
 O    3.004368    0.608783    1.441756
 O    4.501560    1.406267   -0.073470
 C    5.472982    0.451921    0.381340
 C    5.258142   -0.865592   -0.370960
 O    6.075455   -1.864434    0.207878
 C    7.312379   -2.049676   -0.416921
 O    7.983911   -0.862446   -0.716193
 C    7.998353    0.098767    0.328195
 C    6.841715    1.082192    0.162410
 C    0.314239    3.420889   -0.162113
 C   -1.642892    3.379606    1.430165
 C   -3.006604    3.306314    1.696362
 C   -3.921411    3.278680    0.647256
 C   -3.461292    3.326330   -0.666135
 C   -2.095217    3.383890   -0.928644
 C   -1.169181    3.410554    0.116208
 H   -8.263662   -2.379721    0.828267
 H   -7.509440   -1.757039    2.328751
 H   -8.990819   -0.996769    1.688237
 H   -5.956281    1.075999   -0.707649
 H   -3.702101    0.638543   -1.675368
 H   -3.768585   -3.313014   -0.003453
 H   -6.000081   -2.892479    0.949812
 H   -1.465659   -1.738739    1.741934
 H   -1.046169   -3.061558    0.632685
 H    0.985561   -1.028340    1.664231
 H    1.730478   -2.820637    3.201537
 H    0.415200   -3.871447    2.652202
 H    0.049586   -2.379181    3.539956
 H    1.397849   -3.721927    0.268498
 H    1.568140   -2.147836   -0.515686
 H    2.661012   -2.598606    0.811108
 H   -1.719842    0.808877   -0.319258
 H   -0.821816    0.414016    1.132152
 H    1.200417    0.085771   -0.489988
 H   -0.237749    0.544508   -2.367349
 H    0.903580    1.895894    1.252458
 H    2.702104    2.566569   -0.984289
 H    5.302939    0.252784    1.442684
 H    4.220561   -1.182928   -0.240011
 H    5.459413   -0.740320   -1.442702
 H    7.885810   -2.675617    0.280419
 H    7.203453   -2.560501   -1.382842
 H    7.972875   -0.389578    1.311879
 H    8.948068    0.633497    0.238812
 H    6.888959    1.490050   -0.853790
 H    6.965704    1.919279    0.859205
 H    0.485944    3.641526   -1.219881
 H    0.804233    4.206618    0.424219
 H   -0.932895    3.406230    2.254203
 H   -3.356303    3.275005    2.724212
 H   -4.986270    3.221926    0.852490
 H   -4.168721    3.313710   -1.491213
 H   -1.734787    3.380026   -1.953165
