34 
3djp_ligand_xtb.xyz
 N    1.879365    0.078693   -0.569623
 C    2.595855   -1.094051   -0.701799
 O    2.267540   -1.958941   -1.496145
 N    3.672599   -1.215244    0.117822
 C    4.103119   -0.317511    1.107018
 O    5.090364   -0.563755    1.756236
 C    3.245596    0.843023    1.209800
 C    2.194809    0.998842    0.386226
 O   -0.253653    2.870821    0.944775
 C   -0.994238    3.061721   -0.237015
 C   -0.900195    1.816416   -1.117048
 O    0.423536    1.626079   -1.618931
 C   -1.261868    0.516462   -0.396955
 O   -2.640633    0.284037   -0.424879
 C   -0.466078   -0.515974   -1.202413
 O   -0.267813   -1.690561   -0.474794
 C    0.807653    0.290400   -1.552624
 O   -4.708308   -0.605101    0.577910
 P   -3.147312   -0.793477    0.683047
 O   -2.548937   -0.579541    2.000328
 O   -2.963305   -2.216062    0.021883
 H    4.212347   -2.068760    0.017443
 H    3.479179    1.574064    1.963320
 H    1.539577    1.854901    0.434183
 H   -0.474073    3.562396    1.576874
 H   -2.056054    3.223183   -0.017010
 H   -0.604030    3.918053   -0.803242
 H   -1.581945    1.949186   -1.969578
 H   -0.905701    0.523994    0.640995
 H   -1.014274   -0.725474   -2.135375
 H    0.440895   -2.199316   -0.910803
 H    1.227373   -0.020000   -2.520842
 H   -5.031917   -0.231842    1.396619
 H   -2.023697   -2.434143   -0.017880
