20 
3dln_ligand_dft.xyz
 N    0.818694    1.686540    0.479846
 C    1.142560    0.271042    0.870785
 C    1.761774   -0.472550   -0.312916
 O    1.771265   -1.667010   -0.401387
 C   -0.072595   -0.448420    1.475335
 C   -1.151843   -0.985923    0.526004
 C   -1.943239    0.038018   -0.245680
 O   -3.086158   -0.441095   -0.688908
 O   -1.587511    1.188127   -0.481278
 O    2.318432    0.379010   -1.185372
 H   -0.130234    1.674107    0.001835
 H    1.526643    2.062754   -0.159003
 H    0.755229    2.295783    1.298726
 H    1.927158    0.331831    1.632507
 H   -0.518843    0.204705    2.234338
 H    0.328771   -1.310272    2.014001
 H   -0.712638   -1.677472   -0.203109
 H   -1.858385   -1.587058    1.105157
 H   -3.540991    0.243373   -1.210473
 H    2.744267   -0.128784   -1.898500
