23 
3dnd_ligand_xtb.xyz
 C   -1.945462   -0.926480    0.747404
 C   -2.979923   -1.459104   -0.000746
 C   -3.653679   -0.668236   -0.915722
 C   -3.285723    0.656088   -1.081161
 C   -2.249478    1.187069   -0.333715
 C   -1.574303    0.402189    0.590864
 C   -0.414297    0.965670    1.373581
 C    0.858837    0.705556    0.639774
 S    1.553390   -0.898050    0.559888
 C    1.621088    1.560426   -0.082225
 N    2.720042    1.034959   -0.688275
 C    2.832892   -0.222661   -0.454267
 N    3.868201   -1.000637   -0.862022
 H   -1.417637   -1.546889    1.458010
 H   -3.260796   -2.493829    0.131615
 H   -4.463110   -1.082910   -1.498392
 H   -3.806756    1.277554   -1.794903
 H   -1.961683    2.220357   -0.467134
 H   -0.372123    0.498661    2.360709
 H   -0.529181    2.044264    1.497239
 H    1.425241    2.610417   -0.204461
 H    3.715417   -1.994398   -0.898416
 H    4.438961   -0.607784   -1.593117
