31 
3doy_ligand_dft.xyz
 C    4.919938    0.683102   -1.001847
 C    5.759102    0.945069    0.070147
 C    5.649215    0.165429    1.219715
Cl    6.699850    0.490148    2.572114
 C    4.720721   -0.867137    1.312300
 C    3.885841   -1.122528    0.232323
 C    3.980342   -0.348407   -0.927170
 C    3.077822   -0.555996   -2.086315
 O    3.146883    0.049719   -3.132376
 N    2.156729   -1.657168   -1.949814
 N    0.945970   -1.493033   -1.778837
 C    0.426823   -0.120098   -1.653175
 C   -0.896942   -0.110952   -0.930265
 C   -1.548049   -1.265265   -0.514417
 C   -2.762896   -1.211469    0.154882
Br   -3.608025   -2.805599    0.703399
 C   -3.372749    0.013271    0.430304
 O   -4.548082    0.027193    1.080410
 C   -2.713612    1.173512    0.006681
Br   -3.506637    2.865109    0.359420
 C   -1.492384    1.126481   -0.666495
 O   -0.833908    2.228393   -1.087979
 H    4.978923    1.274561   -1.909523
 H    6.491607    1.742917    0.022304
 H    4.657798   -1.463379    2.215459
 H    3.168040   -1.934350    0.290446
 H    0.314498    0.268545   -2.673708
 H    1.146650    0.539910   -1.149845
 H   -1.096931   -2.228145   -0.721418
 H   -4.844802    0.941919    1.194013
 H   -1.337160    3.021551   -0.852248
