31 
3doy_ligand_xtb.xyz
 C   -0.045311   -0.094979    2.117965
 C    1.155382    0.583232    2.189850
 C    2.313234   -0.043113    1.750456
Cl    3.816457    0.805049    1.806809
 C    2.280306   -1.342395    1.258600
 C    1.075251   -2.013185    1.182330
 C   -0.096725   -1.388740    1.604010
 C   -1.438750   -2.008530    1.448479
 O   -2.438952   -1.600711    2.006311
 N   -1.446959   -3.200103    0.769370
 N   -1.704707   -3.565465   -0.348704
 C   -2.025422   -2.632871   -1.419931
 C   -1.483586   -1.245486   -1.247876
 C   -2.235717   -0.209371   -0.716188
 C   -1.669386    1.027702   -0.481641
Br   -2.681541    2.428592    0.282626
 C   -0.328372    1.280969   -0.778985
 O    0.180347    2.488898   -0.514892
 C    0.405830    0.239546   -1.340210
Br    2.249629    0.551576   -1.782777
 C   -0.135756   -1.022438   -1.566084
 O    0.584691   -2.039897   -2.070619
 H   -0.961788    0.363938    2.457388
 H    1.195531    1.589235    2.576681
 H    3.193657   -1.815866    0.933925
 H    1.042376   -3.022604    0.799203
 H   -3.117311   -2.629967   -1.488045
 H   -1.624785   -3.100870   -2.322828
 H   -3.270989   -0.371468   -0.458404
 H    1.117904    2.536449   -0.758027
 H    1.489658   -1.749964   -2.266093
