37 
3dp0_ligand_dft.xyz
 C   -4.586186    0.079168    1.013028
 C   -5.456849    0.364272   -0.063678
 C   -6.505631    1.315105    0.051994
 C   -7.333469    1.571521   -1.008851
 C   -7.151401    0.889407   -2.235970
 C   -6.147585   -0.033542   -2.377533
 C   -5.273507   -0.321536   -1.297960
 C   -4.223649   -1.272007   -1.409212
 C   -3.394406   -1.532741   -0.352897
 C   -3.576509   -0.846704    0.877516
 C   -2.671252   -1.060403    2.032459
 O   -2.791026   -0.538476    3.119111
 N   -1.660485   -2.071324    1.834912
 N   -0.470286   -1.794443    1.664479
 C   -0.076187   -0.375368    1.607633
 C    1.244922   -0.213628    0.898433
 C    1.985675   -1.283514    0.413037
 C    3.194288   -1.091154   -0.242108
Br    4.163843   -2.575105   -0.886565
 C    3.706801    0.192673   -0.432504
 O    4.879382    0.341839   -1.071288
 C    2.957325    1.267410    0.060722
Br    3.616909    3.035392   -0.174708
 C    1.741766    1.081257    0.719888
 O    0.997474    2.098416    1.206543
 H   -4.705368    0.594934    1.961760
 H   -6.639488    1.833894    0.997326
 H   -8.133688    2.298826   -0.913380
 H   -7.814627    1.101975   -3.068982
 H   -6.008555   -0.557202   -3.319504
 H   -4.089931   -1.797018   -2.350988
 H   -2.604005   -2.270319   -0.446374
 H   -0.005024   -0.024104    2.645126
 H   -0.850496    0.238398    1.126949
 H    1.609819   -2.289656    0.554639
 H    5.102376    1.282783   -1.121937
 H    1.436555    2.942287    1.025272
