35 
3dp1_ligand_dft.xyz
 C    7.419134    1.190503    2.349749
 O    6.417777    0.193415    2.370047
 C    5.649619    0.030903    1.273682
 C    4.685273   -0.983582    1.356130
 C    3.848503   -1.232001    0.286104
 C    5.765081    0.794074    0.105721
 C    4.917566    0.536428   -0.962204
 C    3.955199   -0.471221   -0.887720
 C    3.055717   -0.668851   -2.040483
 O    3.123213   -0.070576   -3.093013
 N    2.112152   -1.755475   -1.899319
 N    0.906981   -1.559454   -1.719095
 C    0.426230   -0.172094   -1.590152
 C   -0.909240   -0.130412   -0.890277
 C   -1.577435   -1.266936   -0.453345
 C   -2.802094   -1.184661    0.195211
Br   -3.670194   -2.756497    0.772976
 C   -3.405356    0.051759    0.427916
 O   -4.591060    0.094098    1.058809
 C   -2.728839    1.194091   -0.016280
Br   -3.512886    2.901739    0.278003
 C   -1.497562    1.118713   -0.668346
 O   -0.822679    2.203877   -1.107289
 H    8.155421    1.001239    1.559241
 H    6.986153    2.189190    2.214994
 H    7.910777    1.138459    3.321222
 H    4.621091   -1.563349    2.270345
 H    3.113768   -2.028156    0.353347
 H    6.503945    1.582055    0.021394
 H    4.990694    1.120326   -1.874133
 H    0.343551    0.232233   -2.607049
 H    1.156618    0.459931   -1.066431
 H   -1.131748   -2.238541   -0.628930
 H   -4.880056    1.014504    1.141987
 H   -1.325131    3.006360   -0.904050
