24 
3dp4_ligand_xtb.xyz
 N    2.166319    0.888205    1.037438
 C    1.680304   -0.496277    0.859761
 C    1.749464   -0.872549   -0.631858
 O    0.945347   -1.559676   -1.183161
 O    2.825249   -0.339538   -1.200656
 C    0.252242   -0.658435    1.392940
 C   -0.782591   -0.005029    0.526924
 C   -0.680114    1.310185   -0.053584
 C   -1.996442   -0.493569    0.134712
 C   -2.680160   -1.778361    0.374208
 O    0.250699    2.143703   -0.009160
 N   -1.830715    1.502710   -0.720284
 O   -2.649089    0.413315   -0.617624
 H    2.319906    1.118127    2.019697
 H    1.338356    1.591555    0.590938
 H    3.032317    1.031969    0.511895
 H    2.341998   -1.195697    1.387074
 H    2.908653   -0.597072   -2.133960
 H    0.026496   -1.722568    1.451174
 H    0.202571   -0.248361    2.405481
 H   -2.876499   -2.267331   -0.578821
 H   -2.076678   -2.431109    0.994487
 H   -3.641161   -1.605412    0.855555
 H   -2.159057    2.291281   -1.257395
