24 
3dp4_ligand_dft.xyz
 N    2.124059    1.183755    0.785673
 C    1.724796   -0.260828    0.862897
 C    1.856056   -0.932201   -0.503495
 O    1.273583   -1.939606   -0.790185
 O    2.720556   -0.278849   -1.290203
 C    0.308794   -0.419302    1.432411
 C   -0.789475    0.051604    0.524433
 C   -0.862378    1.356941   -0.092634
 C   -1.908602   -0.610304    0.130665
 C   -2.429803   -1.974556    0.388310
 O   -0.033186    2.288320   -0.121100
 N   -2.079047    1.397655   -0.693959
 O   -2.697458    0.171247   -0.635222
 H    2.357826    1.552492    1.709840
 H    1.284564    1.769269    0.389098
 H    2.935650    1.303834    0.172499
 H    2.439392   -0.759451    1.526434
 H    2.808366   -0.758911   -2.132103
 H    0.173054   -1.481057    1.649596
 H    0.259974    0.103140    2.396238
 H   -2.927360   -2.360921   -0.504371
 H   -1.612873   -2.648657    0.652049
 H   -3.157621   -1.958706    1.205840
 H   -2.380333    1.972079   -1.468968
