36 
3dpd_ligand_xtb.xyz
 C   -4.543070   -1.736529   -0.145413
 C   -3.309465   -0.894866    0.188222
 C   -2.997656   -1.029509    1.680512
 C   -2.117366   -1.388866   -0.646080
 C   -0.968405   -0.450234   -0.537335
 C   -1.139853    0.878385   -0.229033
 C   -2.404972    1.509915    0.042199
 C   -3.588920    0.573817   -0.158694
 O   -2.542783    2.671112    0.369659
 S    0.416961    1.677712   -0.168013
 C    1.146473    0.128356   -0.582974
 N    2.466678   -0.000507   -0.791657
 C    3.416383    1.003821   -0.368931
 C    4.001848    0.601000    0.991946
 O    4.585977   -0.679678    0.926449
 C    3.648572   -1.657732    0.534576
 C    3.047985   -1.328804   -0.837991
 N    0.300817   -0.854336   -0.727891
 H   -5.397018   -1.409353    0.442862
 H   -4.799509   -1.647767   -1.199000
 H   -4.357418   -2.785411    0.074839
 H   -2.117511   -0.450028    1.948609
 H   -3.834273   -0.670562    2.275415
 H   -2.815383   -2.070823    1.937903
 H   -2.408503   -1.458295   -1.699441
 H   -1.799574   -2.383345   -0.328632
 H   -4.424098    0.957582    0.430095
 H   -3.867121    0.650831   -1.214946
 H    2.932777    1.978434   -0.308863
 H    4.219200    1.041776   -1.112039
 H    3.201904    0.614748    1.748292
 H    4.796185    1.285251    1.292318
 H    2.837143   -1.721771    1.275620
 H    4.189678   -2.604189    0.506626
 H    3.836159   -1.329395   -1.596348
 H    2.268649   -2.041166   -1.103145
