59 
3dpf_ligand_xtb.xyz
 N   -6.827658   -1.980982    1.710966
 C   -7.384899   -1.985579    0.590462
 C   -8.740006   -2.266918   -0.026808
 O   -9.707134   -2.892963    0.287234
 C   -8.330632   -1.397827   -1.210460
 O   -8.863335   -0.740942   -2.052199
 C   -6.853652   -1.405232   -0.715351
 N   -6.135043   -0.118607   -0.649306
 C   -5.919592    0.490121   -1.986867
 C   -5.490417    1.938678   -1.804653
 C   -4.841451   -0.254113    0.063366
 C   -4.090623    1.052202    0.098362
 C   -3.076962    1.208927    1.033516
 C   -4.373703    2.074817   -0.801646
 C   -3.628744    3.246721   -0.743052
 C   -2.615638    3.397194    0.184361
 C   -2.332155    2.377376    1.084527
 C   -1.211712    2.500680    2.087929
 N    0.016615    1.923113    1.576433
 C    0.250794    0.605064    1.590536
 O   -0.518296   -0.250021    1.990637
 C    1.606594    0.234869    1.063848
 N    2.387808    1.151708    0.579387
 C    3.593570    0.723333    0.162895
 S    4.791328    1.776701   -0.501248
 C    5.885833    0.436014   -0.713614
 C    7.230659    0.663736   -1.270850
 S    8.326342   -0.657412   -0.608656
 O    8.370626   -0.533674    0.816217
 O    9.551445   -0.636794   -1.346357
 C    7.331315   -2.112337   -1.057510
 C    6.078999   -2.063925   -0.212032
 C    5.359044   -0.756288   -0.281758
 C    4.038287   -0.597308    0.213008
 C    3.144917   -1.623634    0.720180
 O    3.346287   -2.812050    0.788112
 N    1.925279   -1.073745    1.137137
 H   -7.360377   -2.373489    2.483396
 H   -6.243156   -2.123463   -1.272261
 H   -6.707639    0.540616   -0.108362
 H   -5.143896   -0.084751   -2.496717
 H   -6.844853    0.431973   -2.563158
 H   -5.173115    2.339857   -2.768121
 H   -6.343259    2.542704   -1.477527
 H   -5.037186   -0.620963    1.074652
 H   -4.245665   -1.011037   -0.456924
 H   -2.851622    0.406679    1.718900
 H   -3.848358    4.045034   -1.435204
 H   -2.048011    4.314277    0.210862
 H   -1.025077    3.545994    2.333277
 H   -1.480799    1.953029    2.996060
 H    0.730740    2.511769    1.171785
 H    7.638849    1.629962   -0.981602
 H    7.277796    0.564839   -2.354765
 H    7.925260   -2.998751   -0.854067
 H    7.139959   -2.033478   -2.123748
 H    6.360192   -2.220968    0.835182
 H    5.386235   -2.869491   -0.472886
 H    1.226555   -1.697260    1.537875
