42 
3drp_ligand_dft.xyz
Cl   12.441712   11.633953   16.765236
 C   10.779425   11.968494   16.373991
 C    9.830816   12.111684   17.390373
 O   10.181300   11.942710   18.710128
 C   10.751723   12.984836   19.380340
 C   11.208490   12.699454   20.664262
 C   11.786445   13.718795   21.417346
 C   12.259601   13.433520   22.745024
 N   12.639537   13.205647   23.815625
 C   10.866632   14.267177   18.849241
 C   11.452178   15.261303   19.626410
Cl   11.599276   16.866561   18.961319
 C   11.917987   15.015794   20.908683
 C   10.376063   12.089976   15.052174
 C    9.047496   12.350708   14.728557
 C    8.106107   12.491981   15.750237
 C    8.506979   12.372623   17.083111
 O    6.788746   12.757294   15.568039
 C    6.281218   12.845509   14.242499
 C    6.286405   11.522701   13.542918
 N    6.660750   11.427947   12.282990
 N    6.531393   10.119319   11.953623
 C    6.092432    9.363912   12.993500
 N    5.887508    8.043076   12.985575
 C    5.462485    7.554483   14.146414
 N    5.185312    6.210581   14.182725
 C    5.249916    8.347013   15.318765
 C    5.481435    9.698989   15.285292
 C    5.916350   10.251478   14.067719
 H   11.112183   11.694013   21.056031
 H   10.511228   14.491859   17.850808
 H   12.371045   15.801973   21.499761
 H   11.109127   11.972375   14.261711
 H    8.763742   12.414129   13.685592
 H    7.780512   12.481966   17.880198
 H    5.259855   13.209827   14.378416
 H    6.832220   13.585993   13.650417
 H    6.762368    9.810513   11.023711
 H    5.551181    5.676508   13.408310
 H    5.204457    5.745829   15.076702
 H    4.901983    7.864507   16.226290
 H    5.339382   10.316992   16.165939
