42 
3drs_ligand_xtb.xyz
Cl    2.105063   -1.841615    2.002629
 C    0.655293   -2.028898    1.067760
 C    0.105667   -0.949516    0.379836
 O    0.641354    0.314390    0.411781
 C    1.960547    0.496089    0.117805
 C    2.563895    1.651572    0.599973
 C    3.896330    1.925297    0.309697
 C    4.504857    3.150078    0.851862
 N    5.697576    3.542270    0.793787
 C    2.680925   -0.381584   -0.687811
 C    4.007558   -0.100982   -0.967128
Cl    4.901129   -1.198800   -1.957382
 C    4.625893    1.033411   -0.476356
 C    0.021744   -3.262641    1.025244
 C   -1.157765   -3.420201    0.332132
 C   -1.738591   -2.338011   -0.334379
 C   -1.088439   -1.109918   -0.314179
 O   -2.900105   -2.590586   -0.980756
 C   -3.619079   -1.510454   -1.541142
 C   -4.024738   -0.481253   -0.532900
 N   -4.501186   -0.810170    0.644890
 N   -4.751886    0.318036    1.320476
 C   -4.439581    1.413410    0.592656
 N   -4.553284    2.686889    0.948613
 C   -4.160543    3.551042    0.037041
 C   -3.657742    3.208026   -1.226412
 C   -3.547193    1.884572   -1.595031
 C   -3.950518    0.936525   -0.654640
 H    1.982952    2.324793    1.210971
 H    3.817228    3.804306    1.382533
 H    6.339872    2.922681    0.301391
 H    2.215078   -1.270241   -1.085082
 H    5.662328    1.220137   -0.712418
 H    0.457738   -4.095018    1.553976
 H   -1.659728   -4.372880    0.301495
 H   -1.479212   -0.241191   -0.817603
 H   -4.508040   -1.978643   -1.976587
 H   -3.043711   -1.033166   -2.346190
 H   -4.247957    4.590523    0.321758
 H   -3.360177    3.992598   -1.904045
 H   -3.166869    1.596685   -2.564882
 H   -5.114409    0.277501    2.258761
