40 
3drs_ligand_dft.xyz
Cl   12.981477   12.887726   14.594490
 C   11.268993   12.937283   14.289989
 C   10.376525   12.379899   15.199869
 O   10.896090   11.735676   16.293810
 C   10.142322   11.631637   17.428256
 C    9.968865   10.367016   17.974292
 C    9.256881   10.243469   19.168648
 C    9.022558    8.940324   19.727467
 N    8.799515    7.894056   20.172818
 C    9.610351   12.763623   18.044758
 C    8.897091   12.608348   19.225941
Cl    8.212863   14.014564   19.996095
 C    8.713809   11.360561   19.807975
 C   10.774699   13.528897   13.129212
 C    9.413690   13.573663   12.880687
 C    8.519740   13.017561   13.800833
 C    9.003758   12.419636   14.961811
 O    7.207049   13.108346   13.479661
 C    6.236841   12.640746   14.399119
 C    6.238127   11.150812   14.594455
 N    6.305823   10.324220   13.571527
 N    6.318513    9.078151   14.084651
 C    6.262532    9.074899   15.443161
 N    6.279412    8.005209   16.241868
 C    6.223862    8.303774   17.533048
 C    6.149395    9.614787   18.053576
 C    6.144324   10.702481   17.201892
 C    6.200708   10.429089   15.828461
 H   10.378423    9.500882   17.468749
 H    9.753913   13.743561   17.603885
 H    8.156873   11.254485   20.731205
 H   11.473263   13.960532   12.420821
 H    9.023001   14.034291   11.980772
 H    8.342325   11.947928   15.674729
 H    6.365593   13.135566   15.372288
 H    5.286054   12.973207   13.977065
 H    6.385662    8.282871   13.469964
 H    6.249141    7.461398   18.219627
 H    6.105208    9.748688   19.128592
 H    6.099732   11.718136   17.585932
