62 
3dt1_ligand_dft.xyz
 C    6.221136    0.693111   -0.473396
 C    6.360674   -0.823920   -0.341972
 C    3.302476   -2.596126    1.132120
 C    4.681411   -1.950136    1.125936
 C    0.086289    2.143395    0.517430
 C   -0.723668    1.394482   -0.310787
 C   -0.110656    0.428551   -1.151738
 C    1.247623    0.214394   -1.155378
 C   -2.205048    1.531006   -0.310809
 C   -2.958507    0.370154   -0.135496
 C   -4.348827    0.396929   -0.109692
 C   -4.995223    1.624690   -0.247050
 C   -5.049980   -0.918842    0.102677
 C   -7.119374   -2.177104   -0.157140
 C   -7.592434   -2.611770    1.197944
 C   -8.574421   -2.060224    0.200660
 N    3.664446    2.475745    1.390002
 C    2.370444    2.665198    1.373293
 N    5.016368   -1.498842   -0.266180
 C    4.867511   -2.631390   -1.232563
 C    3.486601   -3.261627   -1.081550
 O    3.264213   -3.683336    0.238955
 C   -4.252862    2.783570   -0.435647
 C   -2.857006    2.767724   -0.477797
 C   -2.115274    4.061849   -0.711031
 O   -4.458962   -1.878290    0.572306
 C    1.482730    1.943821    0.531788
 C    2.074474    0.967016   -0.299701
 N    3.427419    0.748808   -0.258952
 C    4.136587    1.512636    0.552818
 N    5.492192    1.311239    0.617224
 N   -6.365587   -0.962610   -0.257035
 H    5.739856    0.936706   -1.428628
 H    7.230339    1.111241   -0.499349
 H    6.920953   -1.093167    0.556003
 H    6.890425   -1.220224   -1.211691
 H    2.530959   -1.852677    0.876426
 H    3.088527   -2.986912    2.128151
 H    5.445087   -2.672219    1.427985
 H    4.728747   -1.072388    1.774129
 H   -0.346603    2.881616    1.186453
 H   -0.744119   -0.149021   -1.818480
 H    1.696049   -0.508238   -1.830068
 H   -2.471144   -0.588795    0.015589
 H   -6.077192    1.696634   -0.183486
 H   -6.826089   -2.958479   -0.854806
 H   -7.317158   -1.982831    2.037518
 H   -7.600700   -3.675829    1.407276
 H   -9.269439   -2.739398   -0.281792
 H   -8.967171   -1.064050    0.382658
 H    1.980161    3.425092    2.049274
 H    4.298457   -0.749805   -0.493814
 H    5.652194   -3.359471   -1.008151
 H    5.016438   -2.233901   -2.239845
 H    3.420132   -4.142914   -1.721873
 H    2.709474   -2.546878   -1.395260
 H   -4.770614    3.731536   -0.553940
 H   -1.847599    4.548700    0.234395
 H   -1.191754    3.909915   -1.276748
 H   -2.740432    4.765596   -1.267099
 H    5.971030    2.003553    1.176052
 H   -6.722753   -0.245087   -0.869906
