85 
3dv5_ligand_xtb.xyz
 N    2.839669   -2.669917    0.333225
 C    1.434333   -2.796983   -0.038235
 C    0.610697   -1.578742    0.384859
 N    0.841436   -0.477432   -0.326806
 C    0.150083    0.769849   -0.077908
 C    1.037168    1.978633   -0.385937
 C    2.370251    2.046404    0.375703
 C    2.964999    3.452031    0.176261
 C    4.483474    3.498235    0.352921
 C    5.220017    3.035635   -0.907367
 C    6.625395    2.499910   -0.629209
 C    6.647139    1.186469    0.155143
 C    6.006703    0.025239   -0.600577
 C    5.908487   -1.227595    0.263520
 C    5.141377   -2.348633   -0.454180
 C    3.662598   -2.079270   -0.568187
 O    3.183409   -1.391169   -1.466200
 C    2.197962    1.749392    1.863760
 C   -1.166800    0.883619   -0.908800
 O   -1.999285    1.880454   -0.352458
 C   -2.027330   -0.385589   -0.896364
 N   -2.481291   -0.634215    0.483583
 C   -3.575767   -1.629546    0.598697
 C   -4.815125   -1.147119   -0.105922
 C   -5.519678   -0.068737    0.413090
 C   -6.651644    0.422967   -0.223727
 C   -7.066732   -0.193603   -1.398989
 C   -6.373333   -1.269669   -1.923204
 C   -5.243213   -1.746326   -1.282878
 C   -7.417758    1.590594    0.342914
 C   -6.535723    2.839522    0.413026
 C   -7.989740    1.246616    1.720038
 O   -0.246922   -1.645239    1.273574
 C    0.798463   -4.084342    0.473272
 C    3.267645   -3.207516    1.605688
 H    1.422959   -2.802886   -1.137914
 H    1.620763   -0.514871   -0.994366
 H   -0.130749    0.789908    0.982379
 H    0.467423    2.877882   -0.138084
 H    1.248633    1.996030   -1.457843
 H    3.053741    1.305561   -0.047974
 H    2.490531    4.129480    0.889410
 H    2.726253    3.812589   -0.826736
 H    4.788885    4.518119    0.590560
 H    4.763339    2.875581    1.201905
 H    5.297915    3.876607   -1.599254
 H    4.636994    2.265448   -1.413293
 H    7.187287    3.251877   -0.071526
 H    7.135303    2.345806   -1.582279
 H    7.685083    0.932129    0.380022
 H    6.135946    1.317687    1.111258
 H    6.593595   -0.194089   -1.494364
 H    5.003172    0.295420   -0.928443
 H    6.910685   -1.588801    0.500958
 H    5.414895   -0.977291    1.206805
 H    5.520942   -2.417401   -1.475917
 H    5.309414   -3.304146    0.041221
 H    3.123974    1.955375    2.393043
 H    1.421012    2.378000    2.294853
 H    1.944697    0.705560    2.037580
 H   -0.914690    1.112234   -1.952376
 H   -1.667337    2.757462   -0.566589
 H   -2.902649   -0.213594   -1.527686
 H   -1.476678   -1.249183   -1.269147
 H   -2.799811    0.274434    0.843121
 H   -1.610531   -0.974577    1.024445
 H   -3.225995   -2.569777    0.169228
 H   -3.772068   -1.784370    1.662000
 H   -5.189988    0.385058    1.337131
 H   -7.947286    0.170149   -1.906461
 H   -6.712949   -1.738746   -2.833379
 H   -4.703402   -2.588825   -1.689428
 H   -8.254971    1.804016   -0.328753
 H   -5.716605    2.703449    1.115244
 H   -6.118612    3.066660   -0.565716
 H   -7.125893    3.690826    0.741402
 H   -8.603402    0.350639    1.663310
 H   -7.196239    1.075285    2.443424
 H   -8.607734    2.064836    2.080047
 H    0.638875   -4.049636    1.546727
 H    1.423359   -4.936898    0.226326
 H   -0.167800   -4.219214   -0.006338
 H    2.508869   -2.985339    2.355593
 H    4.194732   -2.735479    1.916876
 H    3.416103   -4.289080    1.565222
