24 
3dx0_ligand_dft.xyz
 C   31.520556   65.816599    9.606945
 N   31.407095   64.374681    9.781761
 C   32.992483   66.371873    9.521734
 O   33.963946   65.499379   10.033850
 C   33.202326   66.695827    8.042664
 O   33.480635   65.463299    7.397513
 C   31.838156   67.216118    7.602760
 O   31.775245   67.203333    6.193555
 C   30.860567   66.241302    8.275128
 S   29.192118   66.957834    8.368381
 C   28.245775   65.445281    8.708717
 H   31.006366   66.287706   10.450100
 H   31.883214   63.915488    9.007101
 H   31.925074   64.109857   10.616595
 H   33.062012   67.297094   10.103766
 H   34.165334   64.877084    9.320042
 H   34.010663   67.415740    7.862457
 H   33.236509   65.581669    6.467886
 H   31.699667   68.236412    7.993927
 H   30.849883   67.322458    5.940752
 H   30.799324   65.358283    7.629042
 H   28.235561   64.787695    7.835256
 H   28.682230   64.912432    9.556186
 H   27.222262   65.743558    8.945879
