20 
3dx1_ligand_dft.xyz
 O   33.417453   65.620395    7.203591
 C   32.911445   66.789426    7.825571
 C   32.498140   66.405549    9.244284
 O   33.467150   65.638997    9.911059
 C   31.110615   65.685980    9.071210
 N   31.168802   64.230540    9.115421
 C   30.579559   66.159841    7.698843
 C   31.586581   67.182135    7.163917
 O   31.657323   67.084542    5.747033
 H   33.138363   65.675742    6.275694
 H   33.665630   67.589647    7.795630
 H   32.364200   67.317877    9.837224
 H   33.814546   65.023424    9.249561
 H   30.441995   66.003340    9.878174
 H   31.788410   63.908372    8.374363
 H   31.602523   63.948035    9.991197
 H   30.550598   65.308916    7.010859
 H   29.566447   66.565702    7.744646
 H   31.312248   68.203001    7.464772
 H   32.122972   67.861536    5.413950
