25 
3dx2_ligand_dft.xyz
 O   28.279475   65.192646    8.855664
 S   28.960163   66.182257    7.946569
 C   28.700018   65.616427    6.243928
 C   30.757438   65.857124    8.008526
 C   31.272222   65.760235    9.468181
 N   30.912050   64.600073   10.243144
 C   32.786120   65.869508    9.260222
 O   33.244533   64.634646    8.762505
 C   32.950712   66.956276    8.167622
 O   34.012365   66.643713    7.295555
 C   31.577695   66.992214    7.403821
 O   31.753092   66.802280    6.004560
 H   29.380109   66.153161    5.577577
 H   28.896322   64.541333    6.203819
 H   27.658947   65.811530    5.978405
 H   30.978095   64.916179    7.493714
 H   30.939098   66.657640   10.011894
 H   29.902062   64.480737   10.211435
 H   31.337754   63.780063    9.819830
 H   33.302250   66.127776   10.193816
 H   33.991871   64.858445    8.184858
 H   33.157025   67.929591    8.625277
 H   33.590785   66.396838    6.454227
 H   31.079401   67.952762    7.588456
 H   31.908397   67.663547    5.597393
