22 
3dx3_ligand_xtb.xyz
 O   -1.675426    1.889177   -0.445302
 C   -1.047496    0.844357    0.229507
 C   -1.228626   -0.542387   -0.462683
 O   -1.960134   -1.395884    0.378888
 C    0.214102   -1.077579   -0.645037
 O    0.630010   -1.675433    0.570808
 C    0.464527    1.140179    0.198719
 N    1.146279    0.724258    1.449105
 C    1.035341    0.207079   -0.884757
 O    2.410697    0.083354   -0.673126
 H   -2.634819    1.815112   -0.382048
 H   -1.412912    0.757928    1.264020
 H   -1.709046   -0.393526   -1.433314
 H   -2.514179   -1.997658   -0.129216
 H    0.300739   -1.801050   -1.463074
 H   -0.133652   -2.171545    0.916050
 H    0.632774    2.197882   -0.009884
 H    0.799362    1.195409    2.286950
 H    2.154325    0.885006    1.320553
 H    1.012173   -0.337712    1.460138
 H    0.799997    0.601552   -1.880388
 H    2.813017   -0.460817   -1.358166
