21 
3dx3_ligand_dft.xyz
 O   29.553024   66.244159    7.067114
 C   30.912867   66.139939    7.395910
 C   31.689076   67.387231    7.022332
 O   31.984326   67.519300    5.645270
 C   33.022442   67.246996    7.807670
 O   34.041213   66.732863    6.976953
 C   31.192375   66.014020    8.890038
 N   30.650315   64.768227    9.400077
 C   32.723074   66.216176    8.955961
 O   33.352087   64.985505    8.695583
 H   29.116443   65.543777    7.575905
 H   31.377907   65.277440    6.886701
 H   31.132104   68.265024    7.378233
 H   31.190252   67.278852    5.151909
 H   33.342757   68.210699    8.216897
 H   33.712136   66.829552    6.066697
 H   30.685649   66.847107    9.395436
 H   31.306935   64.027427    9.158341
 H   30.598484   64.789132   10.414336
 H   33.049657   66.595194    9.932900
 H   33.934876   65.156381    7.933738
