25 
3dx4_ligand_xtb.xyz
 C   -3.326894   -0.296967   -0.318574
 O   -2.057015    0.199431   -0.713692
 C   -1.136147    0.369198    0.320206
 C   -0.340882   -0.912442    0.641184
 O    0.403281   -0.674610    1.819550
 C    0.589150   -1.068568   -0.586514
 O    1.793042   -1.691315   -0.204294
 C    0.870181    0.391413   -1.079492
 O    2.212496    0.748818   -0.900824
 C   -0.028876    1.302756   -0.196263
 N    0.832746    1.760611    0.917183
 H   -3.785800    0.355179    0.429805
 H   -3.260167   -1.312910    0.077680
 H   -3.932235   -0.299115   -1.220930
 H   -1.617884    0.762580    1.227248
 H   -0.985567   -1.787230    0.768836
 H    1.072381   -1.370980    1.896325
 H    0.062335   -1.624344   -1.362105
 H    2.015120   -2.412813   -0.800142
 H    0.591995    0.500796   -2.130966
 H    2.700029   -0.063048   -0.664707
 H   -0.436075    2.142697   -0.758202
 H    0.551954    2.645782    1.339129
 H    1.786060    1.802748    0.476319
 H    0.835005    0.965454    1.612232
