55 
3dzt_ligand_dft.xyz
 O  -14.054159   -6.067572    9.218187
 C  -14.855769   -6.349895    8.360238
 O  -16.154559   -6.590711    8.646282
 C  -14.575951   -6.463177    6.882446
 C  -15.376910   -5.452961    6.048632
 C  -15.077329   -4.002366    6.425740
 C  -15.819580   -3.001427    5.550264
 O  -15.408611   -3.222579    4.215247
 C  -15.534940   -1.547557    5.973104
 C  -16.283878   -0.571922    5.115510
 C  -15.742489    0.120785    4.102174
 C  -16.482877    1.023838    3.235586
 C  -15.929206    1.716675    2.224843
 C  -16.679957    2.618546    1.364989
 C  -16.199030    3.337193    0.339623
 C  -14.776713    3.400090   -0.151290
 C  -14.172852    4.755047    0.128283
 C  -13.806395    5.675089   -0.766017
 C  -13.875037    5.582124   -2.266091
 C  -12.496551    5.342472   -2.906069
 C  -11.919884    3.963557   -2.581704
 C  -10.576306    3.669423   -3.256486
 C   -9.438132    4.582398   -2.798616
 H  -16.240296   -6.485431    9.607178
 H  -13.501717   -6.315614    6.746383
 H  -14.826955   -7.481436    6.564335
 H  -15.137915   -5.602524    4.991960
 H  -16.448138   -5.653084    6.168154
 H  -15.351242   -3.818912    7.473115
 H  -13.999968   -3.810604    6.337076
 H  -16.904850   -3.185882    5.646942
 H  -15.785415   -2.511196    3.678944
 H  -15.816805   -1.422029    7.026083
 H  -14.454873   -1.374945    5.892801
 H  -17.353543   -0.472680    5.307739
 H  -14.673212    0.021723    3.908074
 H  -17.549951    1.131379    3.433953
 H  -14.862117    1.600726    2.041538
 H  -17.741476    2.707368    1.594381
 H  -16.891129    3.984361   -0.196974
 H  -14.161450    2.629544    0.326387
 H  -14.756760    3.185495   -1.225528
 H  -14.054953    4.986809    1.186302
 H  -13.373580    6.600675   -0.384840
 H  -14.561619    4.788305   -2.582638
 H  -14.288363    6.521085   -2.655844
 H  -12.585131    5.451150   -3.995418
 H  -11.807515    6.128033   -2.569618
 H  -11.810953    3.864235   -1.493370
 H  -12.646879    3.198783   -2.889439
 H  -10.302004    2.627162   -3.051401
 H  -10.691984    3.747543   -4.346087
 H   -8.485781    4.277576   -3.244678
 H   -9.614679    5.625399   -3.081815
 H   -9.324634    4.547912   -1.708568
