59 
3dzt_ligand_xtb.xyz
 O    5.778480   -1.139770   -0.768747
 C    5.805183   -0.253426    0.048159
 O    6.499536   -0.353164    1.185828
 C    5.128953    1.085071   -0.088464
 C    3.915397    1.041008   -1.018095
 C    2.650477    0.506453   -0.344750
 C    2.766833   -0.941592    0.162410
 O    3.029349   -1.851034   -0.877795
 C    1.487069   -1.393874    0.881337
 C    0.280110   -1.522974   -0.044172
 C   -0.938496   -2.058565    0.702150
 C   -2.174157   -2.116251   -0.191375
 C   -3.409620   -2.609780    0.571764
 C   -4.595627   -2.693614   -0.338673
 C   -5.463031   -1.724287   -0.589123
 C   -5.439918   -0.339943   -0.013031
 C   -4.788235    0.611604   -0.979652
 C   -4.098178    1.697990   -0.669387
 C   -3.820624    2.206407    0.713781
 C   -2.478179    1.701845    1.262955
 C   -1.274369    2.039419    0.384020
 C   -1.017494    3.537397    0.238853
 C    0.264354    3.810926   -0.539092
 H    6.955635   -1.208583    1.236124
 H    4.866270    1.451488    0.904588
 H    5.883620    1.760724   -0.501385
 H    3.709557    2.051377   -1.376161
 H    4.158757    0.423566   -1.884797
 H    1.838402    0.553823   -1.070026
 H    2.392895    1.144293    0.503596
 H    3.584447   -0.978280    0.905525
 H    3.952356   -1.751572   -1.153295
 H    1.269729   -0.689344    1.687490
 H    1.685742   -2.369411    1.329543
 H    0.542299   -2.193398   -0.862661
 H    0.030427   -0.550883   -0.469890
 H   -1.143600   -1.413503    1.561173
 H   -0.721298   -3.057736    1.087061
 H   -1.981178   -2.782478   -1.034899
 H   -2.383907   -1.123118   -0.595131
 H   -3.200660   -3.597242    0.989404
 H   -3.607445   -1.930180    1.403008
 H   -4.708401   -3.636923   -0.857675
 H   -6.257073   -1.904684   -1.303011
 H   -4.916609   -0.325607    0.941585
 H   -6.470827   -0.009942    0.159399
 H   -4.927852    0.355963   -2.022594
 H   -3.679735    2.291623   -1.472078
 H   -3.815248    3.297884    0.697641
 H   -4.613123    1.891939    1.395376
 H   -2.326596    2.124886    2.259716
 H   -2.532061    0.616355    1.365483
 H   -1.417870    1.600244   -0.605403
 H   -0.388695    1.575259    0.825652
 H   -1.853738    4.007971   -0.280575
 H   -0.943811    3.990067    1.230873
 H    1.124249    3.391582   -0.021047
 H    0.211620    3.361873   -1.528728
 H    0.422118    4.880833   -0.655860
