35 
3e12_ligand_xtb.xyz
 O   -2.059360   -0.179111    1.466372
 P   -2.659207    0.459581    0.124838
 O   -3.472354    1.710690    0.669843
 O   -3.423684   -0.476347   -0.703570
 O   -1.430014    1.116019   -0.616133
 C   -0.667965    2.118456    0.045347
 C    0.687206    2.245959   -0.659965
 O    1.488993    3.224289   -0.051502
 C    1.462139    0.911218   -0.744445
 O    2.715250    1.173691   -1.347376
 C    1.642755    0.256853    0.650643
 O    2.241477    1.162107    1.560813
 C    2.514429   -1.018778    0.610413
 O    3.831638   -0.684321    0.281995
 C    1.932909   -2.112667   -0.314247
 C    0.566096   -2.490080    0.172620
 O    0.328018   -2.963083    1.254066
 C   -0.586600   -2.118834   -0.788591
 O   -0.406231   -1.540695   -1.828594
 O   -1.758454   -2.460394   -0.296357
 H   -2.052126   -1.139343    1.446139
 H   -4.397088    1.493432    0.776855
 H   -1.194538    3.074865   -0.012241
 H   -0.533874    1.862281    1.100007
 H    0.514951    2.591644   -1.685887
 H    1.726337    2.891380    0.833016
 H    0.914051    0.229687   -1.398618
 H    2.950112    2.086990   -1.116402
 H    0.656247   -0.000269    1.049161
 H    3.199101    1.013170    1.507774
 H    2.555293   -1.423224    1.630289
 H    3.809150   -0.210402   -0.569389
 H    1.896103   -1.771328   -1.347787
 H    2.595350   -2.977056   -0.237262
 H   -2.498995   -2.031073   -0.795336
