85 
3e37_ligand_dft.xyz
 O   -4.750540    2.856180   -0.849187
 C   -4.125398    2.384470    0.083458
 O   -4.615878    1.524794    0.994347
 C   -5.947835    0.959577    0.852876
 C   -7.006643    2.053422    0.972730
 C   -6.052928    0.191267   -0.464179
 C   -6.022799   -0.001436    2.037077
 N   -2.810519    2.682206    0.352191
 C   -2.053002    3.300526   -0.728981
 C   -1.470825    2.223544   -1.649223
 C   -1.997975    1.798508    1.182183
 C   -1.431820    0.654644    0.341541
 C   -0.647485    1.191385   -0.861818
 C   -0.211729    0.066937   -1.804573
 N    0.513401   -1.009179   -1.129681
 S    0.110932   -2.572464   -1.507566
 O    1.167325   -3.417820   -0.959975
 O   -0.223185   -2.662936   -2.921290
 C   -1.407103   -2.818982   -0.591414
 C   -2.575094   -2.895928   -1.345947
 C   -3.806016   -3.012186   -0.710049
 C   -3.853027   -3.052927    0.678033
 C   -2.677230   -2.985380    1.420240
 C   -1.425248   -2.867212    0.813905
 C   -0.190297   -2.788163    1.674405
 C    1.801120   -0.726061   -0.519131
 C    2.956311   -0.585863   -1.527818
 N    4.127896    0.054920   -0.948067
 C    4.049710    1.390235   -0.582894
 C    4.941492    1.973970    0.341653
 C    4.863739    3.316542    0.667805
 C    3.069258    2.236661   -1.148520
 C    2.992425    3.576467   -0.816421
 C    3.888344    4.139859    0.097562
 C    3.801163    5.525940    0.447347
 N    3.727148    6.648616    0.729852
 C    5.034749   -0.854687   -0.250345
 C    4.474063   -1.420768    1.024231
 C    4.094313   -0.818874    2.200496
 N    3.469170   -1.708157    3.032167
 C    3.472731   -2.841646    2.369938
 N    4.063452   -2.735258    1.150136
 C    4.182872   -3.803697    0.175228
 H   -8.002690    1.598357    0.991585
 H   -6.866997    2.612431    1.903633
 H   -6.947162    2.745092    0.131500
 H   -5.237413   -0.536680   -0.538008
 H   -7.003378   -0.352067   -0.495676
 H   -6.005449    0.868531   -1.318011
 H   -6.987109   -0.519299    2.042200
 H   -5.222643   -0.745711    1.970458
 H   -5.913972    0.541571    2.980888
 H   -1.251039    3.898008   -0.278243
 H   -2.714825    3.969241   -1.278143
 H   -0.852917    2.689208   -2.427445
 H   -2.306878    1.723305   -2.156585
 H   -2.597554    1.424888    2.009665
 H   -1.182585    2.400577    1.602413
 H   -2.262822    0.023349   -0.003436
 H   -0.786650    0.022397    0.959686
 H    0.245141    1.709947   -0.479617
 H    0.389047    0.475550   -2.630380
 H   -1.102751   -0.368655   -2.266186
 H   -2.505793   -2.865950   -2.427575
 H   -4.716768   -3.071362   -1.297026
 H   -4.807082   -3.142413    1.188926
 H   -2.727844   -3.025110    2.504772
 H    0.551893   -3.531195    1.375298
 H    0.291394   -1.807741    1.599056
 H   -0.446462   -2.946184    2.724707
 H    2.028810   -1.516203    0.194478
 H    1.697800    0.198448    0.056499
 H    2.631046   -0.039290   -2.417325
 H    3.250626   -1.577583   -1.882113
 H    5.699199    1.378884    0.835105
 H    5.563407    3.731906    1.385708
 H    2.355314    1.851611   -1.865454
 H    2.227203    4.196903   -1.272135
 H    5.982862   -0.343988   -0.074823
 H    5.267497   -1.666488   -0.946580
 H    4.223608    0.217262    2.482666
 H    3.073238   -3.782741    2.724912
 H    3.515590   -3.635039   -0.673321
 H    5.217700   -3.900263   -0.162952
 H    3.887868   -4.738705    0.654226
