36 
3e3c_ligand_dft.xyz
 O   16.019801   44.107512    7.910835
 P   16.124985   44.144220    9.527599
 O   14.900341   44.611060   10.184422
 O   17.457592   44.973482    9.785636
 O   16.533903   42.636772    9.924433
 C   17.333081   41.784430    9.117714
 C   18.658657   42.403423    8.686714
 O   19.284283   42.953247    9.842682
 C   19.558637   41.359082    8.052735
 O   20.783095   42.037554    7.759309
 C   21.740145   41.290902    7.155591
 O   21.569494   40.134739    6.863317
 C   22.988488   42.103589    6.916489
 C   24.077647   41.314238    6.196004
 C   25.390049   42.092032    6.054625
 C   25.285682   43.426856    5.306029
 C   24.715948   43.300845    3.893152
 H   15.106931   44.292926    7.652775
 H   18.203179   44.385926   10.043144
 H   16.774770   41.483130    8.224509
 H   17.520436   40.904718    9.738172
 H   18.473591   43.200586    7.953261
 H   20.179774   43.206987    9.575735
 H   19.123764   40.953399    7.134495
 H   19.756250   40.533536    8.743882
 H   23.344860   42.468177    7.889154
 H   22.696181   42.998329    6.353755
 H   23.706421   41.008013    5.211793
 H   24.264617   40.385680    6.745330
 H   26.112874   41.450287    5.534604
 H   25.806916   42.277105    7.053899
 H   26.287335   43.869954    5.253041
 H   24.677324   44.134871    5.884237
 H   23.671771   42.968386    3.903299
 H   24.749557   44.260898    3.368586
 H   25.287624   42.575112    3.303042
