36 
3e3c_ligand_xtb.xyz
 O    3.135229   -0.232792   -1.517665
 P    3.758355    0.380934   -0.200880
 O    3.902807    1.835185   -0.130489
 O    5.091426   -0.463247   -0.112569
 O    2.925014   -0.239927    1.044015
 C    1.834326    0.521625    1.498244
 C    0.571204    0.204106    0.693293
 O    0.742168    0.750291   -0.591638
 C    0.335170   -1.317019    0.640437
 O   -1.047635   -1.677560    0.656295
 C   -1.809157   -1.345219   -0.385059
 O   -1.415028   -0.698539   -1.327655
 C   -3.211695   -1.872210   -0.235960
 C   -4.232755   -0.744245   -0.414956
 C   -4.121418    0.296542    0.697627
 C   -5.228688    1.349417    0.643144
 C   -5.151808    2.235515   -0.594626
 H    2.286924    0.206993   -1.657308
 H    5.778226    0.080591    0.269713
 H    2.061894    1.586319    1.382377
 H    1.686232    0.277940    2.552917
 H   -0.287456    0.677482    1.197734
 H   -0.009079    0.440261   -1.139440
 H    0.812740   -1.723698   -0.257026
 H    0.755875   -1.798339    1.522943
 H   -3.310215   -2.344111    0.741474
 H   -3.363889   -2.624977   -1.012690
 H   -4.059696   -0.273737   -1.382971
 H   -5.236595   -1.172734   -0.413429
 H   -3.150930    0.794681    0.631013
 H   -4.167677   -0.212211    1.664230
 H   -5.151748    1.978110    1.533168
 H   -6.200275    0.851077    0.674607
 H   -4.169527    2.696098   -0.672350
 H   -5.336118    1.662339   -1.499186
 H   -5.896946    3.025545   -0.537795
