51 
3e3u_ligand_xtb.xyz
 O    0.451876   -0.733969   -1.735737
 C    0.880649   -1.147609   -0.672656
 C    2.166427   -0.617619   -0.054524
 C    1.821768    0.541813    0.899177
 C    1.034415    1.680233    0.251611
 C    0.520292    2.663701    1.299985
 C   -0.276936    3.794992    0.663276
 C    3.111190   -0.183993   -1.187161
 N    4.372522    0.269528   -0.684785
 O    5.191593   -0.743402   -0.163798
 C    4.813776    1.515458   -0.506427
 O    5.875327    1.761395    0.035676
 N    0.214734   -2.092620    0.020030
 C   -1.119016   -2.465076   -0.433598
 C   -1.518449   -3.611003    0.500273
 C   -0.800548   -3.238981    1.793790
 C    0.539660   -2.699708    1.296425
 C   -2.016400   -1.278050   -0.293544
 O   -2.965697   -1.052854   -1.228380
 C   -3.568951    0.097102   -0.827030
 C   -2.939894    0.509127    0.365037
 N   -1.959705   -0.411881    0.660318
 C   -4.605534    0.809364   -1.399037
 C   -4.995231    1.961461   -0.740883
 C   -4.377758    2.380616    0.437769
 C   -3.345310    1.667441    1.012925
 H    2.665793   -1.408144    0.511770
 H    1.222225    0.147446    1.722227
 H    2.748798    0.934073    1.326277
 H    0.184136    1.271595   -0.295179
 H    1.660911    2.218504   -0.461738
 H   -0.115512    2.126854    2.007071
 H    1.364609    3.078562    1.856380
 H   -1.127926    3.395457    0.115332
 H   -0.646976    4.479471    1.423278
 H    0.344039    4.357659   -0.030498
 H    2.655320    0.613171   -1.773280
 H    3.295450   -1.037912   -1.845436
 H    5.956507   -0.238851    0.187208
 H    4.136621    2.274716   -0.918205
 H   -1.101724   -2.752275   -1.489735
 H   -1.137897   -4.553449    0.105651
 H   -2.597175   -3.686315    0.618982
 H   -1.347542   -2.441428    2.296030
 H   -0.684184   -4.081228    2.472113
 H    0.964748   -1.978487    1.993185
 H    1.258883   -3.514809    1.144804
 H   -5.077123    0.482129   -2.311254
 H   -5.798645    2.554133   -1.151237
 H   -4.719088    3.289812    0.909647
 H   -2.866796    1.989150    1.923137
