44 
3e64_ligand_xtb.xyz
 O   -4.118397    0.222301   -1.790522
 C    0.147800   -0.535597   -1.469961
 O   -3.629788    2.407441   -0.760503
 C   -1.195904   -0.226113   -1.575190
 C   -4.783752   -0.925911    2.568477
 N   -4.098965    0.540620    0.783148
 C   -1.795194    0.539660   -0.595223
 C   -3.679931   -1.824775    0.505234
 C   -6.025645   -0.942571    0.380749
 C   -4.656493   -0.783024    1.048216
 S   -3.521508    0.976680   -0.720563
 C   -1.072314    1.007753    0.484879
 C    0.270083    0.697132    0.589574
 C    0.898974   -0.078169   -0.386845
 C    2.330231   -0.395776   -0.281248
 C    3.228790    0.569570    0.141302
 C    4.576957    0.239211    0.212976
 C    5.782653    0.925783    0.576425
 N    5.879620    2.201666    1.068043
 N    6.821281    0.129153    0.459354
 N    6.355718   -1.073133    0.034490
 C    5.014706   -1.063929   -0.131898
 C    4.111784   -2.040197   -0.548250
 C    2.786950   -1.686332   -0.619952
 H    0.627120   -1.116775   -2.243439
 H   -1.792267   -0.565211   -2.407718
 H   -5.162337   -1.912821    2.819963
 H   -3.813577   -0.789766    3.038915
 H   -5.468848   -0.180508    2.965817
 H   -4.666224    1.291075    1.147733
 H   -4.023583   -2.823153    0.763864
 H   -3.618355   -1.743287   -0.575571
 H   -2.689916   -1.671855    0.928875
 H   -5.925640   -0.787270   -0.690062
 H   -6.422109   -1.938567    0.561072
 H   -6.728337   -0.211140    0.775953
 H   -1.573928    1.605928    1.228633
 H    0.837446    1.041182    1.441603
 H    2.891479    1.565496    0.386513
 H    5.189901    2.851229    0.725066
 H    6.821093    2.561931    1.086214
 H    4.443785   -3.035059   -0.802397
 H    2.059548   -2.424615   -0.922787
 H    7.002617   -1.830053   -0.101878
