44 
3e73_ligand_xtb.xyz
 N   -5.303464    0.717929    0.496250
 C   -4.009780    0.414232   -0.180379
 C   -3.837084   -1.123344   -0.309676
 O   -2.752753   -1.638138   -0.309943
 O   -4.993659   -1.720013   -0.420182
 C   -2.802619    1.032401    0.541385
 C   -1.546494    1.061024   -0.361697
 C   -0.293471    0.589571    0.383286
 O   -0.378889   -0.717820    0.842175
 N    0.888961    0.649820   -0.560874
 C    2.250625    0.941622   -0.023788
 C    2.584166    0.305995    1.349947
 O    1.856431    0.901501    2.348934
 C    2.413464    2.475607    0.060923
 S    1.638368    3.293201   -1.394965
 N    2.252933   -1.189725    1.394431
 C    3.115433   -2.142334    0.656863
 C    2.598143   -2.431312   -0.759358
 O    1.659232   -1.820710   -1.225322
 O    3.278105   -3.366102   -1.324937
 H   -5.585859    1.700687    0.365140
 H   -6.044433    0.112164    0.099429
 H   -5.260610    0.531930    1.509660
 H   -4.071841    0.808653   -1.203144
 H   -4.948303   -2.685397   -0.558019
 H   -2.589191    0.453347    1.442569
 H   -3.045617    2.049546    0.847768
 H   -1.383460    2.074208   -0.728325
 H   -1.692862    0.407426   -1.223466
 H   -0.072626    1.236633    1.239691
 H   -1.061995   -1.224748    0.352213
 H    0.779322    1.460068   -1.257960
 H    0.934405   -0.270696   -1.057173
 H    2.956926    0.549823   -0.763524
 H    3.669942    0.398726    1.493807
 H    2.345924    1.037593    3.172987
 H    3.459855    2.762220    0.125648
 H    1.889310    2.870036    0.930727
 H    2.648615    3.155719   -2.250589
 H    2.264085   -1.442163    2.391940
 H    1.234222   -1.275831    1.103299
 H    3.159063   -3.100547    1.183509
 H    4.143943   -1.775341    0.591002
 H    3.006246   -3.621974   -2.227232
