37 
3e73_ligand_dft.xyz
 N   30.359932   54.182055   22.105058
 C   31.211477   55.136796   21.399651
 C   32.421911   54.363884   20.890229
 O   33.588499   54.609727   21.109080
 O   32.052404   53.328996   20.123006
 C   31.638062   56.261149   22.339594
 C   32.364224   57.418823   21.617781
 C   33.528207   57.951403   22.439032
 O   33.512516   59.027637   23.007235
 N   34.605828   57.097121   22.471809
 C   35.678838   57.274687   23.425372
 C   37.062392   57.376870   22.763852
 O   38.089116   57.249446   23.410607
 C   35.716568   56.173892   24.487806
 S   34.195008   56.228740   25.503448
 N   37.044374   57.628685   21.427629
 C   38.247871   57.979535   20.727679
 C   38.519887   59.469850   20.593565
 O   39.420916   59.920486   19.930245
 O   37.659087   60.227120   21.289512
 H   29.546018   54.664797   22.473676
 H   30.025227   53.468763   21.464437
 H   30.733246   55.575730   20.503243
 H   32.863871   52.866531   19.857274
 H   30.745069   56.652816   22.837500
 H   32.262579   55.830087   23.128470
 H   32.751503   57.079066   20.650160
 H   31.686232   58.253233   21.430064
 H   34.453081   56.164405   22.095508
 H   35.501657   58.245935   23.903536
 H   35.798864   55.195940   24.002310
 H   36.597394   56.329475   25.110871
 H   34.475261   55.137628   26.234269
 H   36.145625   57.832766   21.015786
 H   39.090438   57.548645   21.276210
 H   38.255335   57.553805   19.720245
 H   37.934485   61.148480   21.157252
