60 
3e8r_ligand_xtb.xyz
 C    0.413507   -1.039938   -0.059458
 C   -8.212116    2.898696    0.001645
 C   -3.853761   -4.133251   -0.052613
 C    4.938992    0.966526   -0.527469
 C    1.103243   -0.701790   -1.218330
 N    8.061861    1.041058   -0.661324
 O    8.449501    1.195573    1.537572
 O    5.466314    1.278780   -1.578074
 C    7.799902    0.719707    0.618559
 C   -7.430703    1.766186   -0.117345
 C   -7.633930    4.109033    0.349911
 N   -5.863612   -0.531985    0.190903
 C    4.686232   -1.507731   -0.263677
 O   -0.928230   -0.917380    0.118757
 C    3.188746   -1.380413   -0.202193
 C    2.490218   -1.715516    0.953613
 C    1.124053   -1.551471    1.027894
 C    2.475886   -0.874565   -1.278679
 C   -1.719244   -0.448457   -0.956783
 C   -3.163728   -0.493587   -0.533618
 C   -5.252314    0.605601   -0.035980
 C   -3.889005    0.660883   -0.414585
 C   -5.178573   -1.683325    0.095727
 C   -3.799849   -1.731791   -0.257157
 C   -3.160486   -2.984975   -0.321322
 C   -5.213938   -4.085236    0.289123
 C   -5.865598   -2.886833    0.362637
 C   -6.055181    1.828415    0.101256
 C    6.760569   -0.351479    0.800193
 C    5.356040   -0.243528    0.272440
 C    5.614293   -0.111211    1.744676
 O    9.000314    2.059999   -0.863394
 N    3.910269    1.654710    0.000157
 C   -5.484466    3.047020    0.461404
 C   -6.271069    4.177380    0.585728
 H   -9.276033    2.840528   -0.176002
 H   -3.353790   -5.089550   -0.101737
 H    0.587802   -0.306094   -2.079341
 H    7.364512    1.001477   -1.401619
 H   -7.865717    0.815499   -0.383152
 H   -8.243933    4.995432    0.443467
 H    5.015949   -2.361697    0.330350
 H    5.004673   -1.659299   -1.297690
 H    3.021383   -2.118201    1.803373
 H    0.575839   -1.815822    1.918215
 H    2.999098   -0.607004   -2.185320
 H   -1.439099    0.582984   -1.212919
 H   -1.572932   -1.081655   -1.844868
 H   -3.434795    1.614620   -0.637024
 H   -2.111915   -3.035891   -0.570318
 H   -5.740028   -5.005665    0.496090
 H   -6.909079   -2.821294    0.627786
 H    7.207080   -1.340291    0.804441
 H    5.550910    0.868896    2.194724
 H    5.312084   -0.911633    2.402996
 H    9.331305    2.241378    0.041659
 H    3.530129    2.433335   -0.513549
 H    3.423756    1.324705    0.815062
 H   -4.427248    3.110667    0.673236
 H   -5.819091    5.116216    0.871524
