52 
3eb1_ligand_xtb.xyz
 C   -1.632548   -2.821627    0.751424
 C   -3.441963   -1.100663    0.305554
 C   -5.305096    0.564435    0.244246
 C   -5.992508    1.555122   -0.635131
 C    1.989468    1.656213   -0.237042
 C    3.544083   -0.826619   -0.943962
 N    1.123188   -0.368377   -1.327376
 O   -7.271175    1.743545   -0.288935
 C   -0.447910   -3.306262    0.287718
 C    1.646872    1.502403    1.100672
 C    4.785917   -0.473178   -1.455576
 O   -4.317342   -1.952421    0.793267
 O   -5.970641   -0.046962    1.114158
 O   -5.441918    2.143748   -1.536487
 C    0.477016   -2.509666   -0.380374
 C    2.484887    1.964511    2.098449
 C    5.886734   -0.361394   -0.626125
 C    0.228591   -1.134946   -0.612489
 C    3.677055    2.587506    1.771606
 C    5.758738   -0.599146    0.731018
 C   -0.958992   -0.610743   -0.133074
 C    4.021702    2.754059    0.442258
 C    4.527153   -0.959579    1.248441
 C   -1.967793   -1.405740    0.574505
 C    3.181489    2.292182   -0.554630
 C    3.428372   -1.076976    0.417150
 C   -3.860654    0.298480   -0.016904
 C    1.106734    1.083096   -1.320907
 C    2.348558   -0.915545   -1.867481
 H   -2.348430   -3.450563    1.253236
 H   -2.083252   -0.970690    1.595672
 H   -7.472365    1.136146    0.450758
 H   -0.208154   -4.348399    0.442116
 H    0.723988    1.004196    1.360183
 H    4.890759   -0.278369   -2.514026
 H   -5.152753   -1.465952    1.072381
 H    1.395292   -2.970619   -0.697976
 H    2.208433    1.836178    3.134873
 H    6.844491   -0.080739   -1.039208
 H    4.334524    2.942588    2.550989
 H    6.614715   -0.503380    1.382337
 H   -1.197708    0.429522   -0.270589
 H    4.949752    3.239968    0.180054
 H    4.418942   -1.148880    2.306324
 H    3.458755    2.421788   -1.591252
 H    2.471903   -1.351118    0.835714
 H   -3.662095    0.540347   -1.066938
 H   -3.265557    1.001059    0.571619
 H    1.464113    1.424937   -2.298012
 H    0.086199    1.446953   -1.207109
 H    2.182246   -1.953857   -2.166256
 H    2.577076   -0.361298   -2.785364
