48 
3ebl_ligand_xtb.xyz
 C   -1.508670   -1.314242   -1.785055
 C   -2.926240   -1.483549   -1.219804
 C   -3.384605   -0.296360   -0.348560
 O   -3.726170    0.832811   -1.121995
 C   -2.277168    0.142662    0.648801
 C   -1.096208    0.582196   -0.211558
 C    0.112670    1.281108    0.435787
 C    0.345301    2.626215   -0.207591
 O    0.827999    3.519071    0.664052
 O    0.156153    2.889186   -1.364974
 C    1.335167    0.357090    0.169914
 C    0.873774   -0.556758   -0.984405
 C   -0.599855   -0.796341   -0.672300
 C    1.782403   -1.762079   -1.246743
 C    2.482887   -2.310556   -0.004141
 C    2.975348   -1.166357    0.890803
 C    1.740694   -0.440889    1.412344
 C    2.676328    1.007516   -0.193130
 C    3.671284   -0.093412    0.086212
 C    4.932103   -0.113703   -0.303659
 C   -2.823857    1.123146    1.670702
 C   -1.740005   -1.150346    1.263597
 O   -2.103626   -1.682031    2.272835
 O   -0.781323   -1.646003    0.475365
 H   -1.503848   -0.595076   -2.604144
 H   -1.151820   -2.273933   -2.161648
 H   -3.634108   -1.615386   -2.042017
 H   -2.964859   -2.387216   -0.608119
 H   -4.259794   -0.621093    0.237989
 H   -4.425333    0.589547   -1.737374
 H   -1.441590    1.184654   -1.052948
 H   -0.002428    1.433903    1.509673
 H    0.992530    4.369408    0.225733
 H    0.859632    0.055246   -1.894734
 H    2.550359   -1.446795   -1.956294
 H    1.202465   -2.554904   -1.721670
 H    1.794859   -2.929362    0.573641
 H    3.320742   -2.934880   -0.319492
 H    3.610973   -1.563752    1.684695
 H    0.977766   -1.124656    1.771019
 H    2.001295    0.250246    2.217155
 H    2.719810    1.358488   -1.224353
 H    2.879590    1.856784    0.465140
 H    5.360854    0.684699   -0.885805
 H    5.588233   -0.929942   -0.053657
 H   -3.293611    1.957893    1.157458
 H   -2.034177    1.498600    2.315574
 H   -3.559904    0.621227    2.294633
