51 
3ehn_ligand_xtb.xyz
 C    3.319097    1.311156   -0.464017
 O    4.628230    1.447304   -0.097288
 C    2.754069   -0.107578   -0.239177
 N    3.575485   -1.135548   -0.834743
 C    4.630291   -1.648431   -0.155848
 C    5.247433   -2.865259   -0.796492
 O    5.038128   -1.138977    0.870454
 C    1.324095   -0.170419   -0.774424
 O    0.820991   -1.462616   -0.561935
 C    0.486528    0.915566   -0.076795
 O   -0.786240    1.035370   -0.709582
 C    1.189324    2.285334   -0.155227
 C    0.484235    3.303950    0.753827
 O    0.493628    2.884944    2.088697
 O    2.519128    2.207765    0.295833
 C   -3.145482    0.896758   -0.751398
 O   -3.318781    2.280170   -0.919074
 C   -4.346594    0.350166    0.028731
 O   -5.537153    0.518828   -0.698010
 C   -4.159216   -1.157970    0.271258
 C   -2.797311   -1.415401    0.929449
 C   -2.469992   -2.913541    1.007171
 C   -1.866599    0.570281    0.029053
 O   -1.279764   -3.156118    1.699994
 O   -1.744787   -0.821211    0.186889
 O   -4.232525   -1.855471   -0.942119
 H    3.242757    1.591783   -1.530711
 H    4.842330    0.821223    0.619468
 H    2.742776   -0.277137    0.848400
 H    3.188235   -1.637507   -1.617152
 H    6.116865   -3.171580   -0.222714
 H    4.524837   -3.678209   -0.817103
 H    5.548694   -2.637292   -1.816097
 H    1.329514    0.054851   -1.856435
 H   -0.149618   -1.411141   -0.574325
 H    0.356631    0.643783    0.977671
 H    1.155654    2.630245   -1.201395
 H   -0.562289    3.403548    0.459403
 H    0.986180    4.273340    0.641935
 H    1.417394    2.749799    2.337544
 H   -3.082818    0.386703   -1.724879
 H   -2.511159    2.634302   -1.309050
 H   -4.405959    0.879825    0.992112
 H   -5.568979    1.438594   -0.988730
 H   -4.951786   -1.502069    0.954638
 H   -2.806144   -0.981086    1.941753
 H   -3.261225   -3.423739    1.558764
 H   -2.433427   -3.305773   -0.015548
 H   -1.901936    1.054952    1.026500
 H   -0.551224   -2.733193    1.226998
 H   -4.999799   -1.502965   -1.415379
