66 
3eid_ligand_dft.xyz
 N  -14.416871  205.186479  114.279442
 C  -12.128216  205.990565  115.416657
 C  -12.271445  206.182110  114.080007
 C  -13.480769  205.773647  113.466452
 C  -14.036637  205.761870  112.178741
 C  -15.285013  205.146402  112.362474
 C  -13.424195  206.289261  110.967290
 C  -13.985235  206.132933  109.694748
 C   -9.810989  208.202382  111.440854
 C   -8.521502  208.301430  113.924184
 C   -7.882729  207.721676  112.829128
 C   -8.540578  207.663059  111.599694
 C   -6.795152  207.690452  115.445490
 N  -14.329044  205.009161  115.605532
 C  -13.202625  205.392895  116.163543
 N  -15.520009  204.800024  113.628000
 N  -12.266874  206.942320  111.130961
 C  -11.676733  207.428445  110.037864
 N  -12.120565  207.331178  108.774114
 C  -13.274747  206.680419  108.636618
 N  -10.493020  208.100943  110.204331
 C  -10.416949  208.838701  112.529795
 C   -9.787244  208.876135  113.760236
 O   -8.013185  208.353601  115.180803
 C   -6.544075  207.696083  116.943741
 O   -6.303104  209.007819  117.378738
 C   -7.726197  207.097623  117.717278
 N   -7.588793  207.369186  119.142898
 C   -8.854854  207.227385  119.840170
 C   -6.556290  206.555794  119.768599
 N  -13.066581  205.141013  117.523295
 C  -14.209297  204.517915  118.188997
 C  -13.784366  203.999026  119.554002
 O  -13.223265  205.020895  120.351968
 C  -12.089725  205.563452  119.721437
 C  -12.430500  206.157573  118.360181
 H  -11.199455  206.260848  115.903020
 H  -11.497694  206.622030  113.464473
 H  -16.044983  204.942508  111.620115
 H  -14.916410  205.603590  109.534766
 H   -6.890776  207.294360  112.918275
 H   -8.060260  207.168254  110.760164
 H   -6.841349  206.649366  115.092241
 H   -5.965321  208.197947  114.936938
 H  -13.648074  206.590664  107.618154
 H   -9.999858  208.302449  109.347640
 H  -11.403295  209.272050  112.408229
 H  -10.259349  209.346395  114.616633
 H   -5.648304  207.067716  117.097837
 H   -6.636734  209.030285  118.292471
 H   -8.636084  207.593969  117.367219
 H   -7.820361  206.016862  117.500055
 H   -8.733568  207.510540  120.890393
 H   -9.601021  207.891675  119.392457
 H   -9.241365  206.191846  119.807709
 H   -5.586747  206.745716  119.300414
 H   -6.472861  206.822851  120.826100
 H   -6.772557  205.474020  119.698509
 H  -15.035571  205.237429  118.297919
 H  -14.572085  203.694566  117.571875
 H  -14.652793  203.618404  120.096666
 H  -13.058594  203.179256  119.428016
 H  -11.702192  206.343482  120.382185
 H  -11.314990  204.788351  119.594462
 H  -11.507748  206.514362  117.897348
 H  -13.101228  207.021359  118.496453
