55 
3eig_ligand_dft.xyz
 N   17.114155   64.656481   46.399001
 C   16.498054   65.135035   47.470711
 N   15.359527   64.509004   47.858972
 N   16.845438   66.203781   48.244138
 C   17.928756   66.856979   47.883031
 N   18.346128   67.917749   48.594605
 C   18.696425   66.452759   46.728863
 N   19.795864   67.140805   46.375242
 C   20.441839   66.710240   45.310234
 C   19.967009   65.583925   44.591500
 N   18.896959   64.899280   44.922801
 C   18.221534   65.326935   46.023908
 C   21.703708   67.445724   44.899718
 N   21.927640   67.497199   43.472266
 C   22.967042   66.683532   42.877413
 C   19.508252   69.922432   41.014879
 C   20.558954   69.175880   40.480172
 C   21.352144   68.372204   41.279903
 C   21.133258   68.296356   42.670415
 C   20.084394   69.068190   43.210793
 C   19.294447   69.860129   42.393490
 C   18.700164   70.756964   40.080842
 O   19.126252   71.110726   38.986527
 N   17.439127   71.081551   40.492363
 C   16.649678   72.065581   39.793348
 C   15.931241   72.905883   40.831673
 O   15.858684   72.636385   42.008807
 O   15.341824   73.981935   40.292497
 C   15.619548   71.447585   38.823432
 C   16.242024   70.529904   37.773580
 C   17.141991   71.170465   36.740286
 O   17.777521   70.555224   35.921438
 O   17.127116   72.519366   36.777602
 H   14.969956   64.734942   48.758513
 H   15.135088   63.628860   47.425060
 H   19.157726   68.427406   48.283282
 H   17.798548   68.238814   49.375616
 H   20.501880   65.255305   43.702002
 H   21.665636   68.453105   45.332620
 H   22.568495   66.953653   45.356538
 H   23.733548   67.296271   42.384609
 H   23.454477   66.097808   43.658395
 H   22.561417   65.982075   42.135792
 H   20.744374   69.236572   39.412610
 H   22.150313   67.805631   40.815902
 H   19.871993   69.051648   44.272724
 H   18.519703   70.459779   42.865093
 H   17.113842   70.820926   41.411428
 H   17.325004   72.705703   39.218161
 H   14.884008   74.439937   41.015754
 H   14.901273   70.859739   39.408331
 H   15.066741   72.258017   38.340011
 H   16.829082   69.736295   38.243889
 H   15.445127   70.026081   37.213872
 H   17.758067   72.808246   36.099346
