36 
3ej5_ligand_dft.xyz
 C   -1.882946    9.599951    4.961366
 C   -2.171726   10.642806    5.825997
 C   -1.415722   10.813910    6.988413
 C   -1.761710   11.940163    7.888078
 O   -0.970590   12.013725    8.979636
 O   -2.655994   12.735131    7.696883
 C   -0.375699    9.926744    7.265828
 C   -0.087738    8.884365    6.390909
 C   -0.836199    8.706763    5.223495
 C   -0.541845    7.614081    4.212458
 C    0.342830    6.461088    4.687850
 C   -0.301958    5.606368    5.789667
 C    0.659090    4.612033    6.375719
 C    0.660543    3.272700    6.082032
 O   -0.251012    2.777012    5.229928
 N    1.513786    2.338090    6.589696
 C    2.433995    2.773684    7.406641
 N    3.362052    1.902836    7.907289
 N    2.541841    4.079547    7.751929
 C    1.679575    5.093317    7.262720
 O    1.879485    6.246842    7.621788
 H   -2.477935    9.471179    4.060062
 H   -2.982284   11.334243    5.620191
 H   -1.290895   12.778697    9.482160
 H    0.712787    8.196270    6.647627
 H   -1.496770    7.211317    3.848351
 H   -0.067136    8.083530    3.339830
 H    0.569132    5.816180    3.830477
 H    1.303247    6.849312    5.044357
 H   -0.660531    6.257242    6.594544
 H    3.135430    0.931810    7.748865
 H    3.770128    2.102355    8.808220
 H    0.209862   10.046771    8.170680
 H   -1.174681    5.084873    5.384665
 H   -0.083394    1.824976    5.174977
 H    3.300981    4.413091    8.331673
