42 
3ejp_ligand_dft.xyz
 O   26.751662   64.793311    8.686689
 C   27.072695   65.915890    9.030713
 C   26.055976   66.844805    9.626147
 C   24.737640   66.391245    9.735338
 C   23.755515   67.208460   10.278056
 C   24.081653   68.489483   10.720014
 C   25.391591   68.949264   10.617248
 C   26.375278   68.130892   10.071792
 C   28.502153   66.407309    8.875753
 C   29.443072   65.371910    8.228642
 C   29.220921   65.221084    6.711749
 C   29.829418   66.373624    5.895449
 C   31.289703   66.610862    6.272546
 O   31.889721   67.684835    5.548358
 C   31.369945   66.836002    7.778533
 C   32.791117   67.019332    8.372942
 O   33.838763   66.951204    7.431134
 N   30.847219   65.656527    8.431631
 C   31.490869   65.508740    9.716245
 C   32.944269   65.851450    9.383333
 O   33.563118   64.750189    8.775404
 H   24.506568   65.390126    9.386747
 H   22.734304   66.848604   10.358247
 H   23.314273   69.129493   11.145414
 H   25.648049   69.946085   10.962705
 H   27.392588   68.502883   10.000158
 H   28.485893   67.345591    8.306224
 H   28.877093   66.673408    9.874040
 H   29.232560   64.404276    8.694961
 H   29.697875   64.285030    6.402282
 H   28.152498   65.125855    6.498510
 H   29.750767   66.163031    4.823873
 H   29.269725   67.305152    6.076721
 H   31.889455   65.730136    6.028121
 H   31.366925   68.481022    5.711328
 H   30.780119   67.750209    8.011335
 H   32.837136   67.973652    8.914568
 H   33.523467   67.380243    6.617486
 H   31.107398   66.199120   10.495023
 H   31.398105   64.483886   10.087204
 H   33.504199   66.166048   10.275314
 H   34.057700   65.114731    8.024024
