45 
3ejq_ligand_dft.xyz
 O   26.673007   64.628778    8.775120
 C   27.006736   65.733176    9.164915
 C   26.004205   66.649063    9.795823
 C   24.679956   66.209599    9.899535
 C   23.713136   67.016428   10.477118
 C   24.035312   68.286604   10.969216
 C   22.971289   69.163828   11.576710
 C   25.357946   68.719867   10.866765
 C   26.332179   67.914597   10.287022
 C   28.443145   66.212333    9.030965
 C   29.372825   65.188584    8.350417
 C   29.157622   65.097970    6.827847
 C   29.787019   66.271552    6.058804
 C   31.248248   66.473463    6.452394
 O   31.867668   67.565418    5.772558
 C   31.323020   66.640133    7.966272
 C   32.743141   66.780808    8.574641
 O   33.795411   66.729751    7.636817
 N   30.780199   65.444253    8.571239
 C   31.412118   65.241911    9.854213
 C   32.872684   65.575865    9.544134
 O   33.481808   64.488458    8.902305
 H   24.432405   65.223713    9.519894
 H   22.688939   66.659318   10.551992
 H   23.407450   70.005968   12.121407
 H   22.314758   69.572619   10.799664
 H   22.341370   68.598281   12.270975
 H   25.630852   69.700709   11.247370
 H   27.351496   68.283687   10.227547
 H   28.439941   67.170043    8.494476
 H   28.818291   66.438896   10.038819
 H   29.145440   64.207272    8.778647
 H   29.623105   64.167489    6.485730
 H   28.089170   65.026153    6.605927
 H   29.711707   66.102650    4.979613
 H   29.239509   67.203498    6.272234
 H   31.837012   65.594200    6.177832
 H   31.355296   68.362234    5.963206
 H   30.744613   67.552981    8.230880
 H   32.800262   67.714784    9.149645
 H   33.492504   67.194061    6.838014
 H   31.032417   65.909658   10.654327
 H   31.302328   64.205994   10.187896
 H   33.429916   65.851114   10.450697
 H   33.983543   64.872239    8.165379
