46 
3ejq_ligand_xtb.xyz
 O   -1.064127    1.382540    1.351457
 C   -1.426146    0.382421    0.760829
 C   -2.790429    0.185268    0.279001
 C   -3.754322    1.130829    0.652709
 C   -5.066291    0.994671    0.258862
 C   -5.464200   -0.083141   -0.529603
 C   -6.881358   -0.225161   -0.970044
 C   -4.501716   -1.015598   -0.915193
 C   -3.187395   -0.892962   -0.519676
 C   -0.415339   -0.748432    0.512598
 C    0.876004   -0.509167    1.296110
 C    1.572566   -1.798611    1.733763
 C    2.109927   -2.582272    0.539082
 C    3.135624   -1.752341   -0.247430
 O    3.465852   -2.342080   -1.477887
 C    2.525594   -0.395175   -0.613361
 C    3.542394    0.690731   -0.981200
 O    4.476959    0.723337    0.064552
 N    1.882725    0.281801    0.539310
 C    1.508449    1.609799    0.000958
 C    2.676132    1.984756   -0.954432
 O    3.475975    3.021366   -0.465409
 H   -3.444605    1.961551    1.268543
 H   -5.797077    1.727466    0.565775
 H   -7.024128    0.296993   -1.916914
 H   -7.141777   -1.269408   -1.122801
 H   -7.561334    0.212384   -0.243702
 H   -4.795186   -1.851874   -1.532286
 H   -2.475566   -1.636448   -0.843724
 H   -0.864955   -1.681612    0.852237
 H   -0.236231   -0.838985   -0.558682
 H    0.611212    0.091312    2.176308
 H    0.869069   -2.412823    2.294860
 H    2.398889   -1.555149    2.406385
 H    2.584399   -3.499956    0.887891
 H    1.299711   -2.865168   -0.134667
 H    4.033977   -1.583941    0.364339
 H    3.977528   -3.145567   -1.333381
 H    1.810095   -0.542319   -1.424877
 H    4.024194    0.518024   -1.947951
 H    4.944007    1.570076    0.026633
 H    2.684753    0.444428    1.170206
 H    0.565959    1.530914   -0.537519
 H    1.388203    2.330975    0.809574
 H    2.296740    2.211901   -1.956146
 H    3.078826    3.879614   -0.644800
