100 
3ekq_ligand_xtb.xyz
 C    4.218569   -0.686511    0.402034
 O    3.531979   -1.695171    0.527592
 N    6.240355    0.459601   -0.116507
 C    5.643312   -0.708298   -0.023571
 C    6.274776   -1.935172   -0.300790
 C    7.587780   -1.919497   -0.686348
 C    9.613050   -0.574677   -1.180880
 C   10.207819    0.653077   -1.265618
 C    9.483359    1.821270   -0.970217
 C    8.172549    1.751653   -0.592350
 C    8.262557   -0.686664   -0.794396
 C    7.529572    0.498634   -0.493917
 N    3.751337    0.553183    0.631808
 C    2.421074    0.806191    1.132376
 C    1.386915    0.669316   -0.002230
 O    0.847822    1.638326   -0.524876
 C    2.308229    2.175531    1.787345
 C    0.959220    2.300920    2.477174
 O    0.065727    1.485519    2.353585
 N    0.823609    3.411076    3.224241
 C   -1.105747   -0.472887   -1.362450
 O   -1.107966    0.733065   -2.080679
 C    0.292770   -1.126210   -1.349954
 N    1.151116   -0.606486   -0.300740
 C    0.248077   -2.659158   -1.215909
 C   -0.330987   -3.123885    0.092267
 C    0.470988   -3.261413    1.219456
 C   -1.685886   -3.420715    0.195132
 C   -0.077461   -3.650378    2.429680
 C   -2.233061   -3.811902    1.405174
 C   -1.431749   -3.917754    2.529091
 N   -2.721951    0.846941   -0.092141
 C   -1.698224   -0.219130    0.049292
 C   -4.073212    0.437586    0.337506
 C   -4.524159   -0.761141   -0.530908
 O   -4.109500   -0.854540   -1.667783
 C   -5.080084    1.559744    0.062693
 C   -4.658523    2.886172    0.695931
 C   -5.641233    4.014731    0.366808
 C   -5.570917    4.448385   -1.095127
 C   -4.146118    4.839665   -1.472954
 C   -3.188401    3.676737   -1.225556
 C   -3.240094    3.257791    0.246392
 C   -2.288919    2.105236    0.552396
 N   -5.403319   -1.571392    0.062842
 C   -6.189405   -2.622166   -0.612363
 C   -7.031512   -3.300905    0.464250
 C   -7.084444   -1.964265   -1.664337
 C   -5.253619   -3.634352   -1.270552
 H    5.708555   -2.847142   -0.199364
 H    8.116389   -2.835263   -0.909181
 H   10.164883   -1.475357   -1.406750
 H   11.242631    0.735831   -1.561171
 H    9.976082    2.778817   -1.045274
 H    7.602210    2.638005   -0.362106
 H    4.397627    1.310294    0.446940
 H    2.186767    0.027481    1.871872
 H    3.111633    2.318054    2.510713
 H    2.371605    2.953160    1.021929
 H   -0.028521    3.561561    3.738880
 H    1.573208    4.068724    3.344989
 H   -1.787966   -1.127579   -1.915477
 H   -0.362028    1.276436   -1.731373
 H    0.731989   -0.887831   -2.331626
 H    1.792726   -1.286461    0.115876
 H   -0.336278   -3.058231   -2.045669
 H    1.270610   -3.029000   -1.311109
 H    1.535173   -3.090821    1.153069
 H   -2.311308   -3.355283   -0.683781
 H    0.557333   -3.754653    3.296306
 H   -3.286581   -4.043615    1.472377
 H   -1.857790   -4.224826    3.472131
 H   -2.735118    1.023392   -1.122905
 H   -2.147272   -1.132814    0.436097
 H   -0.936254    0.115722    0.754351
 H   -4.030087    0.190248    1.402790
 H   -6.054801    1.261984    0.453430
 H   -5.183005    1.673641   -1.017053
 H   -4.648475    2.750037    1.784476
 H   -5.401165    4.872833    0.997619
 H   -6.656324    3.698495    0.612931
 H   -5.917372    3.645329   -1.747548
 H   -6.237739    5.297769   -1.245538
 H   -4.107329    5.131224   -2.522676
 H   -3.836196    5.699500   -0.875634
 H   -2.169627    3.976214   -1.476882
 H   -3.457873    2.851143   -1.886402
 H   -2.909350    4.115050    0.842153
 H   -1.284788    2.339019    0.192789
 H   -2.227000    1.923220    1.628050
 H   -5.687261   -1.366089    1.008515
 H   -7.715851   -2.592964    0.928022
 H   -6.396629   -3.735201    1.233840
 H   -7.620527   -4.098634    0.022082
 H   -6.474894   -1.476150   -2.419854
 H   -7.737915   -1.225044   -1.205594
 H   -7.699722   -2.715387   -2.149646
 H   -4.626310   -4.118176   -0.526556
 H   -5.839554   -4.396908   -1.774646
 H   -4.624191   -3.141172   -2.005055
