70 
3ekv_ligand_dft.xyz
 C   11.887112   15.625656    2.380113
 C    9.499811   15.840550    2.622956
 C   10.354609   16.218961    5.610741
 C   10.771407   15.497136    3.421643
 C   10.641015   16.683837    7.983089
 C   10.354687   17.941516    8.800244
 C   11.866759   15.890378    8.490622
 C   12.156769   14.706095    7.601785
 C   13.069634   14.802010    6.550007
 C   11.446839   13.514228    7.763495
 C   13.260301   13.740521    5.668947
 C   11.635253   12.450357    6.889010
 C   12.539727   12.561454    5.835008
 C   10.100479   17.653140   10.285252
 C    7.705173   16.915600   10.070540
 C    7.027743   18.133920   10.745428
 C    8.773700   16.383520   13.200520
 C    9.611478   17.324890   13.797468
 C    9.158066   18.065952   14.875473
 C    7.858869   17.877420   15.376353
 C    7.032710   16.916746   14.771343
 C    7.486918   16.177084   13.692000
 C    7.167599   19.419432    9.922593
 C    5.546600   17.827865   10.986507
 C   10.027219   16.057001    1.196061
 N   10.791282   17.067453    6.589786
 N    9.085591   16.623553   10.473367
 N    7.388609   18.654070   16.419347
 O   11.029136   16.446455    4.462469
 O    9.476052   15.391264    5.735844
 O   11.478213   18.804002    8.682510
 O   10.734633   15.319418   11.833605
 O    8.375061   14.446329   11.500053
 O   11.378845   16.446574    1.350862
 S    9.299896   15.544407   11.730830
 H   12.789092   16.084560    2.788846
 H   12.136516   14.625743    1.987795
 H    8.743145   15.056670    2.690950
 H    9.073311   16.762202    3.026048
 H   10.734507   14.505225    3.875018
 H    9.761396   16.037359    8.030271
 H    9.474975   18.417410    8.345432
 H   12.731394   16.563351    8.527971
 H   11.670868   15.547738    9.511748
 H   13.630627   15.723433    6.411792
 H   10.729386   13.429354    8.576287
 H   13.974336   13.835051    4.855243
 H   11.070533   11.533090    7.027050
 H   12.685897   11.730553    5.150763
 H   11.035124   17.301599   10.722226
 H    9.826987   18.587700   10.800107
 H    7.134700   16.005575   10.267371
 H    7.699830   17.039784    8.980278
 H    7.501245   18.292804   11.722335
 H   10.622985   17.461010   13.428273
 H    9.812408   18.796943   15.342583
 H    6.029348   16.752870   15.154784
 H    6.852662   15.428039   13.229460
 H    6.655922   20.252953   10.415700
 H    8.212092   19.714227    9.780542
 H    6.719168   19.293412    8.929285
 H    5.038201   18.681710   11.446633
 H    5.035438   17.602740   10.042112
 H    5.424992   16.964285   11.648801
 H    9.964091   15.124725    0.610199
 H    9.510052   16.847155    0.647540
 H   11.620050   17.601164    6.366942
 H    6.606634   18.282156   16.937882
 H    8.086077   19.078723   17.012518
 H   11.192211   19.704892    8.868345
