85 
3el0_ligand_dft.xyz
 C    3.115509   -4.131250   15.049036
 C    3.796123   -5.430788   15.513295
 C    3.360232   -6.627074   14.654617
 C    3.526861   -6.374936   13.151886
 C    2.809549   -5.091129   12.725409
 C    3.290252   -3.890350   13.542707
 N    5.077260   -2.822198   15.801121
 C    5.737872   -4.001363   16.328670
 C    5.316319   -5.249404   15.535915
 C    3.622475   -2.953687   15.878599
 C    7.263210   -3.893759   16.210162
 N    7.937993   -4.409188   17.265598
 C    9.400588   -4.559815   17.360663
 C   10.071083   -3.181429   17.291046
 C    9.908590   -5.467139   16.232710
 C    9.681172   -5.207595   18.719492
 O    7.812452   -3.430245   15.216526
 C    5.545148   -1.579418   16.391202
 C    5.120780   -0.342173   15.586160
 C    5.178420   -0.560314   14.058367
 O    5.870732    0.792441   15.993085
 N    4.548835    0.557039   13.383679
 C    6.599328   -0.813059   13.564465
 C    3.193550    0.627338   13.276421
 O    2.456479   -0.272597   13.670896
 C    2.684655    1.876730   12.612385
 C    3.358849    2.330658   11.472505
 C    2.918581    3.461750   10.804490
 C    1.808317    4.152948   11.275630
 C    1.143540    3.699304   12.411792
 C    1.560553    2.551983   13.105276
 O    0.052573    4.347025   12.912462
 C    0.790133    2.148149   14.335180
 S    6.738166   -1.293153   11.815265
 C    6.551596    0.229669   10.911197
 C    5.863306    0.179080    9.695627
 C    5.754386    1.315820    8.899063
 C    6.305983    2.523443    9.316757
 C    6.983597    2.580683   10.532506
 C    7.123057    1.439959   11.316444
 H    2.037960   -4.225018   15.248025
 H    3.477557   -5.620498   16.549920
 H    3.916022   -7.524562   14.956026
 H    2.299954   -6.830500   14.859763
 H    4.592627   -6.294749   12.899790
 H    3.140102   -7.233748   12.590824
 H    2.965901   -4.905781   11.656746
 H    1.726771   -5.218837   12.869140
 H    2.743220   -2.983568   13.259848
 H    4.347325   -3.696899   13.320278
 H    5.468273   -4.153585   17.397148
 H    5.792501   -6.132744   15.980476
 H    5.717289   -5.140392   14.523119
 H    3.162503   -2.036881   15.498408
 H    3.301866   -3.072918   16.934213
 H    7.389459   -4.762271   18.035282
 H   11.155757   -3.286451   17.401049
 H    9.859482   -2.704586   16.331969
 H    9.703052   -2.536439   18.096419
 H   10.992009   -5.602492   16.319623
 H    9.432074   -6.451754   16.289948
 H    9.687134   -5.026328   15.258587
 H   10.758075   -5.344221   18.853170
 H    9.316660   -4.578428   19.540147
 H    9.205814   -6.193009   18.793467
 H    5.211469   -1.453012   17.438703
 H    6.640457   -1.604142   16.406504
 H    4.085669   -0.080468   15.820462
 H    4.580064   -1.438909   13.821512
 H    6.805078    0.549106   15.982797
 H    5.081602    1.404038   13.251629
 H    7.258356    0.037752   13.769574
 H    7.002457   -1.684264   14.093506
 H    4.208596    1.774537   11.094126
 H    3.437943    3.802392    9.914061
 H    1.454271    5.043738   10.759981
 H   -0.133780    5.117584   12.363571
 H    0.666159    3.007458   15.001745
 H   -0.215333    1.811802   14.059306
 H    1.276610    1.334449   14.869806
 H    5.401733   -0.752225    9.381908
 H    5.216236    1.258332    7.957578
 H    6.209756    3.412950    8.701682
 H    7.422004    3.515997   10.867895
 H    7.688163    1.496588   12.241962
