86 
3el0_ligand_xtb.xyz
 C    1.134315   -3.768755   -0.495314
 C   -0.118783   -4.602282   -0.796582
 C    0.019632   -6.010443   -0.208295
 C    0.387095   -5.996752    1.273104
 C    1.657121   -5.185008    1.504551
 C    1.477932   -3.756327    0.996888
 N   -0.246237   -1.703965   -0.511752
 C   -1.481699   -2.457788   -0.814330
 C   -1.370254   -3.888311   -0.280930
 C    0.958695   -2.362062   -1.060395
 C   -2.628616   -1.761714   -0.044018
 N   -3.796450   -1.730611   -0.679491
 C   -5.055531   -1.184609   -0.139192
 C   -6.081004   -1.247414   -1.266689
 C   -4.828542    0.262507    0.296504
 C   -5.498652   -2.041552    1.047178
 O   -2.386939   -1.318376    1.063481
 C   -0.314000   -0.273569   -0.900791
 C   -0.225607    0.615626    0.356691
 C    0.321258    2.045344    0.068351
 O    0.596285   -0.067180    1.283404
 N    1.774059    2.101905    0.131011
 C   -0.202217    2.622969   -1.248518
 C    2.655001    1.402904   -0.623968
 O    2.333410    0.606163   -1.489112
 C    4.082597    1.645801   -0.284526
 C    4.611760    2.870883   -0.135443
 C    6.019175    3.037405    0.099990
 C    6.860221    1.989531    0.141338
 C    6.404124    0.613435   -0.044005
 C    4.901539    0.401973   -0.171208
 O    7.160472   -0.332474   -0.063638
 C    4.439607   -0.408206    1.057718
 S   -2.023798    2.534346   -1.324777
 C   -2.412626    3.854510   -0.179679
 C   -2.155729    5.166666   -0.543123
 C   -2.444613    6.186252    0.346370
 C   -2.998041    5.894801    1.582908
 C   -3.265211    4.581586    1.932271
 C   -2.971427    3.554430    1.051483
 H    1.979043   -4.224290   -1.021599
 H   -0.211826   -4.698117   -1.885151
 H    0.803756   -6.534678   -0.757446
 H   -0.910810   -6.560589   -0.355972
 H   -0.429972   -5.580953    1.865155
 H    0.540834   -7.021968    1.609792
 H    1.901061   -5.170201    2.567109
 H    2.489370   -5.654649    0.977424
 H    2.400496   -3.193259    1.148590
 H    0.694763   -3.270782    1.583197
 H   -0.147084   -1.682023    0.522262
 H   -1.633106   -2.446000   -1.897618
 H   -2.259301   -4.444539   -0.582729
 H   -1.364068   -3.851460    0.809021
 H    1.821110   -1.738809   -0.818640
 H    0.853271   -2.397921   -2.147576
 H   -3.870309   -2.163694   -1.587241
 H   -5.759704   -0.643676   -2.112837
 H   -7.034608   -0.862161   -0.918902
 H   -6.232731   -2.273243   -1.597022
 H   -5.768536    0.701966    0.615206
 H   -4.427464    0.853539   -0.524689
 H   -4.132229    0.290348    1.129156
 H   -5.666942   -3.070123    0.736079
 H   -6.422397   -1.649957    1.461531
 H   -4.738114   -2.028759    1.823164
 H   -1.243954   -0.062539   -1.427241
 H    0.538527   -0.054298   -1.547485
 H   -1.234491    0.725961    0.774479
 H   -0.037574    2.688132    0.881719
 H    0.499971    0.327962    2.155634
 H    2.169755    2.731077    0.811102
 H    0.178093    2.075795   -2.107327
 H    0.091186    3.668685   -1.337458
 H    4.007193    3.761546   -0.237466
 H    6.390659    4.044291    0.223800
 H    7.921364    2.120728    0.290398
 H    4.715341   -0.213649   -1.060144
 H    5.011267   -1.330688    1.112988
 H    3.378152   -0.639233    0.990252
 H    4.615594    0.163143    1.967174
 H   -1.743626    5.387228   -1.516651
 H   -2.246968    7.209790    0.067450
 H   -3.228442    6.693245    2.271086
 H   -3.704029    4.353285    2.891524
 H   -3.182294    2.528636    1.310854
