100 
3el4_ligand_xtb.xyz
 C    4.225937   -0.676145    0.413514
 O    3.538414   -1.682940    0.547875
 N    6.251187    0.462904   -0.111697
 C    5.651686   -0.702980   -0.009328
 C    6.281612   -1.933435   -0.274562
 C    7.594094   -1.923448   -0.662089
 C    9.619761   -0.586899   -1.175266
 C   10.217505    0.638685   -1.270305
 C    9.497115    1.810453   -0.979056
 C    8.187138    1.746792   -0.597344
 C    8.270420   -0.692737   -0.782969
 C    7.540502    0.496303   -0.489745
 N    3.758471    0.565971    0.629993
 C    2.428254    0.823295    1.128900
 C    1.393536    0.675622   -0.003779
 O    0.857102    1.639917   -0.537522
 C    2.315579    2.199421    1.769757
 C    0.969481    2.328832    2.464393
 O    0.074724    1.513967    2.346492
 N    0.838019    3.441248    3.208822
 C   -1.101544   -0.475087   -1.359438
 O   -1.109659    0.730352   -2.078513
 C    0.300992   -1.120467   -1.345795
 N    1.152610   -0.602485   -0.289670
 C    0.264313   -2.654410   -1.226639
 C   -0.322507   -3.139184    0.070785
 C    0.474921   -3.294874    1.198862
 C   -1.676786   -3.443256    0.161353
 C   -0.076260   -3.713843    2.397749
 C   -2.226582   -3.863771    1.360366
 C   -1.429254   -3.991887    2.484792
 N   -2.721609    0.840786   -0.089156
 C   -1.696491   -0.224379    0.051942
 C   -4.071758    0.434798    0.346725
 C   -4.531754   -0.763864   -0.516936
 O   -4.110207   -0.871695   -1.649953
 C   -5.078240    1.557924    0.072771
 C   -4.653337    2.885264    0.701446
 C   -5.636574    4.013832    0.373644
 C   -5.571761    4.444464   -1.089447
 C   -4.147980    4.833693   -1.473387
 C   -3.190858    3.669918   -1.227890
 C   -3.236394    3.254013    0.245123
 C   -2.285296    2.101020    0.549818
 N   -5.428865   -1.554546    0.076395
 C   -6.232537   -2.593141   -0.596504
 C   -7.083821   -3.257412    0.482100
 C   -7.119709   -1.921075   -1.646367
 C   -5.313451   -3.619738   -1.255652
 H    5.714502   -2.843684   -0.163297
 H    8.121225   -2.841907   -0.876820
 H   10.168246   -1.490561   -1.397435
 H   11.251260    0.716815   -1.570676
 H    9.992551    2.766158   -1.060732
 H    7.620195    2.636406   -0.371073
 H    4.404691    1.321557    0.439073
 H    2.194918    0.051796    1.876219
 H    3.122195    2.352008    2.487454
 H    2.373206    2.968597    0.995352
 H   -0.012106    3.594260    3.726117
 H    1.588337    4.099027    3.323979
 H   -1.780246   -1.133746   -1.912140
 H   -0.362094    1.274840   -1.734754
 H    0.743009   -0.870981   -2.323455
 H    1.789934   -1.281806    0.133788
 H   -0.310351   -3.048212   -2.065681
 H    1.289824   -3.017292   -1.317068
 H    1.538249   -3.115936    1.141005
 H   -2.299820   -3.363001   -0.718137
 H    0.555546   -3.834256    3.264473
 H   -3.278988   -4.103025    1.418009
 H   -1.857292   -4.324531    3.418127
 H   -2.738143    1.014000   -1.120311
 H   -2.144428   -1.139905    0.435979
 H   -0.935789    0.110900    0.758227
 H   -4.025190    0.189657    1.412264
 H   -6.052011    1.262221    0.467258
 H   -5.184664    1.669595   -1.006808
 H   -4.639262    2.751593    1.790239
 H   -5.393300    4.873185    1.001633
 H   -6.650899    3.699009    0.624470
 H   -5.921200    3.640324   -1.738987
 H   -6.238525    5.293986   -1.239055
 H   -4.112837    5.123757   -2.523639
 H   -3.834832    5.694018   -0.878418
 H   -2.172886    3.967182   -1.484667
 H   -3.464727    2.843300   -1.885724
 H   -2.901799    4.112049    0.837630
 H   -1.282552    2.333198    0.185621
 H   -2.219002    1.922160    1.625764
 H   -5.715008   -1.337160    1.018715
 H   -7.752692   -2.536942    0.949182
 H   -6.454937   -3.704991    1.248830
 H   -7.690060   -4.042598    0.040811
 H   -6.504727   -1.437409   -2.400270
 H   -7.764585   -1.175947   -1.184856
 H   -7.743961   -2.663026   -2.134369
 H   -4.683445   -4.103203   -0.513682
 H   -5.911461   -4.380532   -1.748001
 H   -4.685459   -3.138717   -1.999258
