55 
3elj_ligand_xtb.xyz
 C    2.646669    1.182211   -0.065684
 N    1.322437    1.201963    0.007181
 C    3.352078    2.383138   -0.259195
 C    2.555673    3.550568   -0.317410
 N    3.382712    4.609233   -0.478144
 C    4.680199    4.153747   -0.530589
 C    4.704242    2.800660   -0.398531
 N    1.229552    3.577283   -0.221775
 C    0.679513    2.372219   -0.078322
 N   -0.678456    2.382563    0.020623
 C   -1.570529    1.329032    0.102045
 C   -2.849033    1.599865    0.640406
 O   -3.070522    2.897188    1.015705
 C   -4.363999    3.248974    1.448616
 C   -1.295001    0.049817   -0.358126
 C   -2.238600   -0.958237   -0.256139
 C   -3.473775   -0.706882    0.315950
 C   -3.774587    0.581554    0.756605
 C   -4.528192   -1.753676    0.402857
 S   -5.902711   -1.229687   -0.693102
 O   -5.395667   -0.955776   -2.006352
 O   -6.650427   -0.191129   -0.035480
 C   -6.967875   -2.707090   -0.787216
 O    5.748941   -0.956664   -0.351746
 C    5.220907   -2.064426   -0.385085
 N    5.864141   -3.089544   -0.976497
 C    3.861352   -2.323312    0.160208
 C    3.420295   -3.591593    0.541191
 F    4.257282   -4.659561    0.449133
 C    2.162047   -3.845181    1.041438
 C    1.279784   -2.784089    1.184932
 C    1.665917   -1.508789    0.845899
 C    2.945351   -1.251216    0.338737
 N    3.350517    0.016337    0.028939
 H    5.491974    4.843029   -0.657695
 H    5.571196    2.170411   -0.400393
 H   -1.080148    3.303227    0.134703
 H   -5.120976    2.991096    0.702665
 H   -4.612090    2.765534    2.398734
 H   -4.342295    4.328707    1.589940
 H   -0.337551   -0.143099   -0.809317
 H   -2.003950   -1.943550   -0.629205
 H   -4.753653    0.766397    1.166014
 H   -4.966279   -1.837454    1.394116
 H   -4.183940   -2.716995    0.039594
 H   -7.846724   -2.441274   -1.360976
 H   -6.414987   -3.492185   -1.285189
 H   -7.245973   -2.988338    0.219793
 H    6.796284   -2.909472   -1.312196
 H    5.522274   -4.032306   -0.994934
 H    1.896523   -4.852643    1.317183
 H    0.290318   -2.957214    1.578877
 H    0.996335   -0.676258    0.974530
 H    4.355448    0.089161   -0.157790
 H    3.086521    5.566692   -0.555836
