32 
3eor_ligand_dft.xyz
 O  139.460023  102.859820   45.600147
 P  139.689453  101.389000   45.031356
 O  139.331564  101.246094   43.607360
 O  138.906940  100.398731   46.064970
 C  141.419192  100.897131   45.379293
 O  141.794737  100.998112   46.733877
 C  141.735335   99.809053   47.495405
 C  143.046057   99.026974   47.363702
 O  142.997519   97.797750   48.060849
 C  141.492489  100.210450   48.950344
 N  140.185144  100.835614   49.098068
 C  139.074253  100.097547   49.303422
 C  137.830657  100.613056   49.123484
 C  137.789195  101.903216   48.510982
 N  136.625627  102.353659   47.966454
 N  138.856267  102.660138   48.352422
 C  140.084530  102.229691   48.803647
 O  141.056836  102.942988   48.903726
 H  139.318233  102.940437   46.574540
 H  137.947944  100.501500   45.981637
 H  141.565076   99.886686   44.974664
 H  142.057431  101.575447   44.804895
 H  140.894937   99.181738   47.157158
 H  143.285815   98.885137   46.300125
 H  143.859348   99.609622   47.805819
 H  142.455041   97.186181   47.549393
 H  141.553386   99.324712   49.587461
 H  142.243537  100.936517   49.265109
 H  139.237371   99.070188   49.615107
 H  136.941049  100.023770   49.302999
 H  136.603191  103.326120   47.694653
 H  135.751823  101.945923   48.258931
