32 
3eor_ligand_xtb.xyz
 O   -0.621702    1.090994   -1.274035
 P   -0.211798    2.128252   -0.125055
 O   -1.126702    2.135495    1.017763
 O   -0.147979    3.553679   -0.872727
 C    1.581111    1.780714    0.137234
 O    1.797253    0.509082    0.674893
 C    1.953043   -0.549864   -0.272400
 C    3.456631   -0.785543   -0.498808
 O    4.110478   -1.081417    0.704746
 C    1.288058   -1.803098    0.313521
 N   -0.142194   -1.626269    0.389222
 C   -0.723824   -1.038234    1.478960
 C   -2.024077   -0.711797    1.516300
 C   -2.850872   -0.920380    0.346702
 N   -4.059861   -0.587863    0.132500
 N   -2.189627   -1.559362   -0.696923
 C   -0.869225   -1.899059   -0.758440
 O   -0.369857   -2.405602   -1.738615
 H   -1.564643    0.911107   -1.245237
 H   -0.773394    4.156365   -0.469286
 H    1.928582    2.507468    0.876543
 H    2.121667    1.942759   -0.799220
 H    1.465994   -0.298114   -1.220183
 H    3.894988    0.110849   -0.964240
 H    3.610116   -1.636002   -1.164281
 H    3.829669   -0.422519    1.353948
 H    1.490982   -2.650760   -0.343918
 H    1.688478   -1.996873    1.309136
 H   -0.061670   -0.858220    2.311761
 H   -2.457309   -0.246062    2.383442
 H   -4.504593   -0.125587    0.917587
 H   -2.747120   -1.758017   -1.518444
