40 
3erd_ligand_xtb.xyz
 C   -0.311947   -2.899451   -0.291318
 C   -0.049909   -1.809968    0.749063
 C   -0.442834   -0.458932    0.207913
 C   -1.906417   -0.243788    0.123997
 C   -2.649335   -0.020109    1.278762
 C   -4.016487    0.158308    1.222034
 C   -4.673508    0.104416   -0.002906
 O   -6.024629    0.281056   -0.020156
 C   -3.942648   -0.125706   -1.161520
 C   -2.572055   -0.295970   -1.094742
 C    0.437940    0.449557   -0.212472
 C    1.901445    0.238261   -0.125019
 C    2.654747    0.048266   -1.279072
 C    4.022645   -0.122819   -1.216092
 C    4.669905   -0.096804    0.014868
 O    6.022035   -0.264894    0.038458
 C    3.928594    0.098877    1.173249
 C    2.557720    0.263445    1.099906
 C    0.042591    1.797867   -0.758368
 C    0.343875    2.897948    0.259848
 H   -1.363722   -2.916994   -0.568692
 H    0.280065   -2.712427   -1.184555
 H   -0.041010   -3.875522    0.104579
 H    1.006613   -1.817560    1.017674
 H   -0.639826   -2.023415    1.644006
 H   -2.145318    0.025925    2.233330
 H   -4.595500    0.339632    2.113618
 H   -6.349381    0.218624   -0.926238
 H   -4.449728   -0.172357   -2.117099
 H   -2.009862   -0.475491   -1.999793
 H    2.158970    0.023138   -2.238744
 H    4.609825   -0.276734   -2.107572
 H    6.338810   -0.224065    0.948681
 H    4.427991    0.123794    2.133667
 H    1.987876    0.419368    2.004533
 H   -1.020725    1.810976   -0.998624
 H    0.609132    1.995043   -1.671947
 H   -0.225083    2.729291    1.171505
 H    1.403054    2.907524    0.508234
 H    0.072637    3.871567   -0.141759
