45 
3erk_ligand_dft.xyz
 C    3.046468   -0.650190    1.226597
 C    4.462773   -0.122137    1.085539
 N    5.292124   -1.096118    0.274830
 C    4.703012   -1.397093   -1.084484
 C    3.280995   -1.922100   -0.933134
 C    2.436435   -0.907413   -0.156076
 C   -3.023755    0.263750    0.774116
 C   -4.374840    0.578685    0.837110
 C   -5.287539   -0.284274    0.247647
 C   -4.889288   -1.449795   -0.391402
 C   -3.534940   -1.749583   -0.449283
 C   -2.586529   -0.892355    0.119057
 F   -6.589796    0.013120    0.304886
 C   -0.799674    1.709190   -1.132902
 C    0.077009    1.017588   -0.297434
 N    1.095809    1.641045    0.318360
 C    1.222890    2.956421    0.090856
 N    0.442576    3.708427   -0.692045
 C   -0.559635    3.067808   -1.290647
 N    2.287068    3.583427    0.693464
 N    1.043771   -1.289464   -0.059112
 C    0.538523   -2.547643    0.075524
 N   -0.765583   -2.560921    0.138173
 C   -1.159684   -1.248485    0.044257
 C   -0.053526   -0.429637   -0.089038
 H    3.024561   -1.563983    1.834352
 H    2.445534    0.111874    1.728207
 H    4.967829    0.005905    2.044939
 H    4.478653    0.827057    0.541559
 H    5.376199   -1.972126    0.800957
 H    6.244426   -0.735788    0.164913
 H    5.364013   -2.116599   -1.571524
 H    4.729970   -0.456532   -1.640997
 H    3.303002   -2.896497   -0.429648
 H    2.868219   -2.085800   -1.932653
 H    2.459564    0.038841   -0.703425
 H   -2.305152    0.919194    1.256482
 H   -4.728258    1.468006    1.346584
 H   -5.634892   -2.103116   -0.830306
 H   -3.201224   -2.660704   -0.934689
 H   -1.617597    1.209997   -1.635886
 H   -1.195569    3.672391   -1.932725
 H    2.231034    4.592745    0.677573
 H    2.569868    3.193917    1.580658
 H    1.165455   -3.428062    0.118130
