45 
3erk_ligand_xtb.xyz
 C    3.291369   -0.806363    1.319702
 C    4.697858   -0.232786    1.384324
 N    5.529602   -0.837743    0.306781
 C    4.974051   -0.547622   -1.044000
 C    3.571857   -1.127467   -1.152785
 C    2.664994   -0.541422   -0.060018
 C   -2.894021   -0.000894   -0.642164
 C   -4.267918    0.139711   -0.640421
 C   -5.042026   -0.859544   -0.076410
 C   -4.478420   -1.998371    0.472735
 C   -3.104422   -2.127619    0.465451
 C   -2.298150   -1.127632   -0.078954
 F   -6.380469   -0.720621   -0.068959
 C    0.730446    1.760565   -1.323189
 C    0.122140    1.084864   -0.260536
 N   -0.512020    1.734680    0.705440
 C   -0.573708    3.066531    0.611053
 N   -0.012250    3.800074   -0.360361
 C    0.619720    3.144910   -1.310169
 N   -1.209005    3.724383    1.591630
 N    1.339090   -1.088484   -0.128366
 C    0.979792   -2.397706    0.007073
 N   -0.303598   -2.552907    0.040791
 C   -0.855705   -1.306488   -0.058897
 C    0.156906   -0.371250   -0.157772
 H    3.306717   -1.880054    1.518221
 H    2.676350   -0.342061    2.091067
 H    5.156562   -0.441804    2.352132
 H    4.677046    0.848365    1.232949
 H    5.542310   -1.857373    0.440923
 H    6.494832   -0.496223    0.372029
 H    5.629780   -0.979478   -1.802117
 H    4.951179    0.536049   -1.176802
 H    3.603449   -2.215155   -1.064837
 H    3.163163   -0.894568   -2.136162
 H    2.575827    0.542232   -0.207654
 H   -2.284488    0.763346   -1.098208
 H   -4.744390    1.004707   -1.073889
 H   -5.114177   -2.761168    0.893099
 H   -2.632484   -3.003770    0.880321
 H    1.208196    1.235231   -2.134790
 H    1.052038    3.754220   -2.093814
 H   -1.366840    4.710433    1.482645
 H   -1.746783    3.197014    2.256031
 H    1.684616   -3.202875    0.067959
