35 
3ern_ligand_dft.xyz
 P    3.799969    8.590545   -1.373904
 O    3.518807   10.026721   -1.329729
 O    2.730955    7.697983   -2.172028
 O    3.932588    7.847443    0.038678
 O    5.164766    8.176833   -2.158248
 C    6.406189    8.619455   -1.608897
 C    7.201739    7.420706   -1.123453
 O    6.392536    6.650148   -0.217477
 C    7.644256    6.437306   -2.198616
 O    8.851029    6.880616   -2.758930
 C    7.756007    5.134211   -1.401846
 O    7.767791    3.964983   -2.165985
 C    6.620904    5.254389   -0.357195
 N    5.394016    4.566200   -0.744409
 C    5.023232    3.393066    0.013899
 O    5.764746    3.017949    0.898920
 N    3.853815    2.778331   -0.328099
 C    3.106801    3.239373   -1.304584
 N    1.974050    2.564953   -1.592178
 C    3.441054    4.411756   -2.072697
 C    4.594938    5.035034   -1.742986
 H    2.551179    6.880910   -1.684846
 H    4.767352    7.338654    0.126393
 H    6.242254    9.332488   -0.793993
 H    6.971397    9.125941   -2.395660
 H    8.096739    7.780022   -0.599021
 H    6.867734    6.338999   -2.973116
 H    9.143426    6.210809   -3.390134
 H    8.713636    5.162664   -0.871473
 H    6.859313    3.741193   -2.407727
 H    6.892546    4.822346    0.604016
 H    1.733757    1.773684   -1.015020
 H    1.316914    2.889672   -2.280655
 H    2.825580    4.772912   -2.888068
 H    4.917985    5.940707   -2.243927
