35 
3ern_ligand_xtb.xyz
 P   -2.993644   -1.189597    0.176326
 O   -1.971197   -1.910595   -0.589173
 O   -2.765448   -1.011253    1.729069
 O   -4.428711   -1.840429    0.207632
 O   -3.304934    0.277505   -0.426761
 C   -2.247775    0.920795   -1.091588
 C   -1.302820    1.590019   -0.100683
 O   -0.685479    0.614869    0.746055
 C   -0.162784    2.361235   -0.764011
 O   -0.579314    3.651537   -1.087246
 C    0.928216    2.298053    0.316934
 O    2.182140    2.488718   -0.252199
 C    0.670864    0.899865    0.950222
 N    1.544005   -0.125077    0.379645
 C    2.854332   -0.092063    0.809907
 O    3.258320    0.760101    1.585073
 N    3.666495   -1.056533    0.306088
 C    3.319268   -2.063746   -0.613109
 N    4.124653   -2.915089   -1.078463
 C    1.921817   -2.040225   -0.973160
 C    1.100600   -1.105375   -0.477125
 H   -1.916770   -0.593948    1.888358
 H   -4.547012   -2.406300   -0.554035
 H   -1.696920    0.190048   -1.693234
 H   -2.686544    1.688143   -1.733376
 H   -1.882784    2.280162    0.527959
 H    0.201811    1.823996   -1.653460
 H    0.184168    4.142965   -1.414488
 H    0.715255    3.065238    1.078802
 H    2.855759    2.322829    0.427481
 H    0.881653    0.915880    2.030454
 H    4.626914   -1.013593    0.628028
 H    5.082321   -2.843568   -0.748261
 H    1.564044   -2.805085   -1.637096
 H    0.043385   -1.100901   -0.686823
