32 
3esj_ligand_xtb.xyz
 O    3.317056    2.161054    0.425567
 C    3.296756    0.976588    0.199955
 N    4.422829    0.240771   -0.005991
 C    4.523452   -1.120133   -0.258481
 N    5.690102   -1.590255   -0.424687
 C    3.239900   -1.800553   -0.286587
 C    2.111684   -1.104081   -0.100369
 N    2.103542    0.251534    0.110366
 C    0.866351    0.947720    0.323005
 O    0.159019    0.333173    1.398314
 C   -1.206461    0.430049    1.089937
 C   -2.140518   -0.508445    1.831676
 O   -3.442531   -0.301973    1.301585
 P   -3.720903   -0.362627   -0.272619
 O   -3.350924   -1.882370   -0.657959
 O   -5.039902    0.075451   -0.670688
 O   -2.508645    0.461427   -0.955250
 C   -1.260441    0.113224   -0.405817
 C   -0.083359    0.954397   -0.915772
 O   -0.460348    2.268518   -1.185435
 H    5.302249    0.741342    0.041648
 H    5.720313   -2.587423   -0.605297
 H    3.220173   -2.864487   -0.451311
 H    1.137811   -1.569319   -0.091554
 H    1.122783    1.989265    0.566890
 H   -1.564944    1.463230    1.232672
 H   -2.198334   -0.276923    2.897279
 H   -1.829341   -1.549428    1.697194
 H   -4.105329   -2.282380   -1.089659
 H   -1.068844   -0.955178   -0.566303
 H    0.409431    0.501819   -1.789174
 H   -1.321709    2.259703   -1.625283
