59 
3ewh_ligand_dft.xyz
 C   17.133001   -8.073110    1.353140
 N   16.143090   -8.751231    2.154168
 C   16.025017   -8.584571    3.493586
 N   16.835639   -7.695741    4.077980
 N   15.086692   -9.338472    4.104115
 C   14.984159   -9.148368    5.410924
 C   15.761981   -8.244233    6.130736
 C   16.701619   -7.518457    5.399642
 C   17.660225   -6.548759    5.997302
 C   18.820220   -6.224288    5.295387
 C   19.754594   -5.346363    5.832273
 C   19.490707   -4.803869    7.080019
 N   18.381019   -5.073552    7.771260
 C   17.505993   -5.907093    7.242383
 O   16.363400   -6.147673    7.943916
 C   16.258107   -5.649114    9.230199
 C   15.567683   -4.493296    9.448990
 C   15.408165   -4.009557   10.764722
 C   16.794247   -6.412038   10.302148
 C   17.492401   -7.626334   10.086834
 C   17.971455   -8.351012   11.147113
 C   17.759720   -7.902753   12.469538
 C   17.086219   -6.731652   12.706066
 C   16.597088   -5.946525   11.631070
 C   15.904876   -4.711571   11.837973
 N   15.759921   -4.241911   13.163661
 C   14.669081   -3.577433   13.654858
 N   13.420756   -3.711004   13.100617
 C   12.559158   -2.976252   13.900862
 C   11.196391   -2.739657   13.832993
 C   10.657914   -1.921125   14.822633
 C    9.178587   -1.669545   14.853223
 F    8.597641   -1.906892   13.662315
 F    8.892237   -0.398944   15.190736
 F    8.553448   -2.454497   15.752847
 C   11.459788   -1.364933   15.831286
 C   12.824101   -1.609380   15.882260
 C   13.386004   -2.428918   14.903250
 N   14.701891   -2.816413   14.719867
 H   16.970299   -8.335456    0.305845
 H   17.045520   -6.987941    1.464059
 H   18.153110   -8.360691    1.636015
 H   15.558076   -9.464555    1.751595
 H   14.237036   -9.752939    5.922306
 H   15.636554   -8.122132    7.195473
 H   18.966624   -6.681242    4.323022
 H   20.663950   -5.095545    5.298088
 H   20.188800   -4.119552    7.555992
 H   15.176007   -3.936379    8.605214
 H   14.912216   -3.057377   10.924627
 H   17.639268   -7.978228    9.071138
 H   18.505988   -9.279531   10.972220
 H   18.123369   -8.495400   13.303242
 H   16.900025   -6.407476   13.724499
 H   16.597793   -4.072880   13.702941
 H   13.180501   -4.305001   12.323346
 H   10.572296   -3.162667   13.054020
 H   10.999533   -0.727572   16.578815
 H   13.446799   -1.176897   16.657647
