34 
3ex6_ligand_dft.xyz
 N   -0.850985   -1.189832    0.536793
 C   -1.674430   -1.928536   -0.286853
 N   -2.962355   -1.471514   -0.377476
 C   -3.524185   -0.332216    0.235288
 C   -2.575573    0.371225    1.079085
 C   -1.311284   -0.074281    1.196036
 O   -1.283938   -2.921326   -0.895412
 O   -4.685163   -0.041899    0.031413
 C    0.544191   -1.675109    0.660369
 C    1.307407   -1.615652   -0.686658
 O    1.433021   -2.859036   -1.315719
 C    2.699088   -1.136211   -0.252602
 C    2.395045   -0.293436    0.985104
 O    3.483372   -2.230097    0.144374
 O    1.231876   -0.881363    1.578556
 C    2.163124    1.183179    0.728842
 O    1.105917    1.308913   -0.230028
 P    0.420640    2.725067   -0.491065
 O   -0.785559    2.269241   -1.436896
 O    1.251573    3.824443   -1.007320
 O   -0.254878    3.006209    0.942761
 H   -3.572257   -2.003908   -0.985153
 H   -2.903995    1.261586    1.595468
 H   -0.574154    0.415517    1.815545
 H    0.498013   -2.707037    1.023269
 H    0.832921   -0.871300   -1.336219
 H    0.527344   -3.213026   -1.379062
 H    3.193777   -0.550049   -1.039519
 H    3.213618   -0.392741    1.703914
 H    3.177916   -2.979490   -0.392120
 H    1.872589    1.676528    1.661874
 H    3.070655    1.653231    0.335963
 H   -0.722180    2.712432   -2.293788
 H   -0.340522    3.957224    1.095075
