39 
3eyh_ligand_xtb.xyz
 O    3.829817    1.679015   -0.797746
 C    2.816476    1.915818   -0.186458
 N    2.646103    3.141323    0.468501
 C    1.512369    3.681978    0.538514
 C    0.280123    3.091620   -0.068445
 C    0.412720    1.591625   -0.055844
 C   -0.703731    0.751083   -0.053588
 C    1.660532    0.993092   -0.053866
 C    1.819009   -0.429053   -0.009404
 C    3.088675   -1.033980    0.021803
 C    3.182460   -2.398327    0.081531
 F    4.404210   -2.971261    0.113598
 C    2.064626   -3.236899    0.117071
 C    0.820169   -2.668174    0.090068
 C    0.675811   -1.273061    0.028164
 C   -0.591593   -0.647239   -0.007378
 N   -1.835113   -1.205001   -0.005389
 C   -2.682531   -0.213636   -0.053759
 N   -2.052989    0.999940   -0.080020
 C   -4.173464   -0.356086   -0.027484
 C   -4.540938   -1.767742   -0.487867
 C   -4.832860    0.679347   -0.945894
 C   -4.643910   -0.144569    1.419635
 H    1.430427    4.614288    1.086359
 H    0.178995    3.445023   -1.101722
 H   -0.605450    3.418774    0.480897
 H    3.983378   -0.434829   -0.014152
 H    2.205106   -4.305115    0.165660
 H   -0.075382   -3.268358    0.117383
 H   -4.246817   -1.915143   -1.523499
 H   -4.019396   -2.501127    0.118786
 H   -5.613013   -1.924885   -0.399867
 H   -4.705329    1.692399   -0.568269
 H   -4.416435    0.622878   -1.949502
 H   -5.900289    0.482310   -1.008156
 H   -4.182940   -0.880571    2.073341
 H   -4.377739    0.848774    1.776637
 H   -5.724043   -0.253998    1.478314
 H   -2.497156    1.900197   -0.135052
