78 
3eyl_ligand_xtb.xyz
 C   -5.468023   -3.015039   -1.642729
 C   -4.906285   -3.381499   -0.272129
 C   -5.230317   -2.343661    0.806028
 N   -6.692721   -2.153375    0.963728
 C   -4.743415   -0.917988    0.421727
 O   -5.611948   -0.052223    0.347839
 N   -3.456252   -0.731105    0.222809
 C   -2.895856    0.495092   -0.311292
 C   -1.577517    0.065486   -0.968087
 O   -1.150028   -1.064953   -0.757291
 N   -0.928300    0.967184   -1.695989
 C   -2.642568    1.565063    0.780274
 C   -1.367066    1.190634    1.564732
 C   -0.737494    2.284020    2.428408
 N    0.741812    2.118165    2.402140
 C   -2.635441    2.950856    0.122845
 C   -1.461285    3.235085   -0.810691
 C   -1.351630    2.322264   -2.034179
 C   -0.242880    2.829514   -2.975100
 C    0.528336    1.587041   -3.419148
 C    0.383857    0.639436   -2.227963
 C    1.431429    0.867094   -1.131457
 O    1.219616    1.648970   -0.199079
 N    2.536598    0.145537   -1.235444
 C    3.614730    0.192990   -0.252669
 C    3.089880   -0.017925    1.150736
 C    1.973162   -0.805199    1.409363
 C    1.518640   -0.966765    2.709465
 C    2.182363   -0.356506    3.766746
 C    3.322664    0.397133    3.515693
 C    3.765427    0.570190    2.215955
 C    4.654189   -0.858578   -0.573180
 C    5.994943   -0.511244   -0.661150
 C    6.947074   -1.476276   -0.940426
 C    6.565565   -2.792753   -1.135233
 C    5.229000   -3.144287   -1.046045
 C    4.275877   -2.182618   -0.761942
 H   -5.125447   -3.738495   -2.376440
 H   -5.127267   -2.031776   -1.957555
 H   -6.555839   -3.027467   -1.668912
 H   -5.294001   -4.352663    0.041337
 H   -3.822710   -3.479135   -0.343225
 H   -4.779826   -2.635580    1.757716
 H   -7.058674   -2.348105    1.896430
 H   -7.222788   -2.685154    0.267009
 H   -6.751558   -1.078908    0.733478
 H   -2.770787   -1.491293    0.201538
 H   -3.591741    0.902967   -1.051393
 H   -3.500616    1.543031    1.459424
 H   -1.586305    0.314048    2.175475
 H   -0.607086    0.896570    0.844362
 H   -1.087511    2.237884    3.460243
 H   -0.967617    3.271154    2.032102
 H    1.218584    2.918295    2.825181
 H    1.045307    1.250874    2.892285
 H    1.061493    2.009018    1.395485
 H   -3.567372    3.055875   -0.436356
 H   -2.663791    3.718558    0.897150
 H   -0.514470    3.178974   -0.275257
 H   -1.574675    4.254330   -1.182812
 H   -2.315391    2.269723   -2.553156
 H   -0.651455    3.376462   -3.820582
 H    0.420727    3.497387   -2.426185
 H    0.063846    1.135867   -4.295526
 H    1.567233    1.808131   -3.652837
 H    0.401522   -0.414941   -2.518549
 H    2.671637   -0.478084   -2.018337
 H    4.080142    1.186552   -0.300424
 H    1.446693   -1.295631    0.604543
 H    0.659938   -1.592829    2.899696
 H    1.844219   -0.506801    4.780678
 H    3.869771    0.838005    4.333949
 H    4.656069    1.149036    2.026437
 H    6.297777    0.515278   -0.515059
 H    7.986797   -1.197444   -1.008140
 H    7.307696   -3.543908   -1.354205
 H    4.927452   -4.169674   -1.193620
 H    3.236774   -2.468692   -0.679733
