76 
3eyl_ligand_dft.xyz
 C   32.118051   -7.808551    7.590350
 C   30.811916   -7.161675    7.131519
 C   30.103562   -6.318856    8.204477
 N   28.809111   -5.885010    7.694326
 C   30.992297   -5.130030    8.592859
 O   30.977871   -4.087893    7.948252
 N   31.794420   -5.311649    9.671574
 C   32.818314   -4.350967   10.013327
 C   33.935899   -5.129544   10.703348
 O   33.764737   -6.312612   11.030619
 N   35.081861   -4.478428   10.973469
 C   32.260485   -3.206827   10.899640
 C   32.022984   -3.697911   12.332613
 C   31.412820   -2.667084   13.277023
 N   30.194501   -2.092022   12.708308
 C   33.111696   -1.938126   10.797758
 C   34.534962   -2.047570   11.340372
 C   35.414222   -3.078478   10.631642
 C   36.891196   -2.960536   11.050062
 C   37.419583   -4.394454   11.087839
 C   36.215515   -5.188759   11.579238
 C   36.088453   -5.184375   13.117601
 O   36.846511   -4.546881   13.838082
 N   35.057784   -5.934570   13.568814
 C   34.719242   -6.040178   14.981807
 C   35.265889   -7.343085   15.570356
 C   36.655264   -7.499199   15.630117
 C   37.214460   -8.666874   16.132118
 C   36.392343   -9.698086   16.584839
 C   35.012039   -9.547261   16.533618
 C   34.450413   -8.374065   16.030698
 C   33.234544   -5.836303   15.221921
 C   32.262652   -6.399272   14.391541
 C   30.909376   -6.236632   14.672666
 C   30.506467   -5.510730   15.790176
 C   31.467541   -4.945073   16.623345
 C   32.819819   -5.108544   16.338014
 H   32.530083   -8.444490    6.800935
 H   32.878639   -7.064359    7.847999
 H   31.959980   -8.438895    8.473995
 H   30.998297   -6.518230    6.261995
 H   30.098465   -7.928363    6.812885
 H   29.930392   -6.950585    9.085982
 H   28.298412   -5.415266    8.438767
 H   28.991370   -5.157722    7.003446
 H   31.910400   -6.229736   10.082530
 H   33.193156   -3.907961    9.080994
 H   31.290997   -2.955540   10.459895
 H   31.363896   -4.575188   12.289661
 H   32.955274   -4.052820   12.789389
 H   31.267149   -3.150836   14.256533
 H   32.123767   -1.846920   13.436251
 H   29.493908   -2.822332   12.605138
 H   29.801323   -1.407460   13.347612
 H   33.156178   -1.641797    9.740623
 H   32.584215   -1.129547   11.314296
 H   35.028785   -1.073435   11.234329
 H   34.534841   -2.280897   12.413145
 H   35.316318   -2.957763    9.543627
 H   37.446212   -2.310820   10.369018
 H   36.950281   -2.533111   12.055980
 H   37.696418   -4.740633   10.086658
 H   38.274967   -4.506503   11.755108
 H   36.206764   -6.224088   11.226879
 H   34.519451   -6.441426   12.872650
 H   35.259539   -5.216271   15.457914
 H   37.293378   -6.691435   15.280482
 H   38.294671   -8.772239   16.175322
 H   36.828409  -10.611354   16.978961
 H   34.363148  -10.343084   16.887757
 H   33.370668   -8.266136   16.005450
 H   32.550735   -6.959400   13.505975
 H   30.168053   -6.680165   14.014195
 H   29.450268   -5.386253   16.009715
 H   31.165786   -4.373698   17.496129
 H   33.566605   -4.669130   16.994451
