61 
3ezr_ligand_xtb.xyz
 C   -5.638126   -0.748493   -1.058577
 C    5.224645   -3.019524    0.265787
 C    5.935385   -0.735457   -0.140046
 C   -6.915671   -0.254835   -1.223024
 C   -3.186309   -2.009460    0.118872
 C   -0.759726   -1.673291    0.047894
 C    3.606085   -1.189220   -0.046677
 C   -1.891324   -2.504170    0.211605
 C   -7.289426    0.923272   -0.582187
 C    1.744986   -2.234033    0.149020
 C    3.072652    1.677693   -0.347329
 C    5.463653    2.017691   -0.704616
 C    4.901650    3.359648   -1.180179
 C   -4.478180    2.813519    1.914517
 C    6.216886   -2.077292    0.094322
 C   -0.928470   -0.315105   -0.218968
 C   -2.209447    0.169196   -0.306974
 C   -6.358100    1.583099    0.220233
 C   -3.339440   -0.657803   -0.138670
 C   -4.693837   -0.098807   -0.273673
 C    3.923136   -2.547320    0.192135
 C    4.632601   -0.233443   -0.227287
 C   -5.074348    1.087135    0.381138
 C    0.351269   -2.554615    0.215450
 C    3.188543    2.960348    0.468100
 C    4.575924    4.909770    0.667012
 N    2.243847   -1.042915   -0.064632
 N   -0.069887   -3.786411    0.454436
 N    2.718813   -3.182720    0.312296
 N   -1.410308   -3.753795    0.451639
 N    4.380906    1.080247   -0.500334
 N   -8.582160    1.399046   -0.674838
 N    3.969687    3.966248   -0.243475
 O   -4.131289    1.672039    1.174387
 H   -5.349302   -1.653609   -1.572330
 H    5.442378   -4.060045    0.447221
 H    6.773054   -0.066665   -0.252056
 H   -7.627818   -0.774299   -1.846853
 H   -4.042936   -2.651453    0.260022
 H    2.638465    1.903584   -1.329167
 H    2.419067    0.965228    0.153569
 H    6.035296    2.167647    0.225151
 H    6.149928    1.630650   -1.466015
 H    4.379720    3.205953   -2.130770
 H    5.725135    4.052144   -1.363453
 H   -4.737514    3.655725    1.263489
 H   -5.309329    2.615082    2.599462
 H   -3.590383    3.068424    2.491615
 H    7.252271   -2.382059    0.146214
 H   -0.064961    0.315546   -0.355733
 H   -2.371551    1.213314   -0.522887
 H   -6.667454    2.490023    0.717088
 H    3.647762    2.712872    1.440436
 H    2.192846    3.372858    0.661350
 H    5.306036    4.450626    1.353297
 H    5.074509    5.691879    0.096192
 H    3.788879    5.368529    1.264914
 H   -9.120189    1.067815   -1.458970
 H   -8.719169    2.372587   -0.456434
 H    2.547314   -4.157565    0.486357
 H   -1.928094   -4.600030    0.620284
