57 
3ezv_ligand_dft.xyz
 C   -0.783539   30.478811   10.483819
 C   -1.722312   31.473141   10.094540
 C   -1.600734   32.088082    8.857563
 C   -0.543481   31.689380    8.030688
 C    0.374957   30.690210    8.400247
 C    0.251034   30.086701    9.663565
 N   -0.155819   32.101465    6.789568
 N    0.927411   31.448463    6.331144
 C    1.267235   30.596966    7.280171
 C    2.406037   29.696468    7.127925
 N    3.496503   29.914313    6.440504
 C    4.252997   28.764307    6.600642
 C    3.582362   27.851636    7.426497
 N    2.405060   28.476946    7.774032
 C    5.493950   28.417486    6.050938
 C    5.994841   27.162645    6.348939
 C    5.312332   26.263009    7.193271
 C    4.087260   26.590147    7.763033
 C   -2.818957   31.854673   11.017071
 N    3.319714   25.759862    8.616109
 C    3.280199   26.207160   10.009282
 C    2.197960   25.447639   10.762148
 N    2.437693   24.015992   10.688801
 C    2.496029   23.579940    9.301816
 C    3.586096   24.331716    8.549173
 C    1.450958   23.269877   11.442211
 C   -3.510087   30.891499   11.759945
 C   -4.541307   31.241385   12.618635
 C   -4.920827   32.581516   12.769153
 C   -4.232603   33.552643   12.030568
 C   -3.203805   33.190377   11.174046
 N   -5.988806   32.932741   13.590323
 H   -0.873334   30.043367   11.474304
 H   -2.318723   32.835846    8.535030
 H    0.971764   29.349217   10.004868
 H   -0.580449   32.799199    6.201491
 H    1.596109   28.010380    8.155201
 H    6.023488   29.108791    5.404684
 H    6.949268   26.855494    5.931790
 H    5.762062   25.298305    7.405089
 H    4.253531   26.042053   10.502158
 H    3.071246   27.280778   10.039624
 H    2.204572   25.752451   11.814910
 H    1.207939   25.716539   10.338767
 H    2.715845   22.506597    9.281407
 H    1.528914   23.737807    8.784632
 H    3.592351   24.024207    7.499143
 H    4.564116   24.072992    8.992349
 H    0.421599   23.405020   11.056878
 H    1.690001   22.201974   11.407747
 H    1.467641   23.588502   12.489693
 H   -3.251717   29.841923   11.647665
 H   -5.070822   30.468534   13.170237
 H   -4.504845   34.599984   12.135301
 H   -2.668783   33.967376   10.634555
 H   -6.188861   32.282339   14.336844
 H   -5.982261   33.888129   13.918265
