57 
3ezv_ligand_xtb.xyz
 C    2.409763    0.375199    0.077587
 C    3.557269   -0.443795    0.001116
 C    3.427190   -1.819972   -0.084787
 C    2.141422   -2.345967   -0.099065
 C    0.994418   -1.522938   -0.024830
 C    1.137525   -0.139118    0.067756
 N    1.683105   -3.623256   -0.189876
 N    0.343769   -3.680547   -0.181552
 C   -0.100366   -2.438090   -0.082169
 C   -1.499283   -2.133812   -0.052525
 N   -2.459671   -3.100257   -0.183205
 C   -3.672476   -2.471992   -0.120961
 C   -3.374103   -1.100359    0.053994
 N   -2.014297   -0.938779    0.090570
 C   -4.968118   -2.957068   -0.212521
 C   -5.970487   -2.015330   -0.114458
 C   -5.704484   -0.661110    0.063850
 C   -4.410392   -0.141374    0.146916
 C    4.891935    0.169497    0.005981
 N   -4.144001    1.198767    0.253335
 C   -2.944203    1.679802    0.900882
 C   -2.427573    2.926313    0.190185
 N   -3.452598    3.954175    0.210784
 C   -4.630231    3.463336   -0.476321
 C   -5.171081    2.209514    0.214709
 C   -2.983772    5.202007   -0.347480
 C    5.147264    1.337152   -0.711248
 C    6.401720    1.908037   -0.719582
 C    7.449874    1.333019    0.000369
 C    7.196729    0.168206    0.726110
 C    5.942354   -0.402940    0.721391
 N    8.721616    1.862886   -0.061399
 H    2.551186    1.442245    0.165241
 H    4.293014   -2.459738   -0.164435
 H    0.263117    0.488491    0.127483
 H   -5.174521   -4.006440   -0.350724
 H   -7.002088   -2.332029   -0.167874
 H   -6.552897   -0.001890    0.154707
 H   -2.189909    0.895572    0.876090
 H   -3.171836    1.944820    1.944776
 H   -2.137804    2.664604   -0.843391
 H   -1.545611    3.302663    0.713611
 H   -4.407261    3.220566   -1.532319
 H   -5.397286    4.241890   -0.456427
 H   -5.496055    2.475254    1.232166
 H   -6.030361    1.854859   -0.353201
 H   -2.121868    5.544264    0.223713
 H   -2.690639    5.113639   -1.406216
 H   -3.773557    5.948151   -0.267357
 H    4.355555    1.790952   -1.289228
 H    6.584394    2.807900   -1.290111
 H    7.996913   -0.284003    1.295349
 H    5.764880   -1.294628    1.305130
 H    8.794218    2.825055   -0.349183
 H    9.357129    1.593058    0.671488
 H   -2.275889   -4.081622   -0.298902
 H    2.216341   -4.473861   -0.260379
