44 
3f0r_ligand_xtb.xyz
 O    6.948051   -2.278550   -0.606094
 O    4.970899   -0.988891   -1.670291
 O   -1.565554    3.212417   -1.226881
 N    5.884921   -1.824978    0.182974
 N   -4.649972   -2.187731    0.065063
 C   -2.116552    1.141261   -0.264347
 C   -1.740630    0.018988    0.477150
 C   -2.565403   -1.076625    0.576124
 C   -3.823438   -1.109886   -0.052969
 C   -4.191364    0.016990   -0.810743
 C   -3.356248    1.100497   -0.913250
 C   -1.304504    2.354177   -0.408954
 C   -0.101934    2.505479    0.535265
 C    1.027436    1.689252   -0.005916
 C    1.871435    0.887455    0.664173
 C    2.934606    0.243205   -0.074497
 C    3.911734   -0.525296    0.430499
 C    4.934574   -1.085690   -0.450375
 C    0.326324    3.976265    0.590871
 C    1.802403    0.625041    2.140968
 C   -5.947943   -2.186329   -0.563903
 C   -4.250850   -3.337980    0.837721
 H    6.660930   -2.008956   -1.507647
 H    6.135622   -1.755294    1.155267
 H   -0.780249   -0.014967    0.966072
 H   -2.225056   -1.920687    1.153066
 H   -5.136703    0.044050   -1.326388
 H   -3.649835    1.958901   -1.499021
 H   -0.399409    2.179288    1.534417
 H    1.188602    1.824501   -1.068291
 H    2.950289    0.410088   -1.144347
 H    3.995730   -0.753270    1.481868
 H    1.198061    4.090538    1.231042
 H   -0.486159    4.585165    0.980270
 H    0.568297    4.329945   -0.407775
 H    2.718736    0.967172    2.620248
 H    0.967488    1.138535    2.606911
 H    1.702570   -0.443894    2.327359
 H   -5.860724   -2.117374   -1.652524
 H   -6.556907   -1.349693   -0.208484
 H   -6.470089   -3.109288   -0.324153
 H   -4.094847   -3.075361    1.888970
 H   -3.327647   -3.774721    0.445804
 H   -5.028372   -4.096359    0.790299
