48 
3f2a_ligand_xtb.xyz
 C    1.258165    1.784251   -0.317615
 N    1.703987    0.524014   -0.402284
 C    2.971667    0.288257   -0.763401
 C    3.851865    1.358811   -0.941048
 N    3.421169    2.601332   -0.864790
 C    2.148157    2.826669   -0.597357
 N    3.346657   -1.040250   -0.928162
 C    2.345342   -1.934775   -1.465931
 C    1.468968   -2.648975   -0.419264
 N    1.223379   -1.770575    0.746905
 C    2.259911   -1.967309    1.793873
 C    3.617426   -1.320862    1.509427
 C    4.203232   -1.578374    0.111990
 C   -0.113112   -1.983766    1.319231
 C   -2.812237    2.278774    0.782930
 C   -1.886905    3.251149    1.115424
 C   -0.554929    3.111553    0.765778
 C   -0.138986    1.979819    0.064150
 C   -1.076675    1.010025   -0.276057
 C   -2.418153    1.137394    0.078767
 C   -3.326863    0.066094   -0.279548
 C   -4.642966   -0.012245   -0.061410
 C   -5.361780   -1.231604   -0.478920
 O   -4.825346   -2.226416   -0.904575
 O   -6.679342   -1.117398   -0.318480
 H    4.897848    1.210682   -1.159739
 H    1.832684    3.858380   -0.605161
 H    2.860751   -2.691321   -2.064728
 H    1.718801   -1.349634   -2.141416
 H    0.517857   -2.915683   -0.881232
 H    1.942828   -3.572629   -0.081134
 H    1.281006   -0.719885    0.320834
 H    2.382972   -3.043853    1.944317
 H    1.879990   -1.543360    2.725507
 H    4.316631   -1.694010    2.258161
 H    3.539331   -0.240593    1.652232
 H    4.342413   -2.643253   -0.074539
 H    5.181248   -1.095051    0.053825
 H   -0.191953   -2.985741    1.741266
 H   -0.302727   -1.252904    2.103024
 H   -0.876111   -1.866029    0.553361
 H   -3.843800    2.403429    1.068837
 H   -2.204339    4.128257    1.657611
 H    0.161165    3.864819    1.054495
 H   -0.762876    0.158736   -0.863267
 H   -2.878624   -0.782583   -0.785758
 H   -5.238930    0.756334    0.401416
 H   -7.137766   -1.924570   -0.601259
