25 
3f35_ligand_xtb.xyz
 C    2.884642   -1.135199    0.909258
 C    2.503615   -0.476406   -0.417336
 C    1.224397    0.298065   -0.275868
 C    1.233980    1.649919    0.024015
 C    0.052935    2.351172    0.187428
 C   -1.154825    1.695329    0.046659
 C   -1.204806    0.341565   -0.255695
 C   -2.536289   -0.355540   -0.380376
 C   -2.886319   -1.128883    0.894668
 C   -0.004233   -0.356828   -0.406070
 O    0.023794   -1.692500   -0.691936
 H    3.006637   -0.382194    1.685196
 H    2.105773   -1.827423    1.218521
 H    3.817275   -1.685303    0.806599
 H    2.374993   -1.250253   -1.175362
 H    3.303858    0.195374   -0.733878
 H    2.182604    2.156504    0.127826
 H    0.073754    3.405003    0.420668
 H   -2.080817    2.238839    0.169374
 H   -2.541806   -1.034058   -1.241248
 H   -3.309488    0.392895   -0.562908
 H   -2.120965   -1.864017    1.136419
 H   -2.965249   -0.441513    1.733695
 H   -3.837271   -1.645122    0.779174
 H   -0.878232   -2.017891   -0.788678
