19 
3f38_ligand_xtb.xyz
 C    2.529121   -0.723586   -0.000304
 C    1.223816    0.015904   -0.000077
 C    1.204567    1.400602    0.000025
 C    0.008529    2.095130    0.000255
 C   -1.181368    1.396065    0.000040
 C   -1.204201    0.006102   -0.000173
 C   -2.548014   -0.675103   -0.000324
 C    0.010716   -0.683149    0.000035
 O    0.082619   -2.048720    0.000414
 H    3.111792   -0.458800   -0.881597
 H    3.112310   -0.458410    0.880520
 H    2.358293   -1.795188   -0.000042
 H    2.143029    1.935703    0.000015
 H    0.004417    3.174622    0.000515
 H   -2.121420    1.929088    0.000121
 H   -3.112604   -0.377054    0.882802
 H   -3.116455   -0.368512   -0.877988
 H   -2.493250   -1.762735   -0.005901
 H   -0.806068   -2.420742    0.001376
