22 
3f3e_ligand_dft.xyz
 N   16.214052   15.849847   52.135373
 C   15.110211   16.747298   51.815155
 C   13.847435   15.931149   51.594279
 O   12.750778   16.208278   52.015004
 C   15.272824   17.685160   50.596374
 C   16.416644   18.718779   50.652786
 C   16.456526   19.477274   51.982279
 C   17.792197   18.140682   50.299210
 O   14.070364   14.864391   50.800640
 H   17.000282   16.380628   52.493455
 H   16.527981   15.362927   51.300690
 H   14.904198   17.350474   52.703438
 H   15.386424   17.069561   49.693717
 H   14.325372   18.229720   50.485956
 H   16.181358   19.452336   49.869626
 H   17.167736   20.308535   51.932552
 H   15.473553   19.888549   52.237958
 H   16.772228   18.829323   52.809297
 H   18.531445   18.943646   50.203054
 H   18.160988   17.448800   51.062812
 H   17.760168   17.598879   49.347373
 H   13.215235   14.416765   50.700973
