13 
3f48_ligand_dft.xyz
 N    2.273552   26.276496   12.724664
 C    1.136756   26.901231   13.380375
 C    1.570552   28.273754   13.858435
 O    2.695831   28.566694   14.185013
 C    0.569968   26.130817   14.588815
 O    0.538964   29.131459   13.946351
 H    2.116852   25.277557   12.633291
 H    3.101777   26.411520   13.298806
 H    0.333906   27.041191   12.648252
 H   -0.288749   26.647632   15.029094
 H    0.242061   25.135867   14.269869
 H    1.341396   26.010274   15.357270
 H    0.899133   29.956509   14.309766
