14 
3f48_ligand_xtb.xyz
 N    1.402049   -1.020227    0.140433
 C    0.621639    0.217316    0.433028
 C   -0.826284   -0.157227    0.035805
 O   -1.689762    0.786795    0.240959
 C    1.126232    1.401082   -0.376738
 O   -1.026173   -1.256659   -0.420643
 H    1.831169   -1.451942    0.963479
 H    2.123157   -0.856884   -0.570926
 H    0.650255   -1.669044   -0.255174
 H    0.645372    0.448680    1.500558
 H   -2.599561    0.550002   -0.016633
 H    2.143575    1.656637   -0.091716
 H    0.498026    2.266710   -0.184617
 H    1.091619    1.189317   -1.443108
