87 
3f5j_ligand_dft.xyz
 C  -21.821267   29.162002  -10.511154
 C  -22.290632   28.799032  -11.920205
 C  -21.113711   28.291515  -12.740199
 C  -20.407707   27.154115  -12.009725
 C  -19.215224   26.618063  -12.814694
 C  -21.039699   28.005760   -9.898779
 O  -20.500737   28.417368   -8.694637
 O  -22.929903   29.471135   -9.703877
 O  -22.888474   29.970428  -12.435843
 O  -21.502286   27.772549  -14.005210
 O  -19.970851   27.632828  -10.751801
 O  -18.505262   27.602111  -13.524712
 C  -21.204415   28.110536  -16.318137
 C  -21.519064   29.064031  -17.463036
 C  -23.000755   29.447831  -17.455694
 C  -23.406983   29.940672  -16.062918
 C  -24.888545   30.223133  -15.941003
 C  -21.701036   28.693169  -15.005353
 O  -19.811847   27.908716  -16.204074
 O  -21.114686   28.414773  -18.645112
 O  -23.257417   30.511840  -18.359055
 O  -23.091191   28.946547  -15.105886
 O  -25.092335   30.762690  -14.649716
 C  -24.505766   31.333081  -20.179051
 C  -24.839671   31.105968  -21.651867
 C  -23.557572   30.824568  -22.423675
 C  -22.786313   29.673831  -21.786428
 C  -21.492178   29.369054  -22.550935
 C  -23.653883   30.192834  -19.636998
 O  -25.685181   31.413305  -19.416423
 O  -25.518469   32.269268  -22.070855
 O  -23.797470   30.444281  -23.769769
 O  -22.489409   30.038014  -20.443604
 O  -20.828826   30.511830  -23.025340
 C  -23.316488   31.106405  -25.981735
 C  -23.645056   32.165547  -27.022211
 C  -25.151714   32.379505  -27.132524
 C  -25.710273   32.691887  -25.736491
 C  -27.215913   32.837222  -25.688392
 C  -23.989546   31.468511  -24.666095
 O  -21.926750   31.041318  -25.741375
 O  -23.075652   31.749198  -28.241727
 O  -25.331073   33.446550  -28.047994
 O  -25.382767   31.620663  -24.867782
 O  -27.553787   33.188671  -24.365333
 H  -21.127350   30.013876  -10.583242
 H  -23.032744   27.988183  -11.840281
 H  -20.385047   29.099034  -12.881376
 H  -21.121619   26.324318  -11.857521
 H  -19.586329   25.836667  -13.490071
 H  -18.523007   26.152956  -12.105296
 H  -21.713046   27.135511   -9.770092
 H  -19.971571   27.684875   -8.354785
 H  -23.462020   30.075627  -10.241233
 H  -23.410320   29.747995  -13.225117
 H  -18.931638   27.704307  -14.391574
 H  -21.727282   27.157713  -16.485328
 H  -20.940345   29.990006  -17.309024
 H  -23.603175   28.567728  -17.724984
 H  -22.856843   30.868722  -15.838473
 H  -25.436930   29.277835  -16.074041
 H  -25.185984   30.917678  -16.736581
 H  -21.171439   29.635885  -14.787360
 H  -19.481869   27.728857  -17.095160
 H  -21.307234   29.013853  -19.388487
 H  -26.035241   30.913048  -14.525468
 H  -23.910519   32.254618  -20.093439
 H  -25.493718   30.222249  -21.729807
 H  -22.909444   31.709052  -22.398534
 H  -23.410661   28.764189  -21.782435
 H  -21.743091   28.684899  -23.370655
 H  -20.814134   28.840555  -21.871548
 H  -24.230579   29.250691  -19.650518
 H  -26.251217   32.038733  -19.891162
 H  -25.931126   32.114054  -22.937555
 H  -21.165244   30.698402  -23.917529
 H  -23.706483   30.133025  -26.311556
 H  -23.196848   33.118937  -26.695069
 H  -25.611261   31.452848  -27.506742
 H  -25.260320   33.629188  -25.371481
 H  -27.674159   31.881857  -25.986236
 H  -27.521739   33.614964  -26.404046
 H  -23.569683   32.413652  -24.282874
 H  -21.487914   30.966143  -26.599353
 H  -23.283969   32.432885  -28.892415
 H  -26.194806   33.361572  -28.465522
 H  -28.512269   33.170458  -24.271606
