87 
3f5j_ligand_xtb.xyz
 O  -10.585911    0.700540   -0.030144
 C   -9.354922    0.218856   -0.439473
 C   -8.352413    1.362983   -0.667868
 O   -8.878527    2.206583   -1.660935
 C   -6.996969    0.778722   -1.067852
 O   -6.077910    1.839362   -1.184185
 O   -8.892793   -0.629617    0.572101
 C   -7.678967   -1.275040    0.248099
 C   -7.312840   -2.150151    1.455636
 O   -7.194806   -1.376863    2.618263
 C   -6.559016   -0.252959   -0.019834
 O   -5.415463   -0.960141   -0.487254
 C   -4.234753   -0.705685    0.177558
 C   -3.228936   -1.803380   -0.179160
 O   -3.679582   -3.002384    0.383112
 C   -1.832921   -1.449202    0.357381
 O   -0.949907   -2.419295   -0.149918
 O   -3.763022    0.560817   -0.252288
 C   -2.543873    0.962106    0.340682
 C   -2.252822    2.387771   -0.149111
 O   -3.175125    3.312190    0.349285
 C   -1.425079   -0.019722   -0.039741
 O   -0.251365    0.380850    0.653277
 C    0.941279    0.345167   -0.030422
 C    1.895806    1.339303    0.636771
 O    1.402723    2.622322    0.375528
 C    3.327809    1.194203    0.097732
 O    4.130650    2.020091    0.897119
 O    1.453311   -0.980810    0.032300
 C    2.710577   -1.145280   -0.578073
 C    3.038158   -2.647039   -0.524106
 O    4.145441   -3.005053   -1.306471
 C    3.773708   -0.279237    0.118867
 O    4.984318   -0.481286   -0.591966
 C    6.174275   -0.380455    0.111381
 C    7.209242   -1.253285   -0.612688
 O    6.884201   -2.611768   -0.521636
 C    8.579621   -1.062032    0.044092
 O    9.587747   -1.725695   -0.674201
 C    8.948975    0.424094    0.115630
 O   10.104537    0.608649    0.887442
 O    6.572072    0.975038    0.132596
 C    7.817117    1.217976    0.776575
 C    8.068727    2.728326    0.669741
 O    8.062877    3.164109   -0.659566
 H  -10.746219    1.521112   -0.514781
 H   -9.454470   -0.353175   -1.387640
 H   -8.233783    1.915258    0.278665
 H   -8.165656    2.793736   -1.942093
 H   -7.098269    0.264302   -2.038064
 H   -5.188190    1.452314   -1.137798
 H   -7.798495   -1.900800   -0.648798
 H   -6.345067   -2.624152    1.279146
 H   -8.084100   -2.921154    1.577098
 H   -8.028450   -0.899019    2.722381
 H   -6.329387    0.267840    0.918490
 H   -4.378412   -0.692763    1.274347
 H   -3.180978   -1.880002   -1.275963
 H   -2.981542   -3.657292    0.250081
 H   -1.856822   -1.497978    1.458508
 H   -0.044283   -2.126473    0.042970
 H   -2.643480    0.969432    1.435999
 H   -2.253062    2.384155   -1.248421
 H   -1.268535    2.692815    0.211920
 H   -4.062008    3.055300    0.064353
 H   -1.261358    0.019294   -1.125540
 H    0.812746    0.632692   -1.092577
 H    1.900746    1.131458    1.716410
 H    2.027187    3.252489    0.759157
 H    3.347854    1.539505   -0.950306
 H    5.062324    1.870757    0.653992
 H    2.661035   -0.823877   -1.633652
 H    3.281447   -2.936855    0.499611
 H    2.140527   -3.196188   -0.837323
 H    3.987815   -2.746617   -2.222290
 H    3.885056   -0.603986    1.163140
 H    6.057932   -0.744956    1.151666
 H    7.253152   -0.923429   -1.662780
 H    5.958703   -2.745900   -0.794277
 H    8.523749   -1.464243    1.070022
 H    9.275531   -2.623304   -0.842840
 H    9.101100    0.798758   -0.908284
 H   10.780682    0.019969    0.528387
 H    7.757230    0.925179    1.834750
 H    7.305389    3.257155    1.258223
 H    9.058214    2.946553    1.072926
 H    7.245720    2.854733   -1.069370
