45 
3f5l_ligand_xtb.xyz
 O   -4.386193   -2.364866    0.343580
 C   -3.520933   -1.301863    0.555439
 C   -2.138147   -1.712713    0.023536
 O   -1.613820   -2.782022    0.764451
 O   -4.014248   -0.177068   -0.116554
 C   -3.191514    0.967621    0.034059
 C   -3.888412    2.121952   -0.694036
 O   -5.135871    2.415122   -0.132583
 C   -1.785621    0.722346   -0.529800
 O   -1.016626    1.865586   -0.285230
 C   -1.173315   -0.530607    0.123273
 O    0.028765   -0.913688   -0.533073
 C    1.220956   -0.580166    0.081941
 C    2.303191   -1.488919   -0.513099
 O    2.071373   -2.829948   -0.170646
 C    3.672196   -1.075970    0.034793
 O    4.715140   -1.773629   -0.598430
 C    3.904297    0.425714   -0.188145
 O    5.092998    0.843979    0.420725
 O    1.511492    0.777975   -0.168212
 C    2.733776    1.215052    0.409438
 C    2.852246    2.719853    0.142282
 O    1.930180    3.468897    0.880317
 H   -5.290450   -2.030475    0.359448
 H   -3.432726   -1.076742    1.641409
 H   -2.249408   -1.989809   -1.035331
 H   -2.286706   -3.474248    0.792785
 H   -3.101520    1.215683    1.103291
 H   -3.274818    3.018311   -0.601130
 H   -3.987961    1.854335   -1.754808
 H   -5.655311    1.602375   -0.135403
 H   -1.861148    0.530234   -1.612714
 H   -0.083783    1.623491   -0.432661
 H   -0.966803   -0.328200    1.183173
 H    1.168193   -0.746532    1.177654
 H    2.289789   -1.357858   -1.606703
 H    1.124031   -3.001951   -0.255624
 H    3.686934   -1.283707    1.117986
 H    4.479168   -2.709251   -0.595417
 H    3.941403    0.608751   -1.274517
 H    5.777889    0.210566    0.168463
 H    2.710462    1.046946    1.496665
 H    3.844554    3.044302    0.458804
 H    2.737108    2.892653   -0.936078
 H    1.033261    3.214616    0.627874
