45 
3f5l_ligand_dft.xyz
 C   42.289346   28.855352    4.924714
 C   43.612123   28.817372    5.661930
 C   43.473716   28.215090    7.052588
 C   42.746059   26.866972    6.935538
 C   42.437314   26.259028    8.289752
 C   41.708615   27.444185    4.909120
 O   40.461892   27.409169    4.300276
 O   42.445803   29.287613    3.592279
 O   44.090230   30.157568    5.724248
 O   44.738731   27.979398    7.631426
 O   41.528007   27.010460    6.228194
 O   41.703763   27.189509    9.056836
 C   45.481703   31.761920    4.726508
 C   46.936836   32.127471    4.473107
 C   47.729645   31.978664    5.761407
 C   47.571711   30.543029    6.278658
 C   48.388207   30.278812    7.532358
 C   45.396338   30.384624    5.372708
 O   44.741458   31.695823    3.526712
 O   46.963202   33.447120    3.978324
 O   49.076702   32.305795    5.482582
 O   46.193944   30.319936    6.547662
 O   48.388585   31.440408    8.342322
 H   41.582012   29.494318    5.474181
 H   44.322215   28.206232    5.085181
 H   42.865344   28.884211    7.674939
 H   43.413588   26.168313    6.400335
 H   41.866563   25.334036    8.123565
 H   43.394041   26.004866    8.767139
 H   42.418723   26.767282    4.390755
 H   40.510480   28.027604    3.557746
 H   42.934403   30.126666    3.609363
 H   45.235199   28.812429    7.583918
 H   41.536598   26.796503    9.919605
 H   45.045849   32.492318    5.423095
 H   47.348784   31.429606    3.723981
 H   47.310694   32.656420    6.514332
 H   47.911001   29.836953    5.502266
 H   47.954332   29.414579    8.052126
 H   49.411585   30.017542    7.227541
 H   45.753396   29.625855    4.653623
 H   44.894873   32.526546    3.057229
 H   47.895062   33.700128    3.928178
 H   49.486123   32.524449    6.329908
 H   48.756207   31.211823    9.202742
