23 
3f6g_ligand_xtb.xyz
 N    0.757354    1.619523   -0.786110
 C    0.589941    0.727404    0.394412
 C    1.619543   -0.397310    0.162810
 O    1.630524   -1.304548    1.091895
 C   -0.847636    0.188540    0.517130
 C   -1.287241   -0.530672   -0.768473
 C   -1.798887    1.319636    0.899472
 C   -2.470793   -1.461887   -0.523457
 O    2.316098   -0.348198   -0.822528
 H   -0.090336    1.598787   -1.367176
 H    1.554517    1.154050   -1.315085
 H    0.997777    2.585927   -0.554736
 H    0.860691    1.252437    1.314419
 H    2.288106   -2.007608    0.941395
 H   -0.830315   -0.541742    1.331044
 H   -1.578863    0.193293   -1.535719
 H   -0.458415   -1.125553   -1.160274
 H   -2.790052    0.919029    1.084726
 H   -1.887566    2.064625    0.110903
 H   -1.470871    1.812916    1.810632
 H   -3.346356   -0.908511   -0.198264
 H   -2.725914   -1.985601   -1.440081
 H   -2.226419   -2.201001    0.234681
