23 
3f6h_ligand_xtb.xyz
 N    0.756478    1.620777   -0.784621
 C    0.590430    0.727947    0.395371
 C    1.619632   -0.396883    0.161837
 O    2.312409   -0.349262   -0.826283
 C   -0.846864    0.188295    0.518379
 C   -1.284025   -0.536039   -0.765018
 C   -1.800078    1.319718    0.895183
 C   -2.473581   -1.460198   -0.521868
 O    1.634834   -1.302400    1.092431
 H    1.001710    2.585967   -0.552912
 H    1.549867    1.153005   -1.317161
 H   -0.093714    1.604470   -1.361875
 H    0.861757    1.252034    1.315780
 H   -0.829525   -0.538792    1.335088
 H   -0.456095   -1.137081   -1.149206
 H   -1.567602    0.184966   -1.538167
 H   -1.891117    2.059947    0.102409
 H   -1.472787    1.818783    1.803429
 H   -2.790137    0.917718    1.083055
 H   -3.349983   -0.900747   -0.209537
 H   -2.239133   -2.193710    0.244725
 H   -2.722353   -1.990843   -1.436271
 H    2.292741   -2.004900    0.940506
