70 
3f7g_ligand_dft.xyz
 N   24.067916   49.808281   -5.052776
 C   23.869803   49.006347   -3.858803
 C   23.075538   49.698881   -2.735980
 C   23.120470   47.731885   -4.254976
 O   22.375882   47.686915   -5.224219
 N   23.324737   46.684051   -3.416011
 C   22.475709   45.515377   -3.416073
 C   23.242052   44.259603   -3.912334
 C   23.718315   44.474540   -5.349239
 C   24.403743   43.895939   -2.987450
 C   21.974791   45.338285   -1.978969
 O   22.496591   45.993996   -1.071805
 N   21.035847   44.401432   -1.726880
 C   20.630619   44.113850   -0.334638
 C   19.274330   43.427085   -0.484072
 C   19.355559   42.769374   -1.864198
 C   20.111330   43.801653   -2.698831
 C   21.683820   43.196178    0.334049
 O   21.483386   42.007269    0.536190
 C   24.010213   43.189782    1.158453
 N   22.823133   43.848400    0.659521
 C   24.862199   44.194833    1.963263
 C   26.080200   43.501288    2.570214
 C   27.395474   43.875666    2.294944
 C   28.466827   43.205242    2.882654
 C   28.242360   42.151854    3.760485
 C   26.933587   41.777828    4.056134
 C   25.868210   42.448319    3.468567
 C   25.163599   45.425078    1.120520
 C   25.829329   45.328954   -0.106141
 C   26.051192   46.456712   -0.889991
 C   25.592985   47.703523   -0.469844
 C   24.918633   47.811304    0.741844
 C   24.713132   46.681550    1.528730
 H   23.271978   49.655280   -5.668187
 H   24.099010   50.794975   -4.817569
 H   24.848961   48.711438   -3.454625
 H   22.972354   49.054743   -1.855079
 H   23.586732   50.617675   -2.426985
 H   22.074017   49.963571   -3.092415
 H   23.780485   46.861612   -2.526895
 H   21.640959   45.713332   -4.098105
 H   22.541149   43.417730   -3.909038
 H   24.455372   45.282626   -5.393984
 H   24.187674   43.563391   -5.735018
 H   22.889795   44.746333   -6.010730
 H   25.141370   44.704330   -2.960687
 H   24.067350   43.708853   -1.961579
 H   24.906323   42.992805   -3.348409
 H   20.572525   45.056247    0.218472
 H   19.109886   42.702601    0.314220
 H   18.475889   44.176376   -0.460245
 H   19.939603   41.847417   -1.790182
 H   18.378027   42.533451   -2.291145
 H   19.433650   44.571196   -3.091410
 H   20.640843   43.352552   -3.539902
 H   23.697285   42.350520    1.782937
 H   24.606240   42.770448    0.335325
 H   22.912932   44.804165    0.322323
 H   24.232073   44.526636    2.799045
 H   27.594669   44.705091    1.625049
 H   29.481863   43.515613    2.652028
 H   29.077917   41.630262    4.217568
 H   26.741139   40.964501    4.749706
 H   24.852443   42.153717    3.721335
 H   26.182751   44.361266   -0.452767
 H   26.583266   46.362117   -1.832690
 H   25.766701   48.585378   -1.080452
 H   24.551386   48.776403    1.077627
 H   24.182873   46.775074    2.473127
