81 
3f7h_ligand_xtb.xyz
 O    0.028620   -1.806425    0.954362
 C    0.789553   -2.306686    0.139620
 C    0.199301   -3.244330   -0.944171
 N   -1.246509   -2.910202   -0.943766
 C   -2.119559   -3.778978   -1.733510
 C    0.793070   -3.009489   -2.324396
 N    2.096029   -2.088094    0.093156
 C    2.728223   -0.961435    0.752180
 C    3.684951   -1.389665    1.899300
 C    4.529846   -0.180087    2.305337
 C    4.598855   -2.529334    1.447876
 C    2.836782   -1.847810    3.087481
 C    3.487222   -0.245458   -0.375941
 O    4.220402   -0.890225   -1.106214
 N    3.309097    1.076226   -0.534281
 C    2.220581    1.896975   -0.068488
 C    4.044108    1.795653   -1.563251
 C    3.949677    3.259020   -1.134217
 C    2.699818    3.353266   -0.238372
 C    1.517593    4.091710   -0.867886
 C    0.852928    3.050559   -1.763299
 C    0.967298    1.733967   -0.981873
 N   -0.212611    1.460411   -0.194057
 C   -1.063479    0.457280   -0.421502
 O   -0.909484   -0.340983   -1.349557
 C   -2.181362    0.372314    0.603762
 C   -3.197368   -0.700684    0.290364
 C   -4.024301   -0.601161   -0.821579
 C   -4.990284   -1.562813   -1.064487
 C   -5.139652   -2.636457   -0.200551
 C   -4.309807   -2.750158    0.903626
 C   -3.341578   -1.788788    1.145729
 C   -2.890860    1.700141    0.779025
 C   -3.410434    2.038280    2.021942
 C   -4.105299    3.222403    2.192717
 C   -4.287716    4.081703    1.122403
 C   -3.774367    3.750911   -0.119879
 C   -3.081963    2.565065   -0.292330
 H    0.325249   -4.288990   -0.636026
 H   -1.301112   -1.874918   -1.248680
 H   -1.549900   -2.869074    0.046041
 H   -1.911454   -3.657767   -2.793540
 H   -1.968958   -4.821625   -1.456151
 H   -3.157707   -3.510256   -1.549722
 H    0.632188   -1.977021   -2.626237
 H    0.334637   -3.667895   -3.057361
 H    1.859280   -3.214016   -2.337149
 H    2.692928   -2.528303   -0.595026
 H    1.925972   -0.353762    1.172630
 H    5.204779    0.107200    1.502958
 H    3.900900    0.672244    2.554651
 H    5.127567   -0.426447    3.178785
 H    5.353710   -2.714086    2.207154
 H    5.103135   -2.275671    0.519300
 H    4.032988   -3.447365    1.304923
 H    2.155773   -2.642972    2.793568
 H    3.479249   -2.222665    3.879416
 H    2.248181   -1.024272    3.485585
 H    1.965133    1.669419    0.967102
 H    5.065471    1.418234   -1.604037
 H    3.582085    1.628210   -2.542022
 H    3.878807    3.918084   -1.996267
 H    4.835657    3.541269   -0.568119
 H    2.963193    3.798342    0.721119
 H    1.833089    4.973301   -1.421008
 H    0.825912    4.414729   -0.087839
 H    1.393498    2.963816   -2.704752
 H   -0.184235    3.293945   -1.987770
 H    1.086291    0.876883   -1.650904
 H   -0.445483    2.126454    0.528742
 H   -1.690275    0.103710    1.547071
 H   -3.930106    0.241382   -1.488274
 H   -5.638389   -1.465937   -1.921800
 H   -5.906247   -3.374363   -0.380116
 H   -4.427462   -3.578235    1.586142
 H   -2.709445   -1.869113    2.018801
 H   -3.274457    1.367986    2.858230
 H   -4.505872    3.472745    3.162802
 H   -4.830323    5.004570    1.254821
 H   -3.916012    4.414741   -0.959181
 H   -2.687238    2.314681   -1.267717
