74 
3f7i_ligand_xtb.xyz
 O   -0.847735   -0.297842   -1.937987
 C   -1.243012    0.601909   -1.178218
 C   -2.637436    0.631720   -0.677977
 C   -3.623839    0.398469   -1.612744
 C   -4.977373    0.498351   -1.274685
 C   -5.336159    0.818082    0.005619
 C   -4.360057    1.012883    1.004859
 C   -4.728405    1.298969    2.336934
 C   -2.980291    0.907974    0.673812
 C   -2.030750    1.030474    1.710070
 C   -2.422575    1.290757    2.994071
 C   -3.780676    1.444374    3.309814
 N   -0.459547    1.625528   -0.829448
 C    0.890849    1.801928   -1.313903
 C    1.933826    1.808479   -0.151889
 C    2.614985    3.191109   -0.189232
 C    1.661344    4.079863   -0.986950
 C    1.067022    3.144642   -2.036582
 C    3.976370    2.941799   -0.866670
 C    3.967860    1.471963   -1.287039
 N    2.986125    0.858500   -0.405701
 C    2.994323   -0.470017   -0.204083
 O    3.762846   -1.208499   -0.795145
 C    2.008084   -1.064006    0.810908
 C    2.736062   -1.505663    2.111594
 C    1.678332   -1.832777    3.167821
 C    3.607469   -2.735160    1.853727
 C    3.609048   -0.347234    2.599794
 N    1.380204   -2.168012    0.111233
 C    0.065958   -2.289498    0.020123
 O   -0.740269   -1.671317    0.702591
 C   -0.500205   -3.247581   -1.060820
 C    0.348946   -3.339259   -2.315711
 N   -1.819717   -2.631236   -1.350813
 C   -2.789632   -3.421111   -2.104743
 H   -3.342169    0.182276   -2.634034
 H   -5.726762    0.339302   -2.034322
 H   -6.377025    0.919147    0.273760
 H   -5.778174    1.387991    2.572771
 H   -0.987342    0.869461    1.491246
 H   -1.685391    1.373005    3.778369
 H   -4.068830    1.659144    4.327060
 H   -0.854330    2.367769   -0.270494
 H    1.077142    0.954799   -1.980294
 H    1.441780    1.620590    0.802597
 H    2.764423    3.587442    0.815142
 H    2.169635    4.932472   -1.431160
 H    0.877536    4.461087   -0.329947
 H    1.762198    3.023462   -2.866001
 H    0.123095    3.510172   -2.438455
 H    4.784040    3.125433   -0.160389
 H    4.125546    3.594981   -1.723167
 H    3.665624    1.350248   -2.332583
 H    4.928001    0.974310   -1.154111
 H    1.210242   -0.370394    1.078542
 H    1.096998   -0.949771    3.424015
 H    2.157397   -2.200958    4.070812
 H    0.993000   -2.596446    2.808293
 H    4.269818   -2.568916    1.008373
 H    2.993817   -3.611146    1.655426
 H    4.216239   -2.941658    2.729690
 H    3.024671    0.563407    2.716076
 H    4.421206   -0.153957    1.903469
 H    4.042719   -0.596374    3.564546
 H    2.017087   -2.681336   -0.484127
 H   -0.659428   -4.239186   -0.620379
 H    1.295689   -3.829684   -2.109338
 H    0.543077   -2.345850   -2.713128
 H   -0.155505   -3.930391   -3.075938
 H   -2.178132   -2.349517   -0.417300
 H   -1.573500   -1.674547   -1.809656
 H   -2.967980   -4.377873   -1.614837
 H   -3.729724   -2.877269   -2.166890
 H   -2.425267   -3.602059   -3.113595
