24 
3f80_ligand_dft.xyz
 N   17.062085  -15.920872   41.713485
 N   22.423178  -12.248075   40.221992
 C   22.359885  -12.350030   41.670888
 C   23.381101  -13.379304   42.126293
 O   23.222098  -13.722495   43.416778
 O   24.271825  -13.821745   41.440991
 C   20.934194  -12.690741   42.135379
 C   20.439159  -14.039752   41.618498
 C   18.963217  -14.272544   41.947070
 C   18.506216  -15.620773   41.426515
 O   16.674810  -17.035585   41.405800
 O   16.373812  -15.049831   42.216631
 H   22.165179  -11.315035   39.921080
 H   23.368180  -12.439428   39.903741
 H   22.660840  -11.420414   42.187812
 H   20.891619  -12.661113   43.229537
 H   20.273968  -11.894633   41.767826
 H   20.601851  -14.076768   40.535425
 H   21.043639  -14.842767   42.062445
 H   18.801171  -14.224384   43.029441
 H   18.348949  -13.483370   41.501695
 H   19.057780  -16.454903   41.866770
 H   18.596904  -15.701063   40.339594
 H   23.937339  -14.345374   43.623315
