21 
3f81_ligand_dft.xyz
 O   -3.318187   -1.406188    0.772593
 S   -3.105165   -0.336033   -0.171958
 O   -3.859087   -0.226001   -1.405355
 O   -3.304144    1.052613    0.646127
 C   -1.359558   -0.256973   -0.559987
 C   -0.497858   -0.233844    0.700768
 N    0.910729   -0.121793    0.348506
 C    1.685583   -1.281481    0.207177
 O    1.248859   -2.398373    0.349456
 C    1.526091    1.082814    0.103824
 S    0.828719    2.564732    0.148355
 S    3.230189    0.839202   -0.285617
 C    3.086119   -0.912686   -0.140669
 C    4.036838   -1.829865   -0.306130
 H   -3.735123    1.690081    0.054464
 H   -1.207549    0.637680   -1.168841
 H   -1.153475   -1.146978   -1.161692
 H   -0.619663   -1.162792    1.259178
 H   -0.760642    0.615555    1.333517
 H    5.060154   -1.574623   -0.558154
 H    3.778485   -2.876976   -0.182956
