55 
3f82_ligand_xtb.xyz
 C   -6.238965   -1.938793   -0.999630
 C   -4.829779   -2.599451    0.842681
 C    1.318251   -0.612892   -0.405870
 C    2.692418   -0.691348   -0.482876
 C   -6.723037   -3.229512   -1.101035
 C   -5.303984   -3.893812    0.742985
 C    5.144280   -1.122657    1.345697
 C    1.450938    1.769454   -0.108789
 C    6.028110   -1.969714    1.980297
 C   -5.297690   -1.622661   -0.027280
 C    0.677956    0.614325   -0.213321
 C    3.474322    0.453432   -0.365057
 C    5.579493   -0.462964    0.191170
 C   -6.245941   -4.189750   -0.226402
 C    2.824917    1.672753   -0.184003
 C    6.876495   -0.703422   -0.243402
 C    7.698690   -1.589603    0.473647
 C   -5.316729    2.017238    0.218858
 C   -5.705726    0.721732    0.161703
 C   -2.997098    1.298999    0.102783
 C   -3.931075    2.335164    0.187729
 C   -3.431309   -0.067855    0.013831
 C   -1.539141    1.655277    0.130808
 C   -3.524195    5.938940    0.332599
 C   -4.379492    4.682396    0.313798
 N    7.262543   -2.204631    1.569585
 N   -4.817624   -0.286882    0.070090
 N    8.949585   -1.888900    0.043703
 N   -0.705008    0.613843   -0.153837
 O   -2.707329   -1.054077   -0.120107
 O   -1.151859    2.775767    0.393247
 O    4.842641    0.439631   -0.501971
 O   -3.489471    3.582341    0.224643
 F   -6.714602   -5.447262   -0.321818
 F    3.560669    2.795537   -0.074951
Cl    7.477595    0.103786   -1.655061
 H   -6.581794   -1.178217   -1.685227
 H   -4.093621   -2.347148    1.588080
 H    0.724377   -1.509809   -0.498920
 H    3.176802   -1.643648   -0.639896
 H   -7.451631   -3.497183   -1.849352
 H   -4.953713   -4.668967    1.405060
 H    4.153108   -0.951947    1.733090
 H    0.988054    2.730575    0.039134
 H    5.738052   -2.492712    2.881172
 H   -6.061397    2.788844    0.298105
 H   -6.747090    0.436789    0.202088
 H   -2.833618    5.896695    1.169339
 H   -2.944210    6.003440   -0.583073
 H   -4.154875    6.818475    0.424709
 H   -5.057294    4.693154   -0.550579
 H   -4.974585    4.612418    1.234140
 H    9.370718   -1.283441   -0.640089
 H    9.540704   -2.385239    0.686390
 H   -1.160297   -0.295869   -0.266020
