42 
3f8e_ligand_xtb.xyz
 C    2.472920   -3.040810   -1.455969
 C    2.531357   -1.615453   -0.908082
 C    3.781093   -0.907987   -1.425836
 C    2.496165   -1.656002    0.620567
 C    2.316451   -0.289892    1.295973
 O    2.294342   -0.544393    2.693775
 C    1.043587    0.386517    0.840034
 C   -0.177888   -0.081598    1.285845
 C    1.063794    1.497156   -0.015668
 O    2.290358    1.955746   -0.404461
 C    2.348172    3.069832   -1.261676
 C   -0.134876    2.061958   -0.416069
 C   -1.359690    1.560289    0.023519
 O   -2.463154    2.197696   -0.435444
 C   -1.389849    0.483720    0.911618
 C   -2.664841   -0.075694    1.492140
 C   -3.164164   -1.308912    0.728999
 C   -3.896232   -0.950842   -0.534528
 O   -4.080030   -2.005195   -1.327978
 O   -4.308908    0.147390   -0.815915
 H    1.568305   -3.545884   -1.124647
 H    2.481559   -3.033174   -2.543690
 H    3.331222   -3.613225   -1.110459
 H    1.648781   -1.069816   -1.260950
 H    3.787723    0.133160   -1.118626
 H    3.810633   -0.943214   -2.513065
 H    4.676755   -1.392493   -1.042494
 H    3.418288   -2.097514    1.002534
 H    1.668189   -2.287647    0.948192
 H    3.169096    0.359409    1.057188
 H    2.120430    0.285130    3.150660
 H   -0.177790   -0.914291    1.974995
 H    1.865610    2.862031   -2.221668
 H    1.888190    3.952235   -0.806323
 H    3.408149    3.259642   -1.425328
 H   -0.172727    2.908100   -1.082019
 H   -3.249394    1.627589   -0.373162
 H   -2.468772   -0.367557    2.525189
 H   -3.452665    0.680812    1.504420
 H   -2.338639   -1.976147    0.477419
 H   -3.868672   -1.875940    1.343954
 H   -4.571122   -1.754863   -2.127135
