67 
3f8f_ligand_dft.xyz
 C   14.912005   18.446710    4.712125
 C   16.038870   19.232955    4.881819
 C   17.294079   18.649668    5.012613
 C   17.445583   17.259332    4.956980
 O   18.634117   16.650714    5.103230
 C   16.306765   16.441657    4.766435
 C   16.422402   14.955621    4.602918
 O   17.477278   14.426447    4.317005
 C   15.168391   14.158232    4.755215
 C   15.217069   12.781111    4.956546
 O   16.395395   12.147318    5.125606
 C   14.016598   12.021883    4.985174
 C   14.140649   10.510959    5.054906
 O   14.879186   10.213459    6.247712
 C   12.802504    9.777412    4.942737
 C   11.656678   10.516594    5.637273
 O   11.994027   10.631667    7.011227
 C   10.375595    9.680666    5.444773
 O    9.877896    9.582359    4.343589
 C    9.810018    8.982644    6.658026
 C   11.485818   11.884062    4.978724
 C   12.784225   12.641769    4.893230
 C   12.723973   14.039961    4.715847
 O   11.501834   14.581751    4.621463
 C   13.904251   14.792242    4.647009
 C   13.813313   16.249772    4.533275
 O   12.724988   16.820522    4.387369
 C   15.052435   17.060462    4.664471
 C   19.785519   17.437327    5.312956
 C   15.518776    8.945877    6.312988
 C   16.570871    9.038532    7.409539
 C   15.905862    9.163556    8.780645
 N   16.928228    9.205312    9.818630
 C   14.958777    7.976526    8.974048
 O   15.731076    6.800613    9.062941
 C   13.953018    7.948052    7.809858
 O   14.618950    7.901877    6.545797
 C   13.039302    6.735801    7.836907
 H   13.922670   18.878316    4.619696
 H   15.949001   20.314207    4.921565
 H   18.157422   19.287456    5.158012
 H   16.195905   11.355481    5.656871
 H   14.763681   10.193875    4.202493
 H   12.536157    9.682281    3.885026
 H   12.925061    8.768435    5.340779
 H   11.563812   11.416654    7.370403
 H    8.988263    8.334005    6.351747
 H   10.587330    8.408965    7.171443
 H    9.445774    9.721488    7.380575
 H   11.052982   11.738842    3.982852
 H   10.752027   12.486782    5.529089
 H   11.632428   15.551179    4.486928
 H   20.609598   16.729312    5.399752
 H   19.974136   18.109337    4.466430
 H   19.712028   18.024840    6.237166
 H   15.966605    8.716048    5.337012
 H   17.177091    8.129292    7.397503
 H   17.232695    9.891346    7.220068
 H   15.262608   10.059866    8.770029
 H   16.497721    9.131199   10.736567
 H   17.401514   10.104265    9.788930
 H   14.380771    8.132907    9.903414
 H   15.137726    6.063106    9.243552
 H   13.349639    8.864606    7.861377
 H   12.316888    6.785636    7.017146
 H   13.615328    5.814164    7.704236
 H   12.486819    6.686688    8.781731
