19 
3fas_ligand_dft.xyz
 N   88.179877   -7.843852   -9.954454
 C   87.738709   -7.408389  -11.267263
 C   88.568893   -6.250853  -11.815095
 O   89.343446   -5.588641  -11.166766
 C   86.256581   -6.998767  -11.227842
 C   85.369384   -8.164867  -10.812454
 C   83.935237   -7.752416  -10.607068
 O   83.512851   -6.620506  -10.612352
 O   83.136968   -8.818410  -10.396024
 O   88.333193   -6.026732  -13.120869
 H   89.118400   -8.228364  -10.017401
 H   88.263433   -7.025764   -9.354258
 H   87.847271   -8.246063  -11.967420
 H   86.129600   -6.173056  -10.517838
 H   85.952420   -6.619503  -12.207731
 H   85.393538   -8.970725  -11.555680
 H   85.741445   -8.604101   -9.879901
 H   82.244153   -8.463771  -10.258086
 H   88.875602   -5.262220  -13.373497
