23 
3fat_ligand_dft.xyz
 N   63.085349   69.807781   52.573362
 C   62.919110   68.370011   52.708408
 C   62.737851   68.005957   54.169782
 O   61.931863   67.222673   54.604690
 O   63.648662   68.622751   54.952667
 C   64.075853   67.507198   52.130111
 C   64.273178   67.757063   50.671920
 C   63.509460   67.222843   49.593387
 C   65.152739   68.568496   50.022739
 C   66.251836   69.453352   50.492930
 O   62.494428   66.362165   49.748154
 N   63.893408   67.654742   48.422005
 O   64.947952   68.515775   48.695920
 H   63.180760   70.046228   51.590264
 H   63.931567   70.109337   53.048788
 H   61.991792   68.080026   52.207371
 H   63.474876   68.326485   55.860302
 H   64.995691   67.735670   52.681308
 H   63.851003   66.447362   52.295823
 H   66.067587   70.491608   50.199335
 H   66.331368   69.408750   51.581484
 H   67.208587   69.147004   50.058955
 H   62.146079   66.148723   48.870298
