97 
3fc2_ligand_xtb.xyz
 C   -6.094348   -2.270167   -0.653443
 C   -4.772887   -3.030210   -0.554788
 C   -5.726287   -2.195645    1.743362
 C   -4.207093   -2.061415    1.585512
 C   -6.259221    1.785137   -1.056592
 C   -7.091067    0.604959   -0.535239
 C   -6.184306    2.205554    1.443667
 C   -6.267543    0.703166    1.789593
 C   -0.844548    0.645134   -0.294726
 C   -0.015959    3.295976   -0.284121
 C   -1.807998    1.661784   -0.287151
 C   -1.356132    3.001764   -0.295838
 C    6.059671   -1.936076    0.311011
 N    7.112744    0.211132   -0.251082
 C    5.866172    0.808515   -0.145318
 C    6.232554   -2.252059    1.814871
 C    6.158494   -1.015945    2.701693
 C    3.626248   -2.207029   -0.052148
 C    2.929216   -2.057667   -1.404660
 C    2.672687   -2.003346    1.126773
 C    8.274806    1.021309   -0.559319
 C   -0.343241    5.662415   -0.408642
 C   -3.213806    1.321848   -0.304331
 O   -3.621682    0.176930   -0.672032
 O    0.511746    4.544792   -0.314253
 C    0.954169    2.245338   -0.241845
 N    2.250426    2.617631   -0.203293
 C    3.442547    1.923968   -0.160854
 N    3.476138    0.596396   -0.106473
 C    4.681577    0.017431   -0.067778
 N    4.780645   -1.322085    0.019332
 N    4.483784    2.738502   -0.165684
 C    5.688447    2.179402   -0.172250
 C    7.274006   -1.135978   -0.140303
 O    8.331227   -1.689238   -0.335984
 C    0.499296    0.924892   -0.262489
 N   -4.065435    2.275997    0.134220
 C   -5.514759    2.499161    0.087630
 C   -6.193940   -0.085331    0.487876
 N   -6.455724   -1.564791    0.618262
 N   -3.758254   -2.263632    0.185631
 C   -2.420071   -2.920326    0.109818
 C   -1.908827   -2.956029   -1.310264
 C   -0.752249   -3.858645   -1.632846
 C   -2.113731   -4.181070   -2.158490
 H   -6.881116   -2.975127   -0.927253
 H   -6.011660   -1.526916   -1.446444
 H   -4.407005   -3.213042   -1.567276
 H   -4.896967   -4.001188   -0.066809
 H   -6.019446   -3.247221    1.787402
 H   -6.027306   -1.734586    2.685233
 H   -3.742294   -2.812226    2.230761
 H   -3.861982   -1.080170    1.917041
 H   -6.912404    2.494463   -1.560505
 H   -5.533055    1.432117   -1.789189
 H   -7.374560   -0.029657   -1.373346
 H   -8.012780    0.957199   -0.070895
 H   -7.184901    2.632743    1.399486
 H   -5.647170    2.729561    2.233278
 H   -7.203806    0.512761    2.318090
 H   -5.442317    0.451409    2.456076
 H   -1.166722   -0.383319   -0.312297
 H   -2.061045    3.814323   -0.380829
 H    6.117019   -2.886099   -0.235954
 H    7.203613   -2.733926    1.934870
 H    5.464655   -2.968233    2.114281
 H    5.214066   -0.490546    2.568060
 H    6.240232   -1.307381    3.745665
 H    6.972450   -0.329778    2.481304
 H    4.021886   -3.226376    0.007603
 H    2.551278   -1.049059   -1.533873
 H    3.632957   -2.266520   -2.206578
 H    2.107162   -2.764865   -1.473573
 H    2.360294   -0.966346    1.184408
 H    1.799450   -2.640102    1.004412
 H    3.163301   -2.266942    2.059771
 H    8.107405    1.598766   -1.468432
 H    8.503829    1.694250    0.267725
 H    9.111532    0.340993   -0.709936
 H   -0.997616    5.740424    0.464831
 H   -0.942408    5.631288   -1.323211
 H    0.313874    6.528887   -0.440678
 H    2.415484    3.619999   -0.220202
 H    6.514100    2.872185   -0.208003
 H    1.231074    0.137402   -0.256570
 H   -3.581425    3.090219    0.482157
 H   -5.612984    3.577196   -0.074921
 H   -5.175290   -0.008943    0.095726
 H   -7.460380   -1.679523    0.791420
 H   -3.613979   -1.270945   -0.266409
 H   -2.495204   -3.935169    0.509502
 H   -1.740582   -2.344867    0.744566
 H   -1.928420   -1.993628   -1.807238
 H   -0.351514   -4.474680   -0.843403
 H   -0.008834   -3.497079   -2.323671
 H   -2.625628   -5.030495   -1.731591
 H   -2.296725   -4.050032   -3.213052
