44 
3fck_ligand_dft.xyz
 C   -7.138221   -1.560214   -0.691144
 C   -5.794599   -1.874986   -0.857818
 C   -4.817704   -0.900011   -0.633842
 C   -5.197286    0.382336   -0.248288
 C   -6.542987    0.703427   -0.083338
 C   -7.512174   -0.276203   -0.300994
 C   -1.354782   -1.877591    0.745064
 O   -6.013740    2.747855    0.980546
 C   -6.842096    2.102899    0.393143
 O   -8.062753    2.596186    0.151367
 C   -3.356090   -1.231259   -0.735291
 N   -2.806943   -1.485737    0.657076
 C   -0.433092   -0.747903    0.309846
 C    1.021292   -1.124774    0.572516
 O    1.795443   -0.033917    0.107550
 N    3.126706   -0.370314    0.219172
 C    3.880342    0.590056   -0.151107
 C    5.352412    0.420892   -0.115038
 N    5.834715   -0.733701    0.140163
 C    6.143716    1.670866   -0.395453
 C    7.644841    1.479725   -0.386859
 O    8.423325    2.373776   -0.616856
 N    8.049748    0.195744   -0.088157
 C    7.239911   -0.910356    0.187756
 O    7.725882   -1.978863    0.451663
 H   -7.896682   -2.316930   -0.859459
 H   -5.510270   -2.876354   -1.171658
 H   -4.463306    1.164977   -0.068423
 H   -8.565891   -0.064383   -0.140494
 H   -1.234870   -2.769716    0.124880
 H   -1.177511   -2.155641    1.787801
 H   -8.562211    2.045299   -0.465788
 H   -2.773913   -0.409429   -1.154575
 H   -3.162198   -2.138128   -1.312660
 H   -2.969008   -0.643147    1.220302
 H   -3.385008   -2.213860    1.089516
 H   -0.664948    0.171138    0.862632
 H   -0.543960   -0.534556   -0.757838
 H    1.301421   -2.036279    0.031705
 H    1.204138   -1.286806    1.641850
 H    3.461900    1.540646   -0.486277
 H    5.897175    2.445173    0.341902
 H    5.860509    2.087753   -1.369692
 H    9.048906    0.026587   -0.060565
