52 
3fdn_ligand_dft.xyz
 C   -4.141087  -33.760975   -0.607866
 C   -4.589073  -33.139768    0.704154
 O   -4.698409  -33.788641    1.728272
 N   -4.826196  -31.789445    0.614667
 C   -5.140154  -30.882835    1.648678
 C   -4.927000  -31.189998    2.987095
 C   -5.638826  -29.624740    1.296043
 C   -5.913432  -28.697783    2.292654
 C   -5.687640  -28.978236    3.636907
 C   -5.175142  -30.232783    3.977869
 N   -4.830591  -30.622214    5.279324
 C   -5.046641  -29.968064    6.460816
 O   -5.640346  -28.900001    6.546877
 C   -4.511967  -30.640033    7.672057
 C   -4.516087  -30.034244    8.968272
 C   -4.976742  -28.665120    9.349059
 N   -4.050375  -30.850698    9.896455
 N   -3.726360  -31.980880    9.224974
 C   -3.982522  -31.910614    7.901317
 N   -3.771126  -33.033639    7.106357
 N   -3.167001  -32.880536    5.894348
 C   -2.746683  -33.915637    5.272195
 C   -2.166720  -33.822636    3.932591
 C   -1.883541  -32.587648    3.326862
 C   -1.403507  -32.532103    2.034571
 C   -1.182061  -33.713438    1.313995
 O   -0.731888  -33.549840    0.042897
 C   -0.441608  -34.707704   -0.710427
 C   -1.433354  -34.948309    1.909638
 C   -1.923532  -34.988901    3.211070
 H   -3.123903  -33.426848   -0.841498
 H   -4.144280  -34.845216   -0.492540
 H   -4.795707  -33.482987   -1.440886
 H   -4.759406  -31.382261   -0.306220
 H   -4.574481  -32.176888    3.255175
 H   -5.817536  -29.379158    0.252027
 H   -6.308036  -27.724257    2.016756
 H   -5.892930  -28.251944    4.410242
 H   -4.238547  -31.445908    5.322049
 H   -4.801801  -28.513952   10.417113
 H   -4.443475  -27.901035    8.777566
 H   -6.038359  -28.536411    9.125862
 H   -3.295967  -32.740066    9.727960
 H   -3.630905  -33.915081    7.590948
 H   -2.834181  -34.916273    5.714478
 H   -2.055457  -31.668603    3.877563
 H   -1.194388  -31.581990    1.554885
 H   -0.074505  -34.354523   -1.674544
 H    0.333375  -35.315352   -0.227075
 H   -1.338952  -35.320312   -0.866506
 H   -1.271501  -35.876549    1.374969
 H   -2.140445  -35.954923    3.659958
