52 
3fdn_ligand_xtb.xyz
 C   -4.891176   -2.952413    1.342398
 C   -3.535505   -2.307613    1.122754
 O   -2.618818   -2.873941    0.572008
 N   -3.488525   -1.033991    1.604256
 C   -2.426705   -0.117622    1.591429
 C   -1.135227   -0.478700    1.245303
 C   -2.702533    1.200741    1.951041
 C   -1.687952    2.138838    1.949475
 C   -0.396807    1.789937    1.600451
 C   -0.115727    0.472723    1.248245
 N    1.150253    0.029408    0.881392
 C    2.334182    0.692994    0.974438
 O    2.476999    1.785658    1.496813
 C    3.486070   -0.051749    0.421411
 C    4.806064    0.172040    0.787458
 C    5.393473    1.050049    1.825762
 N    5.559869   -0.635751    0.012117
 N    4.850040   -1.330021   -0.868935
 C    3.578897   -1.015037   -0.643406
 N    2.632004   -1.459208   -1.517543
 N    1.479663   -1.730173   -1.106765
 C    0.498681   -1.920706   -2.137666
 C   -0.373659   -0.684801   -2.091169
 C    0.197112    0.567940   -2.296710
 C   -0.558076    1.711593   -2.174508
 C   -1.912381    1.630275   -1.844752
 O   -2.565530    2.817927   -1.723839
 C   -3.905371    2.804268   -1.298757
 C   -2.491221    0.379757   -1.667850
 C   -1.719491   -0.764833   -1.778395
 H   -5.666473   -2.386431    0.829577
 H   -4.871913   -3.964986    0.950488
 H   -5.124230   -2.985059    2.404632
 H   -4.342806   -0.670602    2.004385
 H   -0.918628   -1.496701    0.969389
 H   -3.707429    1.483140    2.236385
 H   -1.906705    3.160371    2.222337
 H    0.390848    2.523265    1.604808
 H    1.161596   -0.871287    0.381549
 H    6.229326    1.616478    1.418295
 H    4.629564    1.737673    2.177403
 H    5.755890    0.457627    2.666317
 H   -0.094406   -2.799871   -1.879983
 H    0.967937   -2.037977   -3.122617
 H    1.247610    0.642765   -2.541152
 H   -0.121526    2.687097   -2.316117
 H   -4.553305    2.296095   -2.020987
 H   -4.003882    2.327485   -0.318156
 H   -4.202469    3.849276   -1.225051
 H   -3.537832    0.280009   -1.426646
 H   -2.173642   -1.728279   -1.605166
 H    6.562254   -0.745166    0.037087
