51 
3fei_ligand_xtb.xyz
 N    3.174088   -0.100339    0.274001
 C    4.273512   -0.697546   -0.048485
 S    4.043005   -2.383470   -0.503464
 C    2.095919   -0.911402    0.189499
 C    2.365106   -2.185242   -0.213857
 C   -7.820378    0.392535   -0.209352
 C   -4.287645   -0.635520    0.761811
 C   -5.754453   -0.380334    0.965440
 C    5.574948   -0.073363   -0.051707
 C   -3.827080   -1.765787    0.077705
 C   -6.301470    0.504056   -0.176881
 C   -2.465423   -1.929465   -0.104728
 O   -8.604467    1.227492    0.143876
 C   -3.369227    0.297022    1.215960
 C    5.687541    1.277998    0.286772
 C    6.725721   -0.787523   -0.386439
 C    0.746768   -0.370374    0.543225
 C   -1.545397   -0.992620    0.361845
 O   -0.233552   -1.283622    0.114670
 O   -8.203379   -0.802417   -0.688757
 C    8.052001    1.171540   -0.046172
 C   -2.007484    0.136082    1.024611
 C    6.918613    1.899323    0.289647
 C    7.960350   -0.170964   -0.384253
Cl    9.594712    1.945408   -0.043525
 O   -5.863970    1.812502    0.053953
 C   -4.772332   -2.807507   -0.444646
 C   -6.028618    2.697809   -1.036108
 C   -5.411363    4.032390   -0.652790
 H    1.676186   -2.991199   -0.354735
 H   -6.314756   -1.313075    0.997933
 H   -5.915747    0.168861    1.893681
 H   -5.923932    0.130106   -1.144965
 H   -2.082818   -2.795932   -0.622432
 H   -3.731064    1.177658    1.724205
 H    4.792784    1.821689    0.543826
 H    6.648441   -1.832493   -0.648828
 H    0.619349    0.608498    0.059012
 H    0.696349   -0.222086    1.633297
 H   -9.171877   -0.871982   -0.681049
 H   -1.330124    0.889295    1.394447
 H    7.006465    2.942490    0.549613
 H    8.849707   -0.723956   -0.642511
 H   -5.253312   -3.331749    0.381151
 H   -5.553547   -2.361075   -1.056725
 H   -4.236222   -3.538685   -1.043838
 H   -5.527541    2.282473   -1.926082
 H   -7.094808    2.824755   -1.267441
 H   -5.914816    4.427680    0.224504
 H   -4.358634    3.898438   -0.419585
 H   -5.511598    4.737952   -1.472657
