20 
3ff3_ligand_xtb.xyz
 N    0.801927    1.683601    0.412458
 C    1.138823    0.313356    0.874018
 C    1.727025   -0.496953   -0.296166
 O    1.661075   -1.682342   -0.385696
 C   -0.071564   -0.371054    1.523381
 C   -1.130370   -0.946051    0.575371
 C   -1.908691    0.035456   -0.254579
 O   -1.535349    1.169557   -0.530686
 O   -3.038175   -0.449952   -0.682843
 O    2.335085    0.306937   -1.166765
 H   -0.196885    1.614483   -0.041622
 H    0.774225    2.355748    1.182280
 H    1.481175    1.993704   -0.292420
 H    1.943150    0.373605    1.618275
 H    0.304247   -1.209596    2.110307
 H   -0.536924    0.332658    2.216183
 H   -0.665422   -1.657823   -0.113486
 H   -1.850796   -1.523213    1.157519
 H   -3.540333    0.166165   -1.245336
 H    2.761640   -0.193059   -1.883128
