26 
3ffp_ligand_dft.xyz
 C   -6.823459    7.532484   12.076520
 S   -6.610600    8.892457   11.051942
 C   -4.895587    8.678959   11.165634
 N   -4.510862    7.682849   11.901575
 C   -5.604831    7.026733   12.422586
 C   -5.382156    5.872058   13.284229
 N   -4.104880    5.462280   13.570600
 C   -4.212386    4.369267   14.394202
 C   -3.266449    3.549404   15.009341
 C   -3.748552    2.517337   15.795852
 C   -5.133620    2.323879   15.953520
 S   -5.694943    0.939876   16.931111
 O   -7.048852    1.227516   17.365509
 O   -4.628004    0.592649   17.851898
 N   -5.823011   -0.353536   15.884015
 C   -6.078675    3.142162   15.353561
 C   -5.603822    4.183421   14.555636
 N   -6.307538    5.139808   13.848539
 H   -7.794685    7.168309   12.377977
 H   -4.214236    9.343961   10.649335
 H   -3.273934    5.917670   13.224136
 H   -2.200542    3.713811   14.891844
 H   -3.062168    1.862964   16.322395
 H   -6.530620   -0.210298   15.171428
 H   -4.927826   -0.635350   15.499273
 H   -7.140760    2.993331   15.514343
