42 
3fh5_ligand_xtb.xyz
 C    4.816101   -0.547136   -0.861388
 C    5.603162    0.490745   -1.330691
 C    5.660834    1.686896   -0.637418
 C    4.928481    1.840997    0.527932
 C    4.143149    0.803195    0.995477
 C    4.083166   -0.402248    0.307535
 C    3.204306   -1.518888    0.819643
 C    1.763410   -1.163622    0.585426
 C    1.239431   -1.182968   -0.700111
 C   -0.074851   -0.826422   -0.950243
 C    0.937169   -0.767094    1.630119
 C   -0.375733   -0.407639    1.398371
 C   -0.881389   -0.440115    0.106049
 O   -2.218656   -0.057852   -0.022781
 C   -2.831441   -0.121101   -1.291082
 C   -4.295908    0.264049   -1.054668
 C   -5.116109   -0.801726   -0.334667
 C   -6.236315    0.010350    0.307552
 C   -5.522251    1.270898    0.799455
 N   -4.314056    1.398483   -0.072560
 H    4.783391   -1.481598   -1.403829
 H    6.175404    0.362481   -2.237361
 H    6.277392    2.495014   -1.000653
 H    4.973214    2.770607    1.075917
 H    3.575029    0.925483    1.906875
 H    3.447104   -2.444428    0.295216
 H    3.380583   -1.666679    1.886247
 H    1.867117   -1.480379   -1.525943
 H   -0.445618   -0.857690   -1.962686
 H    1.318543   -0.744438    2.639595
 H   -1.018198   -0.107192    2.211817
 H   -2.350634    0.577525   -1.990191
 H   -2.778810   -1.130893   -1.712225
 H   -4.778586    0.567461   -1.985846
 H   -5.490454   -1.559241   -1.017393
 H   -4.501669   -1.286320    0.424661
 H   -6.993714    0.260376   -0.434698
 H   -6.720668   -0.522996    1.120458
 H   -6.148224    2.157652    0.715415
 H   -5.205339    1.163815    1.836327
 H   -4.249658    2.312455   -0.523442
 H   -3.439825    1.233385    0.468173
