45 
3fh8_ligand_dft.xyz
 C    5.405037    0.852298    0.844607
 C    5.167352    2.339118    0.625982
 C    4.598251    2.416542   -0.805529
 C    3.968312    1.035831   -1.077431
 N    4.214758    0.227660    0.178266
 C    4.287379   -1.251025   -0.016912
 C    2.907784   -1.755893   -0.414892
 O    2.027441   -1.146855    0.497157
 C    0.663023   -1.290388    0.297413
 C   -0.150965   -0.519537    1.123840
 C   -1.527290   -0.595987    0.987887
 C    0.110657   -2.135263   -0.654430
 C   -1.279318   -2.196351   -0.774221
 C   -2.116908   -1.437982    0.037019
 C   -3.625994   -1.529815   -0.083864
 C   -4.308963   -0.178549   -0.090153
 C   -5.113932    0.226449    0.973861
 C   -5.723261    1.479995    0.968340
 C   -5.532397    2.342538   -0.105287
 C   -4.729083    1.946907   -1.173669
 C   -4.121126    0.697464   -1.163057
 H    5.443190    0.531225    1.886764
 H    6.293961    0.492089    0.318815
 H    6.086982    2.913913    0.744425
 H    4.445830    2.715330    1.358347
 H    5.394464    2.606219   -1.528439
 H    3.865010    3.217822   -0.906688
 H    4.453870    0.509296   -1.901553
 H    2.892805    1.057475   -1.256953
 H    3.390038    0.353198    0.780557
 H    4.592306   -1.680825    0.940064
 H    5.045218   -1.469941   -0.772061
 H    2.886126   -2.849767   -0.342345
 H    2.662161   -1.473514   -1.447986
 H    0.301576    0.129314    1.867426
 H   -2.160560    0.016881    1.622839
 H    0.725354   -2.752859   -1.300436
 H   -1.709681   -2.858734   -1.520232
 H   -4.013683   -2.129304    0.748983
 H   -3.878134   -2.078672   -0.998548
 H   -5.273869   -0.446820    1.812784
 H   -6.351310    1.777868    1.802480
 H   -6.010577    3.317139   -0.114175
 H   -4.581671    2.613123   -2.018575
 H   -3.493595    0.392653   -1.997634
