45 
3fh8_ligand_xtb.xyz
 C    5.425859    0.521175    0.867325
 C    5.448024    2.049895    0.800469
 C    4.684355    2.403447   -0.491727
 C    4.338874    1.055481   -1.122634
 N    4.268225    0.132414    0.032851
 C    4.173243   -1.303843   -0.292703
 C    2.729196   -1.616772   -0.700207
 O    1.924126   -0.939352    0.237447
 C    0.544620   -1.143055    0.213510
 C   -0.169394   -0.510569    1.224829
 C   -1.539819   -0.646823    1.284244
 C   -0.115982   -1.902121   -0.734900
 C   -1.494875   -2.029663   -0.659935
 C   -2.223521   -1.413272    0.344778
 C   -3.720873   -1.519668    0.410076
 C   -4.334089   -0.175767    0.098731
 C   -4.973238    0.566886    1.080735
 C   -5.512220    1.807460    0.784479
 C   -5.412320    2.320137   -0.496806
 C   -4.772054    1.586518   -1.481900
 C   -4.235169    0.347447   -1.184574
 H    5.320974    0.137027    1.880933
 H    6.323961    0.093531    0.416961
 H    6.469756    2.420367    0.782387
 H    4.956516    2.485196    1.668484
 H    5.282896    3.008413   -1.167732
 H    3.779390    2.963789   -0.262018
 H    5.137722    0.712599   -1.783359
 H    3.399623    1.070920   -1.672230
 H    3.388106    0.328066    0.541615
 H    4.420419   -1.869655    0.608087
 H    4.876191   -1.562171   -1.085217
 H    2.563088   -2.699189   -0.664100
 H    2.519590   -1.264716   -1.719667
 H    0.361417    0.076922    1.957995
 H   -2.090184   -0.151919    2.069509
 H    0.414635   -2.399702   -1.531590
 H   -2.001720   -2.627950   -1.402121
 H   -4.024002   -1.837221    1.409482
 H   -4.071538   -2.261706   -0.309334
 H   -5.061134    0.170181    2.082450
 H   -6.013405    2.372632    1.556083
 H   -5.834695    3.286055   -0.728937
 H   -4.694386    1.979626   -2.484830
 H   -3.737502   -0.224534   -1.955128
