49 
3fhe_ligand_dft.xyz
 C   23.634447   86.922669   -3.735832
 C   23.421868   86.406372   -5.012704
 C   23.774127   85.092538   -5.300533
 C   24.342224   84.299604   -4.304803
 C   24.554065   84.819375   -3.033625
 C   24.198437   86.137086   -2.731315
 C   24.417549   86.689856   -1.336106
 C   25.827333   86.494065   -0.819799
 C   26.083629   85.797695    0.354755
 C   27.383037   85.615703    0.834097
 C   26.921312   87.011977   -1.525925
 C   28.215196   86.844372   -1.068026
 C   28.456070   86.142373    0.119340
 O   29.760009   86.030664    0.483992
 C   30.074092   85.297038    1.653832
 C   31.584567   85.283591    1.804982
 C   32.281672   84.568542    0.647400
 N   33.707563   84.386957    0.881380
 C   34.455550   85.628632    0.813019
 C   34.289960   83.322374    0.080531
 C   34.277725   83.546066   -1.439821
 C   34.898212   82.393686   -2.185763
 O   35.354784   81.391708   -1.688450
 O   34.893301   82.598205   -3.518703
 H   23.357221   87.951543   -3.517885
 H   22.982945   87.034851   -5.782350
 H   23.611371   84.687701   -6.295020
 H   24.624266   83.273266   -4.521806
 H   25.011746   84.202889   -2.263876
 H   24.168153   87.758375   -1.333142
 H   23.713588   86.211947   -0.643023
 H   25.254633   85.381179    0.922297
 H   27.535583   85.066223    1.755854
 H   26.749576   87.546631   -2.456934
 H   29.063212   87.244866   -1.614063
 H   29.603739   85.765766    2.529715
 H   29.685349   84.271000    1.567695
 H   31.930176   86.319702    1.888796
 H   31.841662   84.774767    2.740929
 H   31.834800   83.571543    0.539040
 H   32.072992   85.115504   -0.289410
 H   34.334036   86.170495   -0.143898
 H   34.144084   86.303664    1.615603
 H   35.520580   85.419621    0.955426
 H   35.323718   83.170925    0.409068
 H   33.758980   82.391273    0.305575
 H   33.257051   83.679084   -1.818000
 H   34.821120   84.456647   -1.718473
 H   35.305690   81.813391   -3.914043
