17 
3fj7_ligand_xtb.xyz
 C    1.531181   -0.597405   -0.028080
 O    2.640333   -0.928380    0.611354
 O    0.942604   -1.339195   -0.771769
 C    1.090554    0.826721    0.246547
 C    2.059957    1.817279   -0.391680
 O   -0.191023    1.027850   -0.296088
 P   -1.320475   -0.057029    0.117211
 O   -2.603662    0.858659    0.274187
 O   -1.728966   -0.817962   -1.202193
 O   -0.962059   -0.826265    1.313012
 H    2.876698   -1.854551    0.434270
 H    1.066079    0.954859    1.336056
 H    3.053150    1.681329    0.026107
 H    1.716470    2.828984   -0.197548
 H    2.088145    1.659969   -1.466916
 H   -2.842699    0.910319    1.198253
 H   -1.018690   -1.402707   -1.477134
