18 
3fjg_ligand_dft.xyz
 C   -0.645888   19.075139  -27.617181
 O   -0.871063   19.221258  -28.791248
 O    0.575162   19.105964  -27.090214
 C   -1.761491   18.852341  -26.589533
 O   -1.178036   18.444690  -25.376663
 C   -2.747862   17.825797  -27.149933
 O   -3.765607   17.437315  -26.209136
 P   -4.462778   18.433959  -25.199835
 O   -3.584434   19.085436  -24.195753
 O   -5.240572   19.435865  -26.174092
 O   -5.616871   17.532879  -24.566467
 H    0.470487   18.921531  -26.135742
 H   -2.270571   19.819784  -26.469986
 H   -1.804581   18.685632  -24.666569
 H   -3.224532   18.220638  -28.048965
 H   -2.228553   16.897460  -27.390617
 H   -5.505500   20.247589  -25.720016
 H   -5.358310   17.205725  -23.694050
