39 
3fl9_ligand_dft.xyz
 C    2.168977   -0.011411   -0.883244
 N    3.176383    0.429784   -1.642720
 C    4.385403    0.357858   -1.075323
 N    5.433967    0.860647   -1.796210
 N    4.677863   -0.136621    0.134881
 C    3.646227   -0.567200    0.860324
 N    3.945032   -1.036799    2.115578
 C    2.312692   -0.514403    0.398176
 C    1.168289   -0.991768    1.266588
 C   -0.203342   -0.622005    0.751130
 C   -0.624938    0.711563    0.813384
 C   -1.869326    1.071545    0.313127
 O   -2.341141    2.344350    0.283593
 C   -1.483208    3.376426    0.717188
 C   -2.734322    0.099651   -0.235091
 O   -3.924694    0.469005   -0.801567
 C   -4.911569    0.952732    0.097062
 C   -2.309325   -1.230453   -0.283370
 O   -3.016154   -2.250992   -0.833781
 C   -4.425474   -2.291824   -0.695006
 C   -1.040698   -1.576012    0.202066
 H    1.179286    0.048066   -1.331563
 H    5.271031    0.983377   -2.783087
 H    6.355775    0.571231   -1.510931
 H    4.928471   -1.201906    2.274571
 H    3.322956   -1.711107    2.532939
 H    1.293815   -0.567559    2.273386
 H    1.218000   -2.083966    1.387948
 H    0.045612    1.456253    1.227303
 H   -1.234210    3.274191    1.781175
 H   -0.557530    3.399138    0.129157
 H   -2.032718    4.305869    0.563699
 H   -5.124360    0.213768    0.881150
 H   -4.602304    1.893889    0.558978
 H   -5.811704    1.114196   -0.499426
 H   -4.728452   -2.030058    0.326657
 H   -4.923271   -1.626552   -1.402998
 H   -4.710233   -3.327195   -0.894593
 H   -0.743274   -2.617795    0.136914
