74 
3fpd_ligand_dft.xyz
 C   21.823263  -34.606227    4.318370
 C   20.979517  -34.699969    1.750937
 C   20.594335  -33.682513    2.644581
 C   23.333024  -35.509867    6.027500
 C   24.725924  -35.127416    5.503524
 C   24.926266  -33.619053    5.328591
 N   24.468003  -32.810732    6.464616
 C   25.358738  -31.688306    6.710199
 C   23.094785  -32.342268    6.282942
 C   22.049264  -33.443252    6.454598
 N   22.274736  -34.603860    5.611475
 N   22.244423  -35.653722    3.562332
 N   21.019606  -33.628218    3.933539
 C   19.731869  -32.657048    2.175949
 C   19.290385  -32.643463    0.876406
 O   18.471579  -31.714126    0.342253
 C   18.029593  -30.673818    1.185615
 C   19.706543  -33.667557   -0.036922
 O   19.225037  -33.534972   -1.297994
 C   19.600792  -34.509739   -2.238566
 C   20.535508  -34.666358    0.403456
 C   21.829874  -35.710418    2.312119
 N   22.266169  -36.757045    1.551866
 C   23.005352  -37.870985    2.123009
 C   22.122830  -38.831156    2.926057
 C   22.942558  -40.012551    3.432307
 C   23.732032  -38.635237    1.018865
 C   24.487239  -39.827890    1.600628
 N   23.586304  -40.712217    2.325044
 C   24.257674  -41.923230    2.768820
 C   23.289398  -42.991412    3.230945
 C   23.560220  -43.764224    4.358765
 C   22.685815  -44.773361    4.756189
 C   21.523175  -45.012957    4.031104
 C   21.240435  -44.238364    2.907486
 C   22.118296  -43.236586    2.509834
 H   23.081208  -36.525199    5.713262
 H   23.339674  -35.487811    7.120536
 H   25.476694  -35.522340    6.198373
 H   24.895444  -35.601059    4.529811
 H   25.996207  -33.437490    5.179035
 H   24.428278  -33.289226    4.399837
 H   25.404438  -30.971324    5.868010
 H   25.029473  -31.142428    7.600439
 H   26.372402  -32.054994    6.900494
 H   22.890564  -31.573125    7.037316
 H   22.959565  -31.871790    5.290920
 H   22.054524  -33.786878    7.494514
 H   21.062952  -33.036920    6.224671
 H   19.447421  -31.892529    2.888049
 H   17.455080  -31.064779    2.034818
 H   18.871866  -30.080380    1.563085
 H   17.386838  -30.043246    0.570601
 H   19.110135  -34.233718   -3.172644
 H   20.688704  -34.524924   -2.391702
 H   19.266617  -35.511918   -1.936079
 H   20.875839  -35.419938   -0.297458
 H   21.730430  -36.967831    0.723803
 H   23.746166  -37.436786    2.802706
 H   21.671526  -38.295032    3.766096
 H   21.314857  -39.204316    2.283398
 H   23.697996  -39.653699    4.162187
 H   22.295520  -40.718591    3.960586
 H   23.002543  -39.009052    0.286765
 H   24.426123  -37.970282    0.493521
 H   24.957789  -40.396762    0.791065
 H   25.303616  -39.458525    2.255247
 H   24.833061  -42.312133    1.918470
 H   24.990960  -41.716135    3.573281
 H   24.462884  -43.573474    4.934852
 H   22.910699  -45.366343    5.638025
 H   20.837115  -45.795398    4.341987
 H   20.331459  -44.416348    2.339803
 H   21.899775  -42.617163    1.644877
