42 
3fq7_ligand_xtb.xyz
 N    4.819315    0.838800    0.109078
 C    4.733259   -0.465914   -0.058240
 C    5.969086   -1.284923    0.108308
 C    3.511935   -1.086165   -0.378719
 O    3.504285   -2.435705   -0.496127
 C    2.486796    1.081347   -0.352117
 C    3.737173    1.584630   -0.020187
 C    1.308200    2.006125   -0.463351
 O    0.362957    1.705423    0.564036
 P   -1.185061    1.968008    0.228072
 O   -1.887768    1.435443    1.535119
 O   -1.408523    3.527994    0.333043
 O   -1.604832    1.430362   -1.069027
 C    2.371515   -0.298894   -0.552776
 C    1.058845   -0.951216   -0.898575
 C   -4.157277   -0.923584   -1.163309
 C   -3.147831   -1.207640   -0.091835
 O   -5.205086   -1.507460   -1.240750
 C   -1.803125   -1.306099   -0.419380
 C   -0.844135   -1.490941    0.578228
 C   -1.276887   -1.615812    1.904783
 C   -2.625961   -1.575628    2.216134
 C   -3.570415   -1.365311    1.223796
 O   -3.816663    0.034542   -2.025102
 N    0.495301   -1.600318    0.280132
 H    6.190357   -1.813861   -0.816714
 H    6.799470   -0.638355    0.371243
 H    5.819081   -2.032643    0.884707
 H    2.610752   -2.756363   -0.673919
 H    3.880829    2.643542    0.145800
 H    0.817060    1.916085   -1.438560
 H    1.639260    3.041741   -0.340681
 H   -1.927903    0.473968    1.609527
 H   -1.356216    3.847312    1.233871
 H    1.199523   -1.696844   -1.696997
 H    0.363104   -0.200041   -1.276098
 H   -1.508934   -1.261710   -1.455833
 H   -0.545025   -1.768824    2.685386
 H   -2.938568   -1.703215    3.241433
 H   -4.622906   -1.322003    1.450827
 H   -3.003700    0.520824   -1.769044
 H    1.095391   -1.563749    1.093413
