42 
3fq7_ligand_dft.xyz
 N    4.890182    0.720045    0.044097
 C    4.697773   -0.587002   -0.110647
 C    5.875592   -1.508514    0.015254
 C    3.418037   -1.108211   -0.378338
 O    3.294390   -2.455549   -0.481493
 C    2.551063    1.125719   -0.335743
 C    3.842468    1.543920   -0.045860
 C    1.426025    2.119075   -0.416502
 O    0.444460    1.806595    0.602616
 P   -1.111858    2.085538    0.332592
 O   -1.782721    1.402109    1.601852
 O   -1.370353    3.632679    0.618265
 O   -1.566271    1.690753   -1.018164
 C    2.338692   -0.244855   -0.541572
 C    0.987627   -0.815446   -0.871712
 C   -4.157861   -0.801192   -1.218579
 C   -3.171279   -1.264809   -0.180014
 O   -5.252257   -1.294377   -1.331039
 C   -1.809995   -1.314929   -0.476585
 C   -0.877890   -1.634287    0.514891
 C   -1.347880   -1.942629    1.802121
 C   -2.713216   -1.943179    2.074633
 C   -3.635295   -1.607111    1.087173
 O   -3.748547    0.195011   -2.011105
 N    0.503307   -1.604306    0.271119
 H    6.033663   -2.071095   -0.911176
 H    6.768685   -0.923461    0.239930
 H    5.711411   -2.245050    0.809040
 H    2.360351   -2.703430   -0.384596
 H    4.051300    2.598800    0.123480
 H    0.939069    2.104400   -1.397032
 H    1.795088    3.131246   -0.229269
 H   -1.735656    0.429028    1.605999
 H   -1.216412    3.878201    1.540949
 H    1.058172   -1.463058   -1.755469
 H    0.289171   -0.014564   -1.123169
 H   -1.482500   -1.069629   -1.479378
 H   -0.636227   -2.189330    2.586120
 H   -3.054274   -2.190886    3.074961
 H   -4.700024   -1.583805    1.289839
 H   -2.956919    0.656691   -1.659503
 H    1.005784   -1.354367    1.115300
