54 
3fql_ligand_dft.xyz
 C   -3.132605    3.333330    0.448181
 C   -3.120965    1.985085   -0.243268
 C   -3.090759    3.259674   -1.047703
 C    3.797325   -0.830189    0.030519
 C    4.785439   -0.301531   -0.809345
 C    6.077690   -0.809297   -0.789395
 C    6.367837   -1.861445    0.067197
 C    5.407536   -2.420254    0.898284
 C    4.120762   -1.900023    0.874323
 C   -1.928445    1.097851   -0.151326
 C   -2.090086   -0.299655    0.028001
 C   -0.999293   -1.161118    0.133500
 C   -0.639274    1.622493   -0.221737
 C    0.461649    0.773640   -0.116060
 C    0.257508   -0.592950    0.056660
 O    1.450390   -1.248665    0.130905
 C    2.428642   -0.301388    0.013057
 C    1.897428    0.951823   -0.118592
 C    2.539864    2.292510   -0.189040
 O    1.969610    3.232426   -0.727435
 N    3.760497    2.410427    0.401997
 C    4.482653    3.662859    0.436082
 N   -3.399398   -0.866685    0.158675
 S   -4.222330   -1.354025   -1.201201
 O   -5.597398   -1.592998   -0.792074
 O   -3.896617   -0.424815   -2.266776
 C   -3.506420   -2.935412   -1.640354
 F    7.611308   -2.356279    0.088333
 C   -3.860756   -1.280738    1.484031
 C   -4.450451   -0.106265    2.252405
 O   -4.765135   -0.586252    3.542864
 H   -2.227646    3.632922    0.969911
 H   -4.054742    3.646412    0.928907
 H   -4.065786    1.457061   -0.257350
 H   -2.163996    3.519256   -1.550815
 H   -3.987137    3.509272   -1.605937
 H    4.537088    0.506352   -1.489230
 H    6.851715   -0.413817   -1.437318
 H    5.674190   -3.245482    1.548879
 H    3.355687   -2.324704    1.515556
 H   -1.139083   -2.226108    0.285684
 H   -0.467127    2.683091   -0.367165
 H    4.126368    1.626700    0.919836
 H    4.043851    4.323367   -0.312304
 H    4.407289    4.146696    1.416721
 H    5.538149    3.495919    0.201045
 H   -3.643165   -3.629944   -0.809308
 H   -4.030905   -3.299130   -2.526000
 H   -2.448351   -2.789376   -1.863724
 H   -3.019022   -1.699320    2.046587
 H   -4.622973   -2.055474    1.380966
 H   -5.339410    0.251627    1.713113
 H   -3.718504    0.715147    2.288252
 H   -5.197157    0.122670    4.030809
