74 
3frz_ligand_xtb.xyz
 O    1.940893   -1.818731    2.616226
 C    2.217355   -1.470594    1.493864
 C    1.769396   -2.184623    0.289023
 C    2.358039   -1.920356   -0.889444
 O    2.034165   -2.492834   -2.062486
 C    0.594863   -3.112232    0.458128
 C   -0.638948   -2.463369   -0.072016
 N   -0.591533   -1.559372   -1.047344
 N   -1.866571   -2.720823    0.392125
 C   -2.656993   -1.929334   -0.311571
 N   -1.865949   -1.205408   -1.209292
 C   -2.390822   -0.312243   -2.066697
 C   -3.749533   -0.150092   -2.000333
 C   -1.460609    0.408179   -2.976577
 N   -3.964782   -1.767478   -0.253583
 C   -4.505588   -0.887200   -1.062181
 C   -5.975638   -0.669740   -0.942026
 O    2.985523   -0.376773    1.328226
 C    3.144082    0.212339    0.031488
 C    3.449681   -0.897428   -0.981121
 C    4.291233    1.230499    0.199003
 C    5.541850    0.619680    0.864993
 C    4.787576    1.851568   -1.123321
 C    6.199091    1.304395   -1.331764
 C    6.732622    1.182291    0.090739
 C    1.826577    0.918872   -0.364599
 C    1.229465    1.771480    0.770620
 C   -0.264859    1.624596    0.798519
 C   -1.082263    2.414781   -0.000653
 C   -0.875683    0.671994    1.602901
 C   -2.262819    0.558395    1.596302
 C   -2.966992   -0.389600    2.520187
 C   -3.089063    0.230102    3.913031
 N   -3.026556    1.316059    0.817687
 C   -2.457543    2.224707    0.037113
 C   -3.382106    3.083789   -0.778936
 C   -3.538784    4.461750   -0.134889
 H    1.218454   -3.000892   -1.962857
 H    0.754692   -4.071283   -0.046144
 H    0.449746   -3.314956    1.520355
 H   -4.238887    0.550549   -2.656210
 H   -0.781404   -0.300367   -3.447990
 H   -0.855678    1.101859   -2.392510
 H   -2.010538    0.958272   -3.734052
 H   -6.442965   -0.609048   -1.922188
 H   -6.150906    0.269366   -0.418363
 H   -6.417357   -1.476459   -0.365660
 H    3.479396   -0.510560   -1.998211
 H    4.414804   -1.359804   -0.761816
 H    3.898448    2.016194    0.847094
 H    5.584277    0.863034    1.924311
 H    5.525864   -0.466504    0.785018
 H    4.833598    2.936097   -1.017567
 H    4.136140    1.630362   -1.966186
 H    6.159981    0.320622   -1.801089
 H    6.806762    1.957935   -1.956101
 H    6.995802    2.170483    0.470861
 H    7.611136    0.542797    0.159696
 H    1.098445    0.152014   -0.640063
 H    2.008703    1.534205   -1.245761
 H    1.633726    1.428612    1.724037
 H    1.497297    2.821327    0.637808
 H   -0.655059    3.176519   -0.637880
 H   -0.284269    0.028922    2.237674
 H   -3.959726   -0.598328    2.121450
 H   -2.412388   -1.326976    2.581891
 H   -3.613172   -0.449885    4.579729
 H   -3.643153    1.164927    3.861159
 H   -2.104451    0.433916    4.328307
 H   -4.354869    2.594619   -0.829189
 H   -2.986965    3.197795   -1.791173
 H   -4.217171    5.079262   -0.719324
 H   -3.939424    4.359004    0.870483
 H   -2.577321    4.966610   -0.071104
