45 
3ft8_ligand_dft.xyz
 F    8.399308   10.520724   22.344540
 C    7.206632   10.555642   22.955363
 C    6.843689   11.691349   23.655991
 C    5.599977   11.749355   24.293729
 C    5.254192   13.005134   25.013786
 C    6.070616   13.477115   26.045975
 N    5.850569   14.602832   26.724617
 C    4.776685   15.319350   26.388804
 C    3.893678   14.950827   25.377638
 C    4.139850   13.777359   24.678125
 C    6.364178    9.460247   22.859838
 C    5.137112    9.520605   23.506265
 C    4.732797   10.642355   24.236799
 C    3.394994   10.626241   24.952340
 C    3.301367    9.488171   25.976802
 C    1.914480    9.327712   26.576389
 N    1.649481    8.480823   27.506892
 O    2.681287    7.721436   27.998058
 C    0.799247   10.130817   26.035417
 C    2.207213   10.537194   23.987954
 C    0.919852   10.684257   24.752203
 N   -0.046244   11.380454   24.160560
 C   -1.173500   11.523129   24.870653
 N   -2.206134   12.162603   24.262030
 N   -1.386916   11.095071   26.122593
 C   -0.413136   10.402968   26.711368
 C   -0.701807    9.971093   28.119368
 H    7.520832   12.538376   23.687334
 H    6.947733   12.903090   26.340937
 H    4.615707   16.233636   26.955580
 H    3.037173   15.573400   25.141640
 H    3.480272   13.462571   23.873747
 H    6.669697    8.587397   22.293950
 H    4.475828    8.660660   23.437642
 H    3.286300   11.560803   25.509565
 H    3.588220    8.539042   25.500358
 H    4.035273    9.679364   26.772860
 H    3.510843    7.946100   27.545040
 H    2.250443   11.316499   23.222578
 H    2.219283    9.572245   23.461843
 H   -2.982339   12.450852   24.834609
 H   -2.016744   12.658375   23.406770
 H   -0.867985    8.891350   28.162303
 H    0.144502   10.174162   28.781043
 H   -1.593506   10.494213   28.469107
