45 
3ft8_ligand_xtb.xyz
 F    5.643508   -1.750631   -1.189207
 C    4.346078   -1.463646   -0.951899
 C    4.018647   -0.240013   -0.406446
 C    2.682731    0.072430   -0.169131
 C    2.386345    1.404478    0.389454
 C    2.943632    1.801530    1.605120
 N    2.745432    2.985460    2.150920
 C    1.976844    3.850738    1.512426
 C    1.372495    3.572141    0.295385
 C    1.584729    2.329455   -0.276087
 C    3.377602   -2.398710   -1.265796
 C    2.056594   -2.087098   -1.007570
 C    1.684825   -0.865285   -0.456771
 C    0.233204   -0.584515   -0.160907
 C   -0.364651   -1.615395    0.794528
 C   -1.833758   -1.396343    1.042148
 N   -2.445013   -1.944313    2.019184
 O   -1.659243   -2.752134    2.848289
 C   -2.590266   -0.561103    0.124300
 C   -0.611858   -0.566983   -1.436964
 C   -2.009285   -0.160649   -1.090348
 N   -2.645884    0.587658   -1.972853
 C   -3.891644    0.955592   -1.666648
 N   -4.539543    1.740647   -2.549904
 N   -4.535481    0.637851   -0.543737
 C   -3.907529   -0.108072    0.349030
 C   -4.679633   -0.421286    1.582057
 H    4.795650    0.474609   -0.182845
 H    3.572837    1.122757    2.166734
 H    1.846410    4.808443    1.998530
 H    0.756555    4.309116   -0.196191
 H    1.148689    2.081196   -1.233374
 H    3.660074   -3.345454   -1.697681
 H    1.299159   -2.818542   -1.244934
 H    0.148706    0.397464    0.315945
 H   -0.243048   -2.629969    0.402897
 H    0.147513   -1.589603    1.760703
 H   -2.279274   -3.058443    3.523595
 H   -0.214732    0.126382   -2.179239
 H   -0.630908   -1.562214   -1.889359
 H   -4.126900    1.891749   -3.451895
 H   -5.512324    1.931972   -2.395061
 H   -4.875950   -1.489536    1.629178
 H   -4.100850   -0.160264    2.464184
 H   -5.616408    0.128389    1.564816
