31 
3ftu_ligand_dft.xyz
 C   -3.905015   -1.216996   -0.018711
 C   -4.490033    0.046738   -0.004259
 C   -3.664264    1.162274    0.011250
 C    0.673963    0.819114    0.011209
 C   -0.191268   -0.446794   -0.002371
 C   -2.271146    1.029424    0.012186
 C   -1.692631   -0.236652   -0.002417
 C   -2.519143   -1.362945   -0.017975
 O   -4.268747    2.380327    0.025209
 O   -4.746971   -2.284456   -0.033450
 C    2.146834    0.486613    0.009227
 C    2.833798    0.253324    1.204328
 C    4.176512   -0.097177    1.214719
 C    4.866613   -0.223848    0.009128
 O    6.182657   -0.566320    0.071806
 C    4.201043    0.003183   -1.194365
 C    2.854187    0.353757   -1.184543
 H   -5.567909    0.156044   -0.004773
 H    0.432718    1.417743    0.898216
 H    0.434172    1.435884   -0.863572
 H    0.078564   -1.062426    0.865847
 H    0.081278   -1.044709   -0.882022
 H   -1.651615    1.922146    0.024563
 H   -2.074676   -2.356888   -0.029378
 H   -3.591203    3.066552    0.037055
 H   -4.224542   -3.095171   -0.040961
 H    2.305652    0.351994    2.150148
 H    4.707052   -0.272129    2.144806
 H    6.538951   -0.616552   -0.823006
 H    4.732434   -0.089010   -2.139488
 H    2.346909    0.530015   -2.130385
