35 
3fuc_ligand_dft.xyz
 O    4.912948   -1.515006    0.992844
 P    5.140240   -0.412741   -0.154712
 O    4.663210   -1.169351   -1.497762
 O    6.476689    0.202946   -0.222748
 C    3.704653    0.717049    0.179182
 F    3.983469    1.397197    1.326804
 F    3.692352    1.630027   -0.838965
 C    2.348958    0.047168    0.284181
 C    1.228555    1.060882    0.532490
 C   -0.135355    0.405193    0.754966
 C   -0.653107   -0.371519   -0.468047
 C   -2.040312   -0.897222   -0.273941
 C   -2.490950   -2.160687   -0.090467
 N   -3.912787   -2.295215    0.097771
 C   -4.383567   -1.104869    0.034613
 C   -5.798071   -0.601156    0.154299
 O   -6.700751   -1.390685    0.357196
 N   -5.946353    0.747596    0.019421
 C   -4.954288    1.594733   -0.198453
 N   -4.929302    2.873118   -0.348549
 N   -3.553048    1.115315   -0.311520
 C   -3.266806   -0.130249   -0.202920
 H    5.758766   -1.796910    1.369271
 H    5.243385   -0.934817   -2.235849
 H    2.395172   -0.681732    1.100429
 H    2.186414   -0.508081   -0.644971
 H    1.173675    1.754893   -0.314096
 H    1.481353    1.658145    1.413864
 H   -0.856723    1.187746    1.024389
 H   -0.090989   -0.274648    1.614844
 H    0.007367   -1.216368   -0.687927
 H   -0.622795    0.280067   -1.352845
 H   -1.891398   -3.063895   -0.075955
 H   -5.884408    3.224295   -0.274239
 H   -2.870395    1.852535   -0.478302
