28 
3fud_ligand_xtb.xyz
 C   -1.425400   -3.028726   -0.595427
 N   -0.399563   -1.988177   -0.765281
 C    0.565032   -1.890497    0.365884
 C    1.424891   -0.662721    0.204687
 C    2.805862   -0.780617    0.263723
 C    3.620951    0.327126    0.107665
 C    3.052744    1.567548   -0.126258
 C    1.678273    1.697620   -0.190145
 C    0.842993    0.593499   -0.020577
 C   -0.604998    0.815398   -0.091775
 C   -1.262149    1.623219   -0.982134
 C   -2.639321    1.759546   -0.709144
 C   -3.026789    1.078160    0.397811
 S   -1.722383    0.247929    1.143828
 H   -0.955883   -4.004364   -0.484146
 H   -2.012262   -2.815232    0.295881
 H   -2.087729   -3.051593   -1.458146
 H   -0.840958   -1.038932   -0.808526
 H    0.119613   -2.138756   -1.636439
 H    1.182456   -2.789637    0.393852
 H   -0.011610   -1.836042    1.292755
 H    3.248490   -1.749190    0.441332
 H    4.691818    0.219361    0.165860
 H    3.678321    2.436696   -0.252458
 H    1.235199    2.667602   -0.353015
 H   -0.774850    2.092667   -1.817764
 H   -3.309149    2.347792   -1.308228
 H   -4.000908    1.012657    0.838905
