43 
3ful_ligand_dft.xyz
 O    3.686073   -2.387159   -0.075268
 C    3.507490   -1.184491   -0.041584
 C    4.679922   -0.251078    0.025331
 C    4.695488    0.997443   -0.596896
 C    5.857276    1.761436   -0.524509
 N    6.957844    1.375460    0.120765
 C    6.935412    0.174916    0.705908
 C    5.836604   -0.675958    0.677888
 C    2.112508   -0.635097   -0.066000
 C    1.110662   -1.436495   -0.611696
 C    1.762323    0.597754    0.497583
 C    0.442732    1.021112    0.505849
 C   -0.540278    0.212974   -0.061975
 C   -0.214858   -1.018191   -0.627170
 O   -1.817383    0.720340   -0.017125
 C   -2.866146   -0.091277   -0.454039
 C   -4.114218    0.729594   -0.142425
 N   -5.361418    0.131496   -0.722153
 C   -5.796889   -1.157449   -0.060744
 C   -6.566866    1.028990   -0.547984
 C   -7.053848    0.731556    0.873332
 C   -6.547980   -0.698891    1.192790
 H    3.837414    1.365127   -1.150435
 H    5.903723    2.733448   -1.010041
 H    7.846311   -0.122145    1.219583
 H    5.869359   -1.651905    1.149571
 H    1.384244   -2.401364   -1.025543
 H    2.520690    1.223929    0.955960
 H    0.157783    1.967650    0.951993
 H   -0.965170   -1.659167   -1.077442
 H   -2.867411   -1.053368    0.076417
 H   -2.797011   -0.295961   -1.535135
 H   -3.998709    1.724980   -0.576333
 H   -4.254863    0.832026    0.935079
 H   -5.194282   -0.028493   -1.718938
 H   -4.930774   -1.790915    0.126936
 H   -6.455248   -1.660661   -0.772458
 H   -7.293396    0.721004   -1.303415
 H   -6.276431    2.063676   -0.732352
 H   -8.141348    0.805619    0.917401
 H   -6.651749    1.457792    1.582839
 H   -5.889160   -0.697224    2.063821
 H   -7.364485   -1.389275    1.409396
