43 
3ful_ligand_xtb.xyz
 O    4.013844   -2.306392   -0.058170
 C    3.535886   -1.194242   -0.037642
 C    4.385240    0.026301   -0.052426
 C    4.012169    1.186073   -0.729711
 C    4.891503    2.258221   -0.724056
 N    6.056603    2.240927   -0.102399
 C    6.416223    1.138325    0.530493
 C    5.626753   -0.000183    0.579714
 C    2.059970   -0.992342    0.000935
 C    1.249305   -1.961693   -0.579747
 C    1.466091    0.089820    0.647682
 C    0.091885    0.193219    0.705334
 C   -0.708647   -0.777898    0.109220
 C   -0.128915   -1.856235   -0.543363
 O   -2.072668   -0.570897    0.215648
 C   -2.946260   -1.602865   -0.172735
 C   -4.335587   -1.289013    0.381126
 N   -4.884990   -0.030777   -0.168328
 C   -6.354628    0.113094   -0.009961
 C   -4.351883    1.220394    0.429396
 C   -5.274314    2.297311   -0.128760
 C   -6.638375    1.595288   -0.278205
 H    3.077582    1.240402   -1.267555
 H    4.651323    3.177986   -1.240875
 H    7.383146    1.169694    1.013808
 H    5.948623   -0.891408    1.094896
 H    1.716394   -2.803819   -1.067135
 H    2.076632    0.836914    1.131095
 H   -0.379718    1.016857    1.218125
 H   -0.725712   -2.617605   -1.020301
 H   -2.623222   -2.566707    0.239868
 H   -2.982507   -1.689621   -1.269877
 H   -4.282628   -1.193571    1.467574
 H   -5.009111   -2.109354    0.125229
 H   -4.668443    0.001964   -1.170743
 H   -6.606732   -0.155705    1.017241
 H   -6.884569   -0.555297   -0.687392
 H   -3.302125    1.353315    0.175871
 H   -4.447034    1.141395    1.513478
 H   -4.913785    2.650663   -1.094302
 H   -5.325555    3.155178    0.536282
 H   -7.366765    1.978168    0.432359
 H   -7.044974    1.746348   -1.276160
