41 
3fv1_ligand_dft.xyz
 C   20.270074    1.188491   14.071968
 N   21.650085    1.410160   13.657094
 C   22.644197    0.986248   14.636483
 C   23.930465    1.823816   14.407780
 O   24.139786    2.119172   13.049085
 C   25.160363    1.107748   14.931626
 O   25.252505   -0.202709   14.421076
 C   24.262372   -1.054071   14.945558
 C   24.319681   -2.350108   14.151295
 C   22.834454   -0.558816   14.656176
 O   22.470738   -1.130694   13.399823
 C   23.476030   -2.010063   12.915718
 C   24.346038   -1.301102   11.866644
 O   23.752920   -0.214207   11.352642
 O   25.418863   -1.711574   11.498442
 C   22.835680   -3.247106   12.272580
 C   21.823624   -2.930206   11.161947
 C   21.536887   -4.124852   10.264682
 O   20.458583   -4.372894    9.782300
 O   22.635522   -4.850765    9.987338
 N   20.563402   -2.488598   11.731454
 H   20.046634    1.809191   14.945856
 H   19.600386    1.497752   13.264222
 H   20.040723    0.140674   14.325138
 H   21.826263    0.851174   12.823906
 H   22.276215    1.260429   15.632898
 H   23.809329    2.760744   14.976971
 H   23.274536    2.424943   12.733581
 H   26.060600    1.634184   14.608230
 H   25.140243    1.087130   16.034542
 H   24.421194   -1.197201   16.025441
 H   25.342069   -2.634061   13.899775
 H   23.838880   -3.160264   14.708598
 H   22.152935   -0.984089   15.404687
 H   24.413057    0.218779   10.788364
 H   23.648396   -3.863585   11.879934
 H   22.310885   -3.810661   13.050957
 H   22.287617   -2.194983   10.475214
 H   22.353328   -5.539741    9.364776
 H   20.704653   -1.603779   12.205864
 H   19.872784   -2.377506   10.996332
