38 
3fv2_ligand_xtb.xyz
 O    4.023446   -2.100489    0.305342
 C    4.127498   -0.841621   -0.043231
 O    5.013818   -0.339401   -0.675820
 C    2.931748    0.011451    0.433694
 N    3.307050    1.419722    0.198419
 C    1.706221   -0.397622   -0.394221
 C    0.331214    0.200030    0.002053
 C    0.147105    1.633677   -0.560472
 O   -0.983904    1.970323   -1.042714
 O    1.090095    2.420550   -0.536832
 C    0.068370    0.209648    1.527016
 O   -0.674818   -0.620050   -0.576008
 C   -1.444679   -1.247038    0.450705
 C   -1.391082   -0.240232    1.607486
 O   -2.183138    0.891547    1.348929
 C   -3.533581    0.598517    1.074375
 C   -3.671275   -0.235424   -0.202174
 O   -3.196431    0.539713   -1.288247
 C   -2.856558   -1.542546   -0.067570
 O   -2.810668   -2.242400   -1.279941
 H    4.771168   -2.639883   -0.007119
 H    2.762491   -0.172994    1.496106
 H    2.397945    1.970770   -0.137029
 H    4.037762    1.418051   -0.537097
 H    3.700568    1.874135    1.023985
 H    1.599708   -1.481895   -0.312257
 H    1.890193   -0.167840   -1.446442
 H   -1.741554    1.302663   -1.007477
 H    0.698361   -0.514526    2.040541
 H    0.191771    1.197356    1.965447
 H   -0.961998   -2.190978    0.742693
 H   -1.656798   -0.699875    2.568055
 H   -3.997668    0.064889    1.912952
 H   -4.015283    1.567451    0.939170
 H   -4.725604   -0.489453   -0.359417
 H   -3.361839    0.056336   -2.107766
 H   -3.365349   -2.193739    0.651392
 H   -2.090325   -1.889921   -1.818318
