30 
3fvl_ligand_dft.xyz
 C    2.584678   -0.413521   -1.247033
 C    3.635120   -1.281475   -0.958762
 C    4.216564   -1.276882    0.304978
 C    3.742977   -0.399106    1.277580
 C    2.693593    0.464720    0.985455
 C    2.100444    0.468610   -0.279840
 C    0.936587    1.386369   -0.567425
 C   -0.379856    0.877111    0.064199
 C   -1.490227    1.891183   -0.129697
 O   -1.208376    3.070817    0.449463
 O   -2.519449    1.694836   -0.733737
 C   -0.824299   -0.470572   -0.494842
 C   -2.025665   -1.024677    0.236465
 O   -2.193766   -0.863564    1.430049
 C   -3.045120   -1.809529   -0.561901
 O   -4.002140   -2.393971    0.263372
 H    2.134406   -0.419866   -2.237043
 H    3.998904   -1.961096   -1.723780
 H    5.035501   -1.952681    0.532049
 H    4.195036   -0.385513    2.264827
 H    2.330428    1.150841    1.747506
 H    0.797842    1.490810   -1.650439
 H    1.143685    2.385770   -0.172373
 H   -0.230677    0.776053    1.145460
 H   -1.968587    3.650125    0.279789
 H   -0.010545   -1.198025   -0.378166
 H   -1.040494   -0.393953   -1.566175
 H   -2.524695   -2.575425   -1.156597
 H   -3.490558   -1.096326   -1.276071
 H   -3.849188   -2.009035    1.142775
