14 
3fw4_ligand_xtb.xyz
 C   -1.904813   -0.639411    0.000325
 C   -0.734221   -1.378861    0.000366
 C    0.495243   -0.739557   -0.000046
 O    1.644511   -1.463202   -0.000430
 C    0.539316    0.661000   -0.000047
 O    1.787846    1.241663    0.000410
 C   -0.633551    1.392499   -0.000426
 C   -1.857508    0.741931   -0.000311
 H   -2.856008   -1.148634    0.000813
 H   -0.750886   -2.456729    0.000729
 H    2.385434   -0.841712   -0.001188
 H    1.692116    2.199669    0.002135
 H   -0.587993    2.473630   -0.000788
 H   -2.768311    1.320478   -0.000707
