34 
3fx6_ligand_dft.xyz
 C    2.553373   -0.975726   -1.146259
 C    3.358051   -2.028927   -0.719877
 C    4.094719   -1.912627    0.454606
 C    4.023436   -0.737593    1.199377
 C    3.217673    0.311349    0.770196
 C    2.472636    0.205439   -0.407127
 C    1.571563    1.338195   -0.838448
 C    0.257545    1.393762   -0.012547
 C   -0.495651    2.656311   -0.362384
 O    0.205474    3.761383   -0.078382
 O   -1.603147    2.730951   -0.860127
 C   -0.565679    0.117649   -0.204983
 C   -1.854895    0.011200    0.632835
 O   -1.608142    0.671733    1.860575
 O   -2.979761    0.527283    0.003784
 C   -2.220951   -1.443682    0.987655
 N   -2.588763   -2.247824   -0.214617
 O   -1.701099   -2.477394   -1.023890
 O   -3.739793   -2.630256   -0.309112
 H    1.975011   -1.074928   -2.061513
 H    3.406110   -2.941793   -1.305986
 H    4.723844   -2.732413    0.788158
 H    4.597043   -0.637488    2.116149
 H    3.167140    1.228482    1.353325
 H    1.320714    1.232207   -1.900715
 H    2.095548    2.291717   -0.722582
 H    0.527862    1.489253    1.044597
 H   -0.346301    4.516859   -0.338435
 H    0.087794   -0.720438    0.047144
 H   -0.834188   -0.015815   -1.256804
 H   -2.479448    0.867286    2.231697
 H   -2.704830    1.346593   -0.450466
 H   -3.096814   -1.450589    1.634979
 H   -1.377317   -1.945868    1.461720
