20 
3fxb_ligand_dft.xyz
 O   -1.386859   -0.639923   -1.383182
 C   -1.652026   -0.454792   -0.219224
 O   -2.909885   -0.542476    0.256479
 C   -0.661771   -0.040595    0.860494
 C   -0.380717    1.470153    0.722581
 C    0.501249    1.723053   -0.494998
 N    1.652267    0.846474   -0.400207
 C    1.533286   -0.413817    0.136129
 C    2.757064   -1.277954   -0.012425
 N    0.520383   -0.877722    0.772606
 H   -3.470775   -0.771055   -0.502400
 H   -1.139698   -0.224126    1.827104
 H   -1.314004    2.037634    0.647590
 H    0.141260    1.801783    1.626186
 H   -0.062974    1.535105   -1.417741
 H    0.846088    2.762039   -0.507434
 H    2.398860    0.989125   -1.062210
 H    3.640937   -0.780012    0.401087
 H    2.592327   -2.219926    0.509995
 H    2.950860   -1.488932   -1.070687
