35 
3fz1_ligand_xtb.xyz
 C    3.686773    0.794747    0.124533
 C    2.695134    1.747847    0.162783
 C    2.050204   -0.972209   -0.102776
 C    1.038002   -0.013829   -0.066725
 C   -0.370853   -0.184245   -0.150272
 C    3.376999   -0.572570   -0.008704
 C    1.367544    1.350775    0.068361
 C   -1.073203    0.988825   -0.086770
 C   -2.506392    1.312950   -0.101396
 C   -2.071160   -1.506990   -1.291825
 C   -3.401618   -1.051830   -0.684422
 C    5.664058   -1.248891    0.034061
 C   -3.751833   -1.907287    0.557327
 N   -0.996320   -1.474178   -0.275561
 N   -3.447714    0.356427   -0.369226
 N   -2.705661   -1.747586    1.577822
 O   -2.869026    2.445524    0.134694
 O    4.288175   -1.563096   -0.053477
 S   -0.038920    2.370169    0.093274
 H    4.714205    1.110060    0.197989
 H    2.942610    2.791903    0.265268
 H    1.847516   -2.028367   -0.202522
 H   -2.189077   -2.529918   -1.652905
 H   -1.806658   -0.866000   -2.137084
 H   -4.176852   -1.240452   -1.437088
 H    5.982154   -0.613183   -0.796317
 H    5.903492   -0.765695    0.984914
 H    6.182479   -2.203740   -0.024843
 H   -4.738228   -1.616901    0.930613
 H   -3.795461   -2.958087    0.264891
 H   -0.266049   -2.161645   -0.469237
 H   -4.376406    0.759911   -0.362127
 H   -1.581612   -1.708263    0.713946
 H   -2.755261   -2.473129    2.286039
 H   -2.791407   -0.845025    2.040032
