35 
3fz1_ligand_dft.xyz
 C    3.672730    0.796164    0.204976
 C    2.671600    1.748015    0.268149
 C    2.048419   -0.958225   -0.201234
 C    1.032447    0.003201   -0.140982
 C   -0.387730   -0.177331   -0.298852
 C    3.368180   -0.562683   -0.029353
 C    1.342657    1.354131    0.097092
 C   -1.099789    0.984209   -0.153493
 C   -2.543805    1.293246   -0.159825
 C   -2.167685   -1.450034   -1.362539
 C   -3.418001   -1.115806   -0.544664
 C    5.658078   -1.213361    0.063503
 C   -3.573736   -2.044323    0.674231
 N   -0.948974   -1.449240   -0.543767
 N   -3.494200    0.267604   -0.097550
 N   -2.527527   -1.663803    1.675374
 O   -2.930964    2.443166   -0.098466
 O    4.289552   -1.544698   -0.098690
 S   -0.069678    2.370413    0.136384
 H    4.700469    1.111273    0.339324
 H    2.923331    2.787840    0.448489
 H    1.854908   -2.013472   -0.371866
 H   -2.294266   -2.454552   -1.774258
 H   -2.085361   -0.744245   -2.198850
 H   -4.275585   -1.309494   -1.197979
 H    5.994952   -0.517880   -0.713822
 H    5.849152   -0.783723    1.053784
 H    6.201058   -2.152792   -0.033386
 H   -4.550844   -1.924484    1.145100
 H   -3.419607   -3.094316    0.415799
 H   -0.251079   -2.072914   -0.936043
 H   -4.419512    0.681010   -0.137794
 H   -1.607955   -1.777781    1.182712
 H   -2.565383   -2.209323    2.538615
 H   -2.633433   -0.664633    1.894825
