56 
3fzr_ligand_xtb.xyz
 C   -2.059674    2.572092   -0.916475
 C    0.308619    4.003556   -2.647423
 N    1.903938   -3.678455   -0.590194
 C    3.162720   -3.329700   -0.433012
 C    3.559346   -2.018942   -0.216493
 C    0.886196    1.464073    0.914430
 C   -0.328221    2.139198    0.769041
 C   -3.901817   -1.298838    0.296461
 C    4.983374   -1.645961   -0.024334
 C    0.408671    1.155012    3.256025
 C   -1.527146   -1.280589    0.398878
 C   -0.794343    1.820906    3.106302
 O    1.283974    4.224855   -0.207424
 S    0.015933    4.137854   -0.864820
 O   -0.941629    5.180394   -0.636571
 N   -0.667532    2.630743   -0.519160
 C    1.243498    0.984901    2.164941
 C   -1.158368    2.318791    1.867347
 C    1.760650    1.272448   -0.298734
 N    2.793398    0.277632   -0.148764
 C    2.533393   -1.035478   -0.226646
 F    5.193634   -0.979055    1.136851
 F    5.444562   -0.810535   -0.987296
 F    5.813209   -2.692941   -0.010793
 N    1.259463   -1.402816   -0.350184
 C    0.993454   -2.694135   -0.499560
 N   -0.285496   -3.120381   -0.613502
 C   -1.480666   -2.467862   -0.327624
 C   -2.668073   -3.080898   -0.749173
 C   -3.868694   -2.487234   -0.443250
 C   -5.275054   -2.890265   -0.749718
 C   -2.739095   -0.691397    0.726440
 N   -5.222413   -0.917824    0.482560
 C   -6.104982   -1.791714   -0.093045
 O   -7.304773   -1.681743   -0.069088
 H   -2.639669    3.406370   -0.512469
 H   -2.099508    2.619440   -2.003752
 H   -2.482016    1.623251   -0.591853
 H    1.026856    4.769767   -2.910181
 H    0.710403    3.019448   -2.845298
 H   -0.623828    4.168822   -3.169134
 H    3.889009   -4.130148   -0.480166
 H    0.700647    0.772402    4.222116
 H   -0.606672   -0.822551    0.715957
 H   -1.446084    1.964673    3.955037
 H    2.181700    0.464710    2.287302
 H   -2.084355    2.861727    1.753404
 H    2.231603    2.228026   -0.537956
 H    1.112578    0.972167   -1.128835
 H    3.726838    0.593129    0.052869
 H   -0.353121   -4.100522   -0.854512
 H   -2.633787   -4.007546   -1.302766
 H   -5.542811   -3.861179   -0.330204
 H   -5.485841   -2.927289   -1.819653
 H   -2.758474    0.207387    1.322966
 H   -5.513862   -0.103075    0.998503
