49 
3g0c_ligand_dft.xyz
 C    3.694964    2.363850    0.789136
 N    3.227696    1.068534    0.313571
 C    1.925687    0.837431   -0.041135
 N    0.891851    1.718730    0.009412
 C   -0.148166    1.011983   -0.437180
 N   -1.466485    1.476329   -0.543898
 C   -1.640068    2.713798   -1.288650
 C   -1.231970    3.949554   -0.485542
 N   -1.978337    3.944914    0.830015
 C   -1.791065    2.658994    1.604032
 C   -2.202984    1.487420    0.715406
 N    0.165747   -0.257558   -0.764697
 C   -0.740488   -1.286390   -1.291300
 C   -1.611510   -1.866651   -0.201507
 C   -0.998835   -2.595418    0.824137
 C   -1.736116   -3.124932    1.874149
 C   -3.116434   -2.942034    1.910804
 C   -3.752195   -2.239035    0.895070
 C   -2.998896   -1.708514   -0.149767
Cl   -3.866509   -0.842851   -1.408290
 C    1.513192   -0.389848   -0.496249
 C    2.388583   -1.528231   -0.584682
 O    2.064183   -2.659136   -0.916106
 N    3.698989   -1.206471   -0.223122
 C    4.670180   -2.300974   -0.294785
 C    4.163827    0.041898    0.229902
 O    5.319894    0.233578    0.542568
 H    4.079279    2.274429    1.807368
 H    4.497023    2.729349    0.145341
 H    2.852944    3.054684    0.765514
 H   -2.692768    2.783034   -1.593276
 H   -1.039863    2.680684   -2.200001
 H   -1.475729    4.882942   -0.997258
 H   -0.169120    3.908034   -0.239984
 H   -2.978543    4.083930    0.650595
 H   -1.675872    4.739416    1.400010
 H   -2.392095    2.731190    2.512804
 H   -0.729206    2.603360    1.853988
 H   -2.023869    0.553212    1.252608
 H   -3.276611    1.524561    0.489261
 H   -0.100877   -2.061631   -1.716031
 H   -1.333183   -0.832965   -2.084637
 H    0.073636   -2.762953    0.768573
 H   -1.238192   -3.692985    2.652831
 H   -3.704886   -3.360489    2.720849
 H   -4.828983   -2.110083    0.898871
 H    4.412994   -3.072437    0.434075
 H    4.645849   -2.739415   -1.293291
 H    5.653648   -1.891686   -0.078976
