27 
3g0i_ligand_dft.xyz
 C   -2.972295    2.124901    0.176171
 C   -2.182832    0.920279   -0.332041
 C   -0.737899    0.915637    0.169617
 C    0.105492   -0.246084   -0.379802
 C    1.550238   -0.250186    0.154470
 C    2.394078    0.938277   -0.311027
 C    3.847622    0.831332    0.147368
 C   -0.556054   -1.600929   -0.130968
 N   -0.786424   -1.912803    1.180580
 O   -0.867985   -2.357964   -1.033048
 H   -3.009228    2.137740    1.271867
 H   -2.513605    3.065110   -0.151539
 H   -4.002851    2.108770   -0.192482
 H   -2.181498    0.912476   -1.429362
 H   -2.682640   -0.004536   -0.019600
 H   -0.732564    0.894760    1.270054
 H   -0.260791    1.861800   -0.114346
 H    0.142526   -0.164301   -1.471949
 H    2.040694   -1.177932   -0.168690
 H    1.543514   -0.272889    1.254509
 H    1.965560    1.874740    0.065503
 H    2.356030    0.997212   -1.406618
 H    3.913201    0.789949    1.240868
 H    4.319089   -0.075326   -0.248418
 H    4.435619    1.690585   -0.190612
 H   -1.140718   -2.833104    1.390679
 H   -0.433593   -1.351083    1.937743
