37 
3g0w_ligand_dft.xyz
 C    2.292348   -2.355626    1.133794
 N    2.133398   -0.910998    0.909270
 C    3.160502   -0.414447    0.010488
 C    3.480552   -1.623240   -0.869794
 C    3.411735   -2.770961    0.153041
 C    0.912530   -0.400336    0.535821
 O    1.083327    0.596896   -0.380025
 C    2.465413    0.777578   -0.648548
 N   -0.203772   -0.830225    0.953540
 C   -1.412534   -0.221482    0.603697
 C   -2.486909   -1.047850    0.212002
 C   -3.705335   -0.434770   -0.079698
 C   -3.890052    0.950224    0.028753
 C   -2.813905    1.741995    0.440954
 C   -1.592645    1.162935    0.724136
 C   -2.311453   -2.537617    0.101981
Cl   -5.050795   -1.415075   -0.600606
 O    4.726859   -1.428422   -1.484658
 C   -5.147025    1.570996   -0.266511
 N   -6.145050    2.114321   -0.496269
 C    2.898449    2.117321   -0.063559
 F    2.693668    2.159917    1.258778
 F    4.205323    2.309769   -0.293294
 F    2.221222    3.124111   -0.620948
 H    2.558939   -2.556497    2.173668
 H    1.337127   -2.845926    0.929308
 H    4.069662   -0.114606    0.542367
 H    2.679424   -1.737699   -1.619332
 H    3.216620   -3.742187   -0.309168
 H    4.379866   -2.823868    0.662016
 H    2.619011    0.817481   -1.729767
 H   -2.951966    2.813397    0.536158
 H   -0.761563    1.780299    1.045774
 H   -2.317093   -2.856632   -0.946746
 H   -1.364106   -2.835445    0.552364
 H   -3.125158   -3.067090    0.605602
 H    4.897300   -2.166937   -2.080427
