64 
3g15_ligand_dft.xyz
 C    5.685843   -0.821279   -0.006026
 N    7.179311   -0.774533   -0.256395
 C    7.610778   -2.095790   -0.816642
 C    7.948656   -0.535693    1.013338
 C    7.459697    0.305994   -1.276263
 C    6.801254    1.621277   -0.895507
 O    5.404750    1.455657   -0.758952
 C    5.040775    0.554843    0.255671
 O    5.495591    0.980738    1.510693
 C    3.528828    0.400179    0.221889
 C    2.791847    0.715544   -0.919347
 C    1.411235    0.560360   -0.920038
 C    2.870412   -0.089451    1.350985
 C    1.490746   -0.249642    1.341872
 C    0.738909    0.078516    0.208565
 C   -0.738881   -0.076129    0.209426
 C   -1.490881    0.266067    1.338465
 C   -2.870548    0.106039    1.349342
 C   -1.411044   -0.571948   -0.913207
 C   -2.791666   -0.727062   -0.910818
 C   -3.528816   -0.397526    0.226294
 C   -5.040783   -0.551611    0.261822
 O   -5.495830   -0.962178    1.521865
 C   -5.685690    0.821285   -0.016509
 O   -5.404893   -1.464553   -0.741840
 C   -6.801442   -1.631733   -0.876253
 C   -7.459917   -0.321031   -1.272432
 N   -7.179238    0.771414   -0.265464
 C   -7.611409    2.085969   -0.840775
 C   -7.947576    0.547103    1.007522
 H    5.234143   -1.240514   -0.907134
 H    5.509080   -1.494794    0.834455
 H    8.687147   -2.067593   -0.993414
 H    7.373169   -2.878640   -0.094937
 H    7.085711   -2.281077   -1.754337
 H    9.011519   -0.505396    0.770191
 H    7.746995   -1.362453    1.695446
 H    7.620418    0.392840    1.471353
 H    8.543697    0.405015   -1.369085
 H    7.049501   -0.049853   -2.224712
 H    6.951009    2.332188   -1.709551
 H    7.236069    2.049721    0.013507
 H    4.997301    1.774242    1.756789
 H    3.292698    1.111262   -1.795431
 H    0.847156    0.846527   -1.802679
 H    3.434353   -0.337917    2.245375
 H    0.996801   -0.649938    2.221953
 H   -0.997064    0.677217    2.213601
 H   -3.434625    0.365552    2.240503
 H   -0.846826   -0.869069   -1.792128
 H   -3.292390   -1.133587   -1.782014
 H   -4.997734   -1.752747    1.777599
 H   -5.234355    1.229393   -0.922896
 H   -5.508512    1.505058    0.815560
 H   -7.236116   -2.049423    0.037825
 H   -6.951326   -2.352188   -1.681847
 H   -7.049914    0.023525   -2.225119
 H   -8.543944   -0.421111   -1.363815
 H   -8.687880    2.055423   -1.016533
 H   -7.086995    2.260511   -1.780891
 H   -7.373565    2.877221   -0.128369
 H   -7.618509   -0.375847    1.476141
 H   -9.010597    0.513389    0.765534
 H   -7.745839    1.381922    1.679720
