34 
3g1d_ligand_dft.xyz
 O   -4.161615   -2.165698    0.281946
 P   -2.805185   -1.368116    0.042909
 O   -2.216398   -1.376213    1.520963
 O   -1.936635   -1.872994   -1.043222
 O   -3.322546    0.137426   -0.209392
 C   -2.472250    1.086613   -0.847084
 C   -1.506143    1.707160    0.147494
 O   -0.599968    0.683411    0.630198
 C   -0.627237    2.816032   -0.433873
 O   -0.433533    3.797816    0.548003
 C    0.701889    2.097824   -0.704131
 O    1.747127    3.026517   -0.686147
 C    0.734859    1.086633    0.449758
 N    1.571173   -0.089378    0.193207
 C    2.929524    0.104579    0.373816
 O    3.403202    1.207459    0.636423
 N    3.695660   -1.016941    0.231846
 C    3.280199   -2.303700   -0.179855
 O    4.093478   -3.196030   -0.287015
 C    1.854203   -2.369603   -0.451973
 C    1.069513   -1.292900   -0.267562
 H   -4.365505   -2.716800   -0.485245
 H   -1.495081   -0.721502    1.583623
 H   -1.936822    0.614225   -1.678473
 H   -3.133034    1.863763   -1.238646
 H   -2.060486    2.092679    1.007186
 H   -1.057210    3.243571   -1.351205
 H    0.453518    4.156274    0.373968
 H    0.658560    1.546888   -1.655829
 H    2.518873    2.601709   -0.264422
 H    1.122208    1.566902    1.353912
 H    4.690708   -0.887563    0.368265
 H    1.437242   -3.300372   -0.810062
 H    0.004727   -1.323194   -0.475667
