41 
3g1m_ligand_xtb.xyz
 C    5.994265   -0.611525   -0.495177
 C    6.705854   -1.647179    0.152249
 C    5.886554   -2.588145    0.682128
 S    4.229172   -2.228220    0.406326
 C    4.646935   -0.783876   -0.451329
 C    3.580470    0.109966   -0.983157
 C    3.036218    1.012061    0.130706
 O    3.478094    0.978796    1.259925
 N    2.050684    1.873581   -0.225052
 C    1.362586    1.938275   -1.491818
 C   -0.064738    1.403633   -1.349519
 C    1.403551    2.661449    0.804659
 C   -0.017481    2.153026    1.041494
 C   -0.809889    2.197957   -0.275586
 C   -2.163695    1.634780   -0.053619
 N   -2.552712    0.414890   -0.247112
 O   -3.139323    2.410640    0.433271
 N   -4.243072    1.623840    0.563776
 C   -3.863432    0.438908    0.149938
 C   -4.710315   -0.710932    0.106623
 C   -6.025263   -0.800673    0.482294
 C   -6.548206   -2.092025    0.300547
 C   -5.629818   -2.960200   -0.207536
 S   -4.105332   -2.223971   -0.475773
 H    6.468322    0.226354   -0.975368
 H    7.778645   -1.683722    0.217483
 H    6.148240   -3.475084    1.224073
 H    2.760262   -0.490248   -1.383466
 H    3.994104    0.734956   -1.778141
 H    1.898668    1.379811   -2.255813
 H    1.325481    2.990079   -1.803710
 H   -0.045332    0.353219   -1.056829
 H   -0.585983    1.479612   -2.304199
 H    1.382582    3.710503    0.489363
 H    1.998949    2.569804    1.714294
 H   -0.509378    2.764975    1.798429
 H    0.025209    1.122788    1.399994
 H   -0.922727    3.243402   -0.583911
 H   -6.572298    0.038546    0.870038
 H   -7.560628   -2.366507    0.535958
 H   -5.761622   -3.998086   -0.441281
