39 
3g2h_ligand_xtb.xyz
 C    4.725785   -0.888415   -0.170949
 C    6.026750   -0.518692    0.109635
 C    6.300399    0.747140    0.602617
 C    5.265823    1.643820    0.814090
 C    3.961808    1.281196    0.534272
 C    3.680642    0.009755    0.038623
 C    2.318566   -0.398642   -0.257007
 C    1.135244    0.325970   -0.224558
 N    2.003564   -1.660744   -0.632918
 N    0.746726   -1.750512   -0.826434
 N    0.186964   -0.560065   -0.591030
 C   -1.239116   -0.394437   -0.684707
 O   -1.537951    0.911357   -0.292290
 C   -2.929115    1.208763   -0.330709
 C   -3.078885    2.681982    0.058640
 O   -2.489475    3.534724   -0.881231
 C   -3.702611    0.288354    0.619059
 O   -5.066101    0.588203    0.524439
 C   -3.432983   -1.172996    0.240008
 O   -4.086393   -1.992092    1.174947
 C   -1.924590   -1.447889    0.215298
 O   -1.738380   -2.748752   -0.260698
 H    4.494197   -1.870001   -0.553874
 H    6.831982   -1.219259   -0.055561
 H    7.317662    1.035037    0.822923
 H    5.476623    2.630338    1.200501
 H    3.159850    1.983872    0.705106
 H    0.896811    1.338395    0.013884
 H   -1.550772   -0.578315   -1.731231
 H   -3.309402    1.065313   -1.353096
 H   -4.140499    2.927949    0.093869
 H   -2.636730    2.826304    1.054235
 H   -1.571424    3.262034   -0.995699
 H   -3.342625    0.448158    1.648951
 H   -5.544059   -0.118807    0.977946
 H   -3.832587   -1.362659   -0.770349
 H   -3.790135   -2.897910    1.021691
 H   -1.525338   -1.338056    1.238888
 H   -0.794255   -2.876110   -0.472715
