22 
3g2z_ligand_xtb.xyz
 O    2.577093    2.321265   -0.023164
 C    2.284003    1.144029    0.040003
 C    0.909185    0.676466   -0.017139
 C    0.572241   -0.624965    0.053392
 C    1.601681   -1.711873    0.158288
 C    2.929039   -1.242416   -0.428729
 C    3.342696    0.069436    0.222555
 N   -0.727677   -1.076519    0.048443
 C   -1.872757   -0.352979    0.012882
 N   -2.018567    0.967299   -0.040526
 N   -3.339803    1.089901   -0.051812
 N   -3.968288   -0.054581   -0.009714
 N   -3.080756   -0.976640    0.031290
 H    0.147997    1.434891   -0.106313
 H    1.253813   -2.610031   -0.358388
 H    1.738808   -1.967868    1.214614
 H    2.815928   -1.092727   -1.504654
 H    3.696496   -2.002520   -0.271162
 H    3.475827   -0.074739    1.299170
 H    4.287163    0.435408   -0.181804
 H   -0.887097   -2.073653    0.092061
 H   -3.796568    1.988723   -0.089485
