27 
3g32_ligand_xtb.xyz
 O   -0.887165    2.715331   -0.633453
 C   -0.923542    1.626485   -0.120390
 C   -1.963948    0.573450   -0.201073
 C   -3.173381    0.551852   -0.863006
 C   -3.947905   -0.599509   -0.756412
 C   -3.518451   -1.685753   -0.010159
 C   -2.297969   -1.662359    0.658496
 C   -1.530784   -0.521676    0.551316
 N    0.059971    1.108633    0.712293
 C   -0.208782   -0.186359    1.133452
 O    0.506799   -0.846734    1.843514
 C    1.317166    1.774217    0.951350
 C    2.263175    1.587302   -0.247162
 C    2.493710    0.143754   -0.479839
 N    3.626806   -0.508139   -0.150913
 N    3.446258   -1.742200   -0.438173
 N    2.236651   -1.848268   -0.930812
 N    1.596910   -0.696342   -0.981746
 H   -3.501210    1.401240   -1.441600
 H   -4.899831   -0.647394   -1.263881
 H   -4.141612   -2.565298    0.053979
 H   -1.958885   -2.503612    1.242901
 H    1.755297    1.338124    1.852378
 H    1.121736    2.838111    1.101899
 H    3.217789    2.068576   -0.039343
 H    1.805876    2.035700   -1.130948
 H    1.821863   -2.718443   -1.229850
