34 
3g3d_ligand_dft.xyz
 F   -3.198096   -0.010929   -1.635513
 C   -2.319653    0.735672   -0.967003
 C   -2.856140    1.664338    0.018688
 O   -4.020993    1.824993    0.309532
 N   -1.834748    2.407386    0.628209
 C   -0.474970    2.310184    0.440627
 O    0.316702    3.017364    1.057290
 C   -1.001997    0.617282   -1.181726
 N   -0.083164    1.370365   -0.480998
 C    1.377974    1.222905   -0.700492
 O    1.605047    0.198173   -1.618818
 C    2.132967    0.869355    0.607350
 O    2.845196    1.943412    1.150056
 C    3.129553   -0.195935    0.131989
 O    4.292036    0.413169   -0.364872
 C    2.395758   -0.846837   -1.039206
 C    1.522798   -2.035303   -0.679439
 O    0.609054   -1.616253    0.339653
 P   -0.722549   -2.420973    0.679567
 O   -1.486960   -1.286439    1.516458
 O   -0.629796   -3.726329    1.351808
 O   -1.424283   -2.448774   -0.765592
 H   -2.128999    3.085522    1.320029
 H   -0.594621   -0.079879   -1.898601
 H    1.748127    2.169496   -1.107669
 H    1.428458    0.437799    1.325992
 H    2.180087    2.633299    1.320455
 H    3.361469   -0.919766    0.925554
 H    4.401074    1.230971    0.146166
 H    3.118743   -1.164083   -1.795808
 H    0.966858   -2.365213   -1.562076
 H    2.135021   -2.861512   -0.303370
 H   -1.778873   -1.643328    2.366344
 H   -2.076646   -3.159087   -0.830242
