34 
3g3d_ligand_xtb.xyz
 F   -3.065270    0.164204   -1.814199
 C   -2.167601    0.810345   -1.052108
 C   -2.666543    1.659758    0.018869
 O   -3.808180    1.834523    0.360735
 N   -1.613135    2.320141    0.656004
 C   -0.268053    2.196508    0.441900
 O    0.549100    2.842409    1.068293
 C   -0.851598    0.652466   -1.283619
 N    0.086911    1.299624   -0.540001
 C    1.526475    1.073455   -0.765438
 O    1.742234    0.035690   -1.660500
 C    2.252790    0.721327    0.564826
 O    3.078861    1.744038    1.024097
 C    3.091611   -0.514023    0.186399
 O    4.382899   -0.167472   -0.213481
 C    2.311109   -1.091439   -1.003478
 C    1.232318   -2.094693   -0.579386
 O    0.379311   -1.456889    0.356904
 P   -1.035439   -2.097518    0.711199
 O   -1.673965   -0.862905    1.484262
 O   -1.049967   -3.357807    1.450002
 O   -1.756949   -2.149190   -0.704743
 H   -1.877513    2.956472    1.401536
 H   -0.476501    0.013777   -2.068579
 H    1.941968    2.002585   -1.186065
 H    1.507079    0.436426    1.316603
 H    2.498659    2.481398    1.277768
 H    3.130679   -1.229747    1.018639
 H    4.603746    0.667656    0.225849
 H    2.991180   -1.563445   -1.717261
 H    0.655625   -2.402747   -1.455807
 H    1.691445   -2.976838   -0.123972
 H   -1.901160   -1.136294    2.372688
 H   -2.472431   -2.784070   -0.705942
