34 
3g3m_ligand_xtb.xyz
 F   -3.065061    0.165004   -1.811178
 C   -2.166219    0.811776   -1.050991
 C   -2.663822    1.664029    0.018213
 O   -3.805156    1.840908    0.360081
 N   -1.609336    2.324345    0.653642
 C   -0.264443    2.198016    0.439919
 O    0.553512    2.843696    1.065490
 C   -0.850477    0.651510   -1.282518
 N    0.089079    1.298796   -0.540381
 C    1.528212    1.069631   -0.765855
 O    1.741509    0.028822   -1.658094
 C    2.254771    0.719977    0.564897
 O    3.080509    1.743551    1.022686
 C    3.093712   -0.515643    0.187909
 O    4.383369   -0.168683   -0.217256
 C    2.310729   -1.096728   -0.998466
 C    1.232085   -2.098243   -0.570438
 O    0.375426   -1.455202    0.358849
 P   -1.040042   -2.096324    0.710083
 O   -1.681795   -0.861619    1.480104
 O   -1.054864   -3.356200    1.449697
 O   -1.757564   -2.149882   -0.707840
 H   -1.872410    2.962673    1.397987
 H   -0.476341    0.010605   -2.066033
 H    1.945120    1.996814   -1.189329
 H    1.509042    0.436054    1.317112
 H    2.499819    2.481257    1.274365
 H    3.136363   -1.228924    1.021943
 H    4.605723    0.666726    0.220737
 H    2.989898   -1.571090   -1.711644
 H    0.658264   -2.413022   -1.446435
 H    1.690631   -2.976806   -0.107464
 H   -1.909578   -1.133356    2.368847
 H   -2.475392   -2.782147   -0.709331
