41 
3g4i_ligand_xtb.xyz
 C   -1.335544    3.692148   -0.268326
 C   -1.036590    2.335339   -0.375896
 C    0.211461    1.898101    0.086775
 C    0.812772    4.000071    0.702804
 C   -0.395672    4.543281    0.280304
 C   -0.308520   -0.381367   -0.564411
 O    4.491818   -1.700309   -2.012662
 N    4.804942   -1.641053   -0.845071
 O    5.825750   -2.094065   -0.376721
 C    3.897662   -0.969542    0.059223
 C    2.673263   -0.527658   -0.421933
 C    4.275465   -0.768952    1.380142
 C    3.406177   -0.113366    2.232468
 C    2.175570    0.326343    1.773426
 C    1.812823    0.120728    0.447741
 N    0.544046    0.568256   -0.020832
 N    1.112997    2.719369    0.613383
 O    0.005928   -1.545166   -0.632192
 N   -1.531373    0.079356   -1.012357
 C   -1.988871    1.388529   -0.956928
 O   -3.084940    1.693789   -1.369741
 C   -2.445955   -0.925696   -1.561621
 C   -3.320129   -1.485726   -0.470039
 C   -2.888664   -2.551530    0.311097
 C   -3.717602   -3.002040    1.327070
 N   -4.897836   -2.470656    1.594838
 C   -5.305020   -1.456798    0.851284
 C   -4.559671   -0.923874   -0.189581
 H   -2.294899    4.039814   -0.620924
 H    1.585952    4.619390    1.136752
 H   -0.586771    5.599036    0.378996
 H    2.410303   -0.704585   -1.453207
 H    5.237159   -1.126310    1.714813
 H    3.683208    0.050711    3.261838
 H    1.494101    0.830972    2.439336
 H   -1.837898   -1.713107   -2.009776
 H   -3.052854   -0.425605   -2.318865
 H   -1.928599   -3.009515    0.130888
 H   -3.423264   -3.829230    1.959557
 H   -6.276183   -1.052332    1.104751
 H   -4.925876   -0.088094   -0.764939
