40 
3g4l_ligand_dft.xyz
 O    1.495408    1.537467    0.669246
 C   -5.476416    3.037340   -1.285563
 C   -4.927699    4.294254   -0.668163
 C   -4.772127    2.974787    0.041141
 C    1.280339    0.377680    0.386194
 C   -0.084809   -0.226322    0.393613
 C   -0.311741   -1.592589    0.512292
 C   -1.615710   -2.083640    0.521936
 C   -2.683029   -1.208687    0.400085
 O   -4.009608   -1.579657    0.410307
 C   -4.385799   -2.834175    0.042473
 F   -3.833836   -3.197185   -1.134179
 F   -4.005234   -3.763557    0.956066
 C   -2.467869    0.181013    0.292024
 O   -3.573983    0.942581    0.185398
 C   -3.409906    2.354126    0.123480
 C   -1.164165    0.658110    0.298668
 N    2.300442   -0.498208    0.010664
 C    3.628464   -0.079882   -0.102933
 C    4.320260   -0.170491   -1.316960
Cl    3.515939   -0.784308   -2.736468
 C    5.647785    0.227784   -1.404938
 N    6.320491    0.719557   -0.368255
 C    5.687055    0.800865    0.798430
 C    4.366564    0.401651    0.985414
Cl    3.697552    0.447652    2.581641
 H   -4.960500    2.624696   -2.147936
 H   -6.551936    2.894500   -1.297099
 H   -5.624454    5.014153   -0.251462
 H   -4.044446    4.739757   -1.117903
 H   -5.391592    2.811313    0.918860
 H    0.511245   -2.287025    0.647176
 H   -1.794078   -3.144173    0.636472
 H   -5.472461   -2.839301   -0.037117
 H   -2.871472    2.702301    1.015510
 H   -2.814074    2.621612   -0.761647
 H   -0.946927    1.716949    0.229783
 H    2.028143   -1.249658   -0.608920
 H    6.174622    0.153443   -2.352149
 H    6.251959    1.187738    1.641884
