85 
3g6g_ligand_dft.xyz
 C   -8.922537   -2.017028   -1.511291
 C   -9.955826   -2.321337   -0.627587
 C   -9.658376   -2.646038    0.696021
 C   -8.321589   -2.678813    1.111353
 C   -7.299580   -2.395830    0.223665
 C   -7.596267   -2.048938   -1.098260
 C  -11.940342   -2.927162    1.278984
 C   -5.473099   -1.023763   -1.888832
 C   -4.114866    0.276707   -0.630253
 C   -3.617937   -0.161417   -2.791672
 C    8.267042   -2.371108   -0.333430
 C    8.370192   -3.495780    0.683390
 N    9.800416   -3.909183    0.908590
 C    9.911058   -5.029437    1.909661
 C   10.625220   -2.716929    1.308920
 C   10.507698   -1.584696    0.296622
 N    9.084156   -1.183448    0.074524
 C    8.946077   -0.004232   -0.924201
 C    7.532855    0.476307   -0.934457
 C    6.639954    0.037897   -1.921164
 C    5.303352    0.398362   -1.854920
 C    7.077286    1.306904    0.093880
 C    5.737913    1.678074    0.147266
 C    4.843036    1.220570   -0.822161
 C    3.348485    1.468558   -0.767070
 O    2.605755    0.571189   -1.131592
 N    2.984313    2.680586   -0.289414
 C    1.672515    3.189702   -0.080892
 C    0.531134    2.397143   -0.158593
 C    1.562769    4.538150    0.252631
 C    0.308999    5.083794    0.484962
 C   -0.857708    4.323787    0.397764
 C   -2.201280    4.961563    0.601807
 C   -0.722450    2.959997    0.087054
 N   -1.847387    2.123807   -0.073772
 C   -2.725150    1.784899    0.919295
 N   -2.490319    2.307475    2.131551
 C   -3.333627    2.029043    3.121005
 C   -4.453054    1.216700    2.986905
 C   -4.687087    0.659138    1.740203
 C   -3.828632    0.915897    0.669331
 N   -5.223129   -0.460366   -0.704456
 N   -3.262439    0.451132   -1.657816
 N   -4.688115   -0.900979   -2.988056
 N   -6.578822   -1.779929   -2.050073
 O  -10.576421   -2.946209    1.643940
 H   -9.161719   -1.744888   -2.535785
 H  -10.978521   -2.289487   -0.983901
 H   -8.107414   -2.945270    2.140870
 H   -6.268109   -2.437344    0.551751
 H  -12.251439   -1.930153    0.942560
 H  -12.155007   -3.660763    0.491698
 H  -12.495381   -3.192683    2.178812
 H   -2.949368   -0.032099   -3.640509
 H    7.226426   -2.051720   -0.430235
 H    8.619771   -2.676370   -1.323890
 H    7.812886   -4.365549    0.327965
 H    7.967389   -3.208327    1.659606
 H   10.169849   -4.268332    0.020532
 H    9.523418   -4.681885    2.868372
 H    9.326451   -5.877011    1.550035
 H   10.960334   -5.311393    2.004500
 H   11.668309   -3.031031    1.391512
 H   10.279463   -2.415725    2.302632
 H   10.918521   -1.861068   -0.679565
 H   11.063526   -0.717894    0.661993
 H    8.691950   -0.819318    0.951842
 H    9.285487   -0.387520   -1.890225
 H    9.652852    0.748771   -0.564680
 H    6.991814   -0.577423   -2.746713
 H    4.590046    0.041872   -2.590377
 H    7.766612    1.684406    0.848021
 H    5.390021    2.303828    0.963660
 H    3.717418    3.364950   -0.169168
 H    0.601099    1.345877   -0.401176
 H    2.447413    5.168251    0.318142
 H    0.230844    6.140843    0.722512
 H   -2.570032    4.756802    1.611545
 H   -2.146356    6.044181    0.459080
 H   -2.936123    4.553009   -0.098625
 H   -1.955630    1.594436   -0.937909
 H   -3.094423    2.484809    4.080124
 H   -5.112279    1.029129    3.826129
 H   -5.542386    0.015499    1.564476
 H   -6.720168   -2.101026   -2.997556
