74 
3g6h_ligand_xtb.xyz
 C    6.419551    1.651391   -1.676083
 O    7.338364    0.605033   -1.477776
 C    6.981132   -0.437441   -0.674469
 C    5.725718   -0.566313   -0.103120
 C    7.986661   -1.401015   -0.451125
 O    9.241797   -1.240522   -1.012792
 C    9.296249   -1.291953   -2.425098
 C    7.706148   -2.483844    0.389218
 O    8.546024   -3.489556    0.745624
 C    9.875046   -3.547310    0.274633
 C    6.439457   -2.592925    0.964415
 C    5.452755   -1.653582    0.719819
 N    4.211980   -1.854561    1.315866
 C    3.079606   -1.126848    1.314593
 N    2.990953    0.056279    0.714506
 N    2.062612   -1.717081    1.981349
 C    0.940262   -1.044491    1.976640
 N    0.745451    0.133880    1.411649
 C    1.809023    0.669158    0.790922
 C    1.676944    1.965891    0.149832
 C    2.785830    2.529639   -0.476755
 C    2.678503    3.730314   -1.150956
 C    1.429058    4.333937   -1.188104
 N    0.361908    3.845221   -0.594749
 C    0.452885    2.699079    0.089033
 N   -0.651423    2.232360    0.701371
 C   -1.944079    2.767816    0.674202
 C   -2.969576    1.895518    0.318611
 C   -2.231937    4.079972    1.064067
 C   -1.172633    5.006940    1.564676
 C   -3.557750    4.493553    1.016387
 C   -4.575945    3.645130    0.632309
 C   -4.286878    2.324759    0.295172
 N   -5.351163    1.488496   -0.068949
 C   -5.335648    0.148992   -0.305268
 O   -4.360246   -0.566514   -0.221458
 C   -6.679041   -0.406075   -0.678522
 C   -6.983574   -1.693265   -0.247680
 C   -7.588588    0.285377   -1.471948
 C   -8.799114   -0.293728   -1.814428
 C   -9.117894   -1.561845   -1.363967
 C   -8.202278   -2.257765   -0.582503
 C   -8.574684   -3.635773   -0.111161
 F   -8.864598   -4.459607   -1.135081
 F   -9.675715   -3.616502    0.666927
 F   -7.617819   -4.235867    0.603511
 H    5.515109    1.303684   -2.185542
 H    6.149749    2.128791   -0.729269
 H    6.933517    2.373906   -2.308978
 H    4.945891    0.151898   -0.272914
 H    8.879934   -2.233781   -2.801681
 H    8.763604   -0.455867   -2.881598
 H   10.353303   -1.234132   -2.679928
 H    9.914272   -3.724622   -0.803103
 H   10.428253   -2.637549    0.511957
 H   10.319859   -4.396727    0.793544
 H    6.256432   -3.441743    1.604039
 H    4.116734   -2.714335    1.842606
 H    0.091336   -1.489083    2.482089
 H    3.724928    2.004150   -0.422865
 H    3.528555    4.177446   -1.640568
 H    1.272061    5.262910   -1.722650
 H   -0.543354    1.272915    1.048398
 H   -2.731808    0.877997    0.056560
 H   -0.479038    4.475375    2.213892
 H   -0.599591    5.403786    0.728153
 H   -1.616554    5.832294    2.115755
 H   -3.799213    5.506134    1.305292
 H   -5.597532    3.998124    0.611209
 H   -6.250744    1.948582   -0.089549
 H   -6.259601   -2.234610    0.342125
 H   -7.345067    1.266453   -1.854331
 H   -9.496990    0.244462   -2.437069
 H  -10.061842   -2.018116   -1.619918
