24 
3g6m_ligand_dft.xyz
 N    1.262327   -1.085031   -0.000413
 C    1.863079    0.188541   -0.000049
 C    2.149361   -2.245863   -0.000303
 C   -0.113199   -1.376432    0.000242
 N    1.002915    1.277075   -0.000779
 O    3.073224    0.324549    0.000529
 C    1.538155    2.630586    0.000447
 C   -0.355210    1.077808   -0.000463
 C   -0.901193   -0.180745   -0.000412
 N   -1.306808    2.043090   -0.000054
 O   -0.526412   -2.525981    0.000514
 N   -2.266872    0.016587    0.000121
 C   -2.440582    1.355295    0.000018
 C   -3.285016   -1.017854    0.000122
 H    1.959934   -2.853570    0.887121
 H    1.956011   -2.856353   -0.884931
 H    3.174552   -1.885242   -0.002991
 H    1.190339    3.168067   -0.885174
 H    1.199101    3.163621    0.892208
 H    2.623530    2.556532   -0.004887
 H   -3.427379    1.798698    0.000222
 H   -3.179738   -1.645158   -0.886613
 H   -3.178476   -1.646358    0.885846
 H   -4.265678   -0.538853    0.001115
