84 
3g6z_ligand_xtb.xyz
 O    1.778372   -1.511162    2.935754
 C    1.797431   -0.957344    1.846045
 N    0.833178   -0.068418    1.501626
 C    0.932311    0.862063    0.401715
 C    2.012353    1.912758    0.563324
 C    2.714906    2.015049    1.756042
 C    3.714602    2.956186    1.909280
 C    4.025386    3.799933    0.861534
 C    3.331478    3.722835   -0.336259
 C    3.695410    4.641539   -1.462830
 C    2.306060    2.785038   -0.486898
 C    1.557687    2.745781   -1.788491
 C   -0.213626    0.197618    2.444334
 C   -1.629040   -0.025823    1.998578
 C   -1.010540   -0.933456    3.013765
 C    2.925683   -1.298940    0.904327
 C    4.105830   -1.384014    1.523107
 N    4.861959    0.731440   -0.596987
 C    5.419624   -1.938072    1.058889
 N    5.415228   -2.482312   -0.284195
 C    5.750458   -1.539303   -1.329295
 C    4.742653   -0.383028   -1.517461
 C    3.281411   -0.838867   -1.616679
 C    2.707880   -1.765980   -0.523999
 C    1.263004   -2.137485   -0.794698
 C    0.595771   -2.947639    0.121341
 C   -0.704662   -3.366056   -0.087537
 C    0.577976   -1.781225   -1.951734
 C   -0.714092   -2.214764   -2.182426
 C   -1.373691   -3.005929   -1.251953
 O   -2.620284   -3.476652   -1.597711
 C   -3.653876   -3.418752   -0.645726
 C   -4.456848   -2.121524   -0.780156
 O   -3.675290   -1.076341   -0.214750
 C   -4.189388    0.187522   -0.241260
 C   -3.481708    1.181878   -0.927697
Cl   -2.037746    0.731041   -1.749831
 C   -3.902279    2.497680   -0.951366
 C   -5.065947    2.872858   -0.291685
 C   -5.522536    4.297902   -0.315545
 C   -5.771617    1.906839    0.409419
 C   -5.334945    0.592205    0.445907
Cl   -6.220725   -0.531854    1.416545
 H    1.091406    0.299531   -0.518362
 H   -0.041238    1.356449    0.320017
 H    2.488734    1.350049    2.575886
 H    4.252824    3.024819    2.843438
 H    4.816129    4.528107    0.973545
 H    4.533006    5.275609   -1.183755
 H    3.974589    4.067102   -2.344766
 H    2.855615    5.281585   -1.733115
 H    1.197290    3.741871   -2.042619
 H    2.223470    2.425542   -2.590086
 H    0.703463    2.078533   -1.760238
 H   -0.016558    1.049795    3.090884
 H   -1.777750   -0.430557    1.010760
 H   -2.387401    0.677928    2.309220
 H   -1.316217   -0.860663    4.045775
 H   -0.747306   -1.931076    2.704680
 H    4.147311   -1.064120    2.558175
 H    5.830823    1.011089   -0.494118
 H    4.493734    0.501049    0.317518
 H    5.659729   -2.749802    1.755854
 H    6.205688   -1.168312    1.192006
 H    6.048064   -3.272089   -0.339259
 H    3.282139   -2.698090   -0.598505
 H    5.793092   -2.103921   -2.265099
 H    6.746981   -1.080380   -1.167763
 H    4.994322    0.043534   -2.503132
 H    2.700557    0.080245   -1.683483
 H    3.186859   -1.379681   -2.560746
 H    1.110873   -3.274005    1.012768
 H   -1.180423   -4.002895    0.644114
 H    1.038948   -1.160630   -2.703648
 H   -1.224727   -1.952576   -3.096320
 H   -3.274751   -3.489566    0.377818
 H   -4.314478   -4.265974   -0.851788
 H   -5.414658   -2.229535   -0.261998
 H   -4.641672   -1.913181   -1.842087
 H   -3.321579    3.228200   -1.492129
 H   -4.897324    4.899359    0.343682
 H   -6.552600    4.382039    0.018399
 H   -5.440165    4.708945   -1.318959
 H   -6.666469    2.172874    0.950369
