82 
3g6z_ligand_dft.xyz
 O    4.693845    5.343419    3.094409
 C    5.170207    6.359600    2.593820
 N    4.396170    7.177117    1.808910
 C    3.064382    6.689848    1.485785
 C    1.983186    7.070810    2.490289
 C    2.286443    7.879343    3.584493
 C    1.298667    8.283475    4.472082
 C   -0.012920    7.874433    4.273077
 C   -0.340185    7.038153    3.206683
 C   -1.765131    6.577041    3.024320
 C    0.664179    6.620839    2.314082
 C    0.291569    5.654300    1.214396
 C    4.874910    8.342707    1.118766
 C    5.468188    9.475628    1.901318
 C    4.120368    9.639693    1.259180
 C    6.570881    6.759200    2.940514
 C    6.790939    6.947492    4.435441
 N    7.887062    7.874725    4.720400
 C    7.108853    5.611472    5.126008
 N    8.367498    5.098464    4.604935
 C    9.452489    6.041936    4.815603
 C    9.115643    7.357859    4.109654
 C    8.990120    7.203485    2.579624
 C    7.602061    6.842819    2.087899
 C    7.460326    6.607667    0.629511
 C    6.720919    5.525049    0.137176
 C    6.517956    5.355807   -1.226126
 C    8.045878    7.475544   -0.299165
 C    7.860499    7.307244   -1.664843
 C    7.068997    6.259333   -2.129546
 O    6.851762    6.041924   -3.468864
 C    6.369879    7.130450   -4.233049
 C    4.870143    7.299149   -4.091632
 O    4.621332    7.623309   -2.726282
 C    3.350177    7.906510   -2.363687
 C    2.381762    6.920578   -2.149725
Cl    2.782356    5.245590   -2.414147
 C    1.118863    7.240104   -1.670829
 C    0.796203    8.552465   -1.329267
 C   -0.522869    8.864899   -0.671010
 C    1.742983    9.550006   -1.557718
 C    2.984955    9.227952   -2.088708
Cl    4.143743   10.492022   -2.402328
 H    2.802597    7.095542    0.503949
 H    3.121243    5.601754    1.398651
 H    3.314333    8.189670    3.742229
 H    1.552869    8.914795    5.318459
 H   -0.792667    8.192916    4.960395
 H   -2.411557    6.981071    3.808278
 H   -2.174666    6.896166    2.057513
 H   -1.843426    5.483744    3.056818
 H    1.118429    5.439542    0.536953
 H   -0.036391    4.697898    1.640117
 H   -0.543612    6.033250    0.613043
 H    5.306207    8.142282    0.138899
 H    5.496016    9.369222    2.981811
 H    6.326291    9.984689    1.473686
 H    4.045895   10.263302    0.375566
 H    3.248227    9.654576    1.903887
 H    5.877728    7.349323    4.890353
 H    7.666293    8.779488    4.309833
 H    7.141988    5.804736    6.213566
 H    6.308838    4.901513    4.907529
 H    8.582507    4.200276    5.022333
 H    9.626454    6.273902    5.882639
 H   10.376187    5.624273    4.399774
 H    9.921239    8.067247    4.330714
 H    9.291430    8.148181    2.104733
 H    9.697063    6.448042    2.215692
 H    6.290251    4.813749    0.835582
 H    5.919784    4.534687   -1.605777
 H    8.642151    8.315906    0.043488
 H    8.327546    7.996105   -2.361450
 H    6.867005    8.068014   -3.959937
 H    6.607936    6.903447   -5.275975
 H    4.522224    8.113566   -4.741478
 H    4.355056    6.371731   -4.362872
 H    0.396307    6.445131   -1.526939
 H   -0.454407    8.681856    0.408901
 H   -0.807458    9.910714   -0.816243
 H   -1.324850    8.234091   -1.066528
 H    1.519654   10.585138   -1.320638
