77 
3g72_ligand_dft.xyz
 C   -0.280737   -2.981218    1.812337
Cl   -5.132883   -2.910635   -2.459789
 C   -4.871726   -1.996334   -1.007761
 C   -4.143157   -0.794301   -1.027748
Cl   -3.589655   -0.155922   -2.545880
 C   -5.387900   -2.484339    0.194238
 C   -5.177317   -1.773102    1.370607
 C   -4.421335   -0.605783    1.352835
 C   -3.875809   -0.108173    0.167157
 C   -2.992322    1.127586    0.211614
 N   -2.054331    1.110394    1.338020
 C   -2.118823    2.175862    2.314951
 C   -0.885545    2.969548    2.622634
 C   -1.992382    3.594406    1.824621
 C   -1.204889    0.079906    1.550947
 O   -0.543986   -0.081016    2.575302
 C   -1.116451   -0.999863    0.500061
 C   -1.477218   -2.335637    1.110956
 N   -1.982097   -3.248061    0.025583
 C   -0.903757   -3.444715   -1.010546
 C   -0.641047   -2.096878   -1.679992
 N    0.796607   -3.241005    0.806539
 C    0.314171   -4.078283   -0.333196
 C   -0.609127   -0.894788   -0.745597
 C    0.011900    0.324682   -1.296628
 C    0.104183    0.525828   -2.681670
 C    0.883061    1.549286   -3.198270
 C    0.675084    1.228620   -0.452978
 C    1.421840    2.269220   -0.978384
 C    1.588116    2.414740   -2.357342
 C    2.572371    3.405931   -2.919953
 C    4.008705    2.845119   -3.005756
 C    4.672016    2.571679   -1.663815
 O    4.278260    1.257636   -1.202513
 C    4.185200    0.958130    0.094140
 C    4.681570    1.701941    1.181175
 F    5.406949    2.803711    0.953124
 C    3.519011   -0.235772    0.425835
Cl    2.984679   -1.300208   -0.847579
 C    3.309794   -0.591319    1.751323
 F    2.626304   -1.739441    2.011430
 C    3.754538    0.178168    2.803472
 C    4.463098    1.333866    2.496891
 H   -0.526095   -3.933943    2.291606
 H    0.095893   -2.265861    2.547174
 H   -5.981995   -3.392144    0.186631
 H   -5.615016   -2.126370    2.298485
 H   -4.244183   -0.064611    2.277804
 H   -2.450785    1.257769   -0.727550
 H   -3.616779    2.014737    0.340377
 H   -2.804348    1.980589    3.136617
 H   -0.737470    3.272420    3.652949
 H    0.025582    2.710368    2.094749
 H   -1.810540    3.745166    0.764182
 H   -2.622166    4.345581    2.288579
 H   -2.287807   -2.228843    1.835226
 H   -2.815436   -2.804834   -0.401049
 H   -2.302682   -4.143519    0.410287
 H   -1.283340   -4.162060   -1.742396
 H    0.296235   -2.167729   -2.240419
 H   -1.424865   -1.925468   -2.428050
 H    1.599067   -3.685546    1.264643
 H    1.180693   -2.343664    0.461411
 H    0.084255   -5.071125    0.065403
 H    1.125972   -4.177299   -1.056513
 H   -0.419647   -0.124451   -3.375637
 H    0.964853    1.664098   -4.275236
 H    0.694979    1.071445    0.619364
 H    1.942562    2.939511   -0.299585
 H    2.259194    3.707474   -3.924461
 H    2.581868    4.314247   -2.305954
 H    4.624516    3.587406   -3.524931
 H    4.033427    1.934384   -3.613995
 H    5.760903    2.578544   -1.751256
 H    4.377417    3.327551   -0.934370
 H    3.570509   -0.127384    3.825818
 H    4.870566    1.964097    3.279102
