77 
3g72_ligand_xtb.xyz
 C    0.827475    3.359582    2.233766
Cl    6.644290    0.814453   -1.042909
 C    5.704438   -0.585713   -0.658810
 C    4.331133   -0.589931   -0.853014
Cl    3.614977    0.800876   -1.568622
 C    6.337057   -1.710965   -0.157684
 C    5.587424   -2.839603    0.116360
 C    4.219164   -2.834010   -0.078075
 C    3.555084   -1.702569   -0.544808
 C    2.047708   -1.670105   -0.559674
 N    1.494306   -1.341105    0.749341
 C    1.752580   -2.353061    1.731936
 C    0.708290   -2.624364    2.769571
 C    0.948661   -3.614772    1.670903
 C    1.967605   -0.036972    1.221975
 O    3.111445    0.040646    1.720616
 C    1.086192    1.022052    1.125454
 C    1.668913    2.325560    1.493672
 N    2.097042    3.004685    0.158353
 C    0.874960    3.289260   -0.630220
 C    0.163943    1.972168   -0.956407
 N   -0.321218    3.774650    1.452530
 C    0.040225    4.303605    0.157026
 C   -0.179440    1.156093    0.306658
 C   -0.893919   -0.133855    0.022675
 C   -0.966490   -0.734959   -1.226393
 C   -1.678174   -1.906753   -1.411090
 C   -1.591659   -0.727791    1.068791
 C   -2.298798   -1.898933    0.887166
 C   -2.351418   -2.509592   -0.359745
 C   -3.164075   -3.755810   -0.578254
 C   -4.495128   -3.447873   -1.279686
 C   -5.287509   -2.360145   -0.552993
 O   -4.868543   -1.095240   -1.059361
 C   -4.588254   -0.041944   -0.282908
 C   -4.889555    0.161932    1.067536
 F   -5.582285   -0.764341    1.774845
 C   -3.928689    1.018612   -0.933166
Cl   -3.563348    0.852315   -2.601860
 C   -3.584668    2.171657   -0.249658
 F   -2.974918    3.173250   -0.910793
 C   -3.855079    2.324669    1.097022
 C   -4.518548    1.306047    1.749438
 H    1.478889    4.216043    2.501517
 H    0.468193    2.907669    3.159453
 H    7.403096   -1.694234    0.004264
 H    6.076359   -3.725713    0.491616
 H    3.639173   -3.718625    0.135337
 H    1.680032   -0.925044   -1.266921
 H    1.658066   -2.650105   -0.849473
 H    2.789375   -2.424837    2.064849
 H    1.040244   -2.864884    3.768389
 H   -0.197263   -2.045326    2.725303
 H    0.194041   -3.681732    0.901460
 H    1.431168   -4.552132    1.907540
 H    2.590836    2.126442    2.050637
 H    2.677413    2.300662   -0.332624
 H    2.635767    3.860175    0.317103
 H    1.176686    3.762461   -1.573974
 H   -0.738140    2.201614   -1.524129
 H    0.834230    1.395539   -1.596265
 H   -0.884845    4.441656    1.967115
 H   -0.875171    1.763572    0.895637
 H    0.625916    5.243696    0.230470
 H   -0.875175    4.517586   -0.396687
 H   -0.477239   -0.295031   -2.081542
 H   -1.715506   -2.357263   -2.393608
 H   -1.574066   -0.253087    2.039502
 H   -2.818324   -2.346342    1.724851
 H   -2.603367   -4.464934   -1.191563
 H   -3.371047   -4.230307    0.383840
 H   -5.096719   -4.356693   -1.328490
 H   -4.309109   -3.102907   -2.297510
 H   -6.359879   -2.457475   -0.760873
 H   -5.125306   -2.447783    0.519475
 H   -3.554700    3.224132    1.606002
 H   -4.770230    1.383095    2.794675
