57 
3g86_ligand_xtb.xyz
 C   -3.944551   -2.458970    0.226616
 C   -4.962611   -1.499547    0.223308
 C   -2.619727   -2.084906    0.195364
 C   -4.606601   -0.156418    0.200354
 C   -2.254630   -0.733250    0.145553
 C   -3.276006    0.208490    0.155970
 S   -2.901728    1.943330   -0.008428
 C   -1.146365    1.955612   -0.218099
 C   -0.396550    0.846589   -0.100384
 N   -0.918882   -0.401553    0.114005
 N   -6.291682   -1.883829    0.201641
 S   -7.627725   -0.878315    0.185062
 C   -7.599252   -0.197690   -1.485122
 O   -8.737162   -1.775181    0.305213
 O   -7.481707    0.173757    1.137323
 O   -3.535529    2.413831   -1.216411
 O   -3.227338    2.642887    1.205541
 C    5.317356    3.210694    0.298057
 C    5.981061    2.175070   -0.348601
 C    5.259974    1.089416   -0.784319
 C    3.962138    3.175611    0.511428
 C    3.213527    2.071685    0.075210
 C    3.873432    1.011422   -0.583393
 N    3.154018   -0.076440   -0.999625
 C    1.788692   -0.214595   -0.799667
 C    1.083524    0.908624   -0.209815
 C    1.785142    1.994501    0.254783
 F    6.018259    4.275835    0.724808
 O    1.133907    2.979757    0.885866
 C    3.826503   -1.189215   -1.653834
 O    1.249238   -1.270523   -1.118824
 C    4.776919   -1.929097   -0.748884
 C    4.497636   -2.078111    0.604018
 C    6.505535   -3.324807    0.884982
 C    6.804211   -3.200985   -0.459754
 C    5.360930   -2.772821    1.430673
 C    5.933091   -2.497434   -1.270780
 F    7.353022   -4.000818    1.684122
 H   -4.205346   -3.506659    0.251339
 H   -1.846402   -2.838712    0.193654
 H   -5.348866    0.622019    0.246026
 H   -0.732357    2.926608   -0.399209
 H   -0.277948   -1.168650   -0.071487
 H   -6.503520   -2.863659    0.275645
 H   -7.758641   -1.015226   -2.174903
 H   -8.405846    0.521259   -1.552428
 H   -6.646677    0.286569   -1.654121
 H    7.046495    2.235302   -0.499171
 H    5.785385    0.289069   -1.274167
 H    3.510815    4.022449    1.007784
 H    1.744044    3.620454    1.274287
 H    4.338591   -0.829968   -2.550704
 H    3.026161   -1.871787   -1.964388
 H    3.595588   -1.652060    1.016702
 H    7.702906   -3.647449   -0.854160
 H    5.155635   -2.893513    2.482196
 H    6.153981   -2.394129   -2.323206
