40 
3g8o_ligand_dft.xyz
 C    0.491568   -0.899397    1.784983
 C    4.166832   -1.182289    1.283964
 C    2.383775   -0.127578   -0.097604
 C    1.051576    0.179347   -0.291339
 C    3.400526    0.303789   -1.130799
 C   -1.527566   -2.558418   -1.091645
 C   -3.774966   -2.409640   -2.071522
 C   -3.027776   -0.029025    2.200508
 C   -2.322847   -0.749346    1.058540
 N   -1.277329    0.053769    0.413508
 C   -1.705770    1.080130   -0.507818
 C   -1.480327    2.504270   -0.011973
 F   -2.123900    2.741725    1.138051
 F   -1.942847    3.366350   -0.931138
 F   -0.184047    2.782116    0.192133
 C    0.066304   -0.208043    0.637793
 C    1.827668   -1.211521    1.973749
 C    2.796166   -0.839979    1.040454
 N    5.260580   -1.483722    1.520641
 F    4.319358    1.118072   -0.597514
 F    2.826504    0.958421   -2.153590
 F    4.044092   -0.754014   -1.644799
 C   -3.339129   -1.212269   -0.009736
 O   -4.484142   -0.781408    0.007156
 N   -2.889844   -2.071352   -0.969630
 H   -0.215616   -1.166879    2.560982
 H    0.785300    0.736362   -1.177563
 H   -1.554825   -3.555661   -1.539994
 H   -1.034710   -2.646004   -0.122997
 H   -0.915798   -1.909195   -1.731656
 H   -4.747319   -1.954957   -1.891285
 H   -3.366015   -2.034122   -3.017794
 H   -3.887373   -3.496804   -2.146549
 H   -3.724562   -0.706590    2.700562
 H   -3.599814    0.823110    1.832258
 H   -2.288822    0.327166    2.924052
 H   -1.838629   -1.644064    1.454902
 H   -2.781907    0.983428   -0.666250
 H   -1.232231    0.990133   -1.491765
 H    2.132965   -1.739743    2.870605
