37 
3g90_ligand_dft.xyz
 O    4.978343   -1.314690   -0.649150
 N    3.965937   -1.961719    0.009483
 C    2.981308   -1.183980    0.257408
 C    1.770041   -1.734714    0.975275
 O    1.550378   -2.868230    1.343833
 N    0.916959   -0.656028    1.124416
 C   -0.405954   -0.774107    1.705948
 C   -1.488444   -0.889051    0.654214
 C   -1.534543   -2.016390   -0.162851
 C   -2.505690   -2.107776   -1.145655
 F   -2.541360   -3.194875   -1.931682
 C   -3.450702   -1.113776   -1.333165
 C   -3.422698    0.012583   -0.516775
 C   -4.446304    1.115199   -0.658381
 O   -4.399575    2.003181    0.444683
 C   -3.091853    2.334648    0.757082
 O   -2.370899    1.230827    1.271015
 C   -2.432697    0.123453    0.463562
 C    1.441531    0.494142    0.521323
 C    0.865576    1.749584    0.428038
 C    1.592067    2.754403   -0.215184
 C    2.847507    2.481063   -0.737183
 F    3.521490    3.468674   -1.351025
 C    3.436936    1.224993   -0.653462
 C    2.713890    0.226813   -0.014950
 H    5.640850   -2.007770   -0.768659
 H   -0.586599    0.081781    2.359613
 H   -0.384514   -1.677807    2.320196
 H   -0.812972   -2.817259   -0.033561
 H   -4.207639   -1.230412   -2.102877
 H   -5.458855    0.704553   -0.673939
 H   -4.290020    1.671125   -1.596468
 H   -3.113859    3.080199    1.550164
 H   -2.559537    2.717395   -0.130676
 H   -0.119028    1.947361    0.837600
 H    1.187750    3.755736   -0.315345
 H    4.417195    1.043907   -1.073473
