47 
3g9n_ligand_dft.xyz
 O    2.872156    3.214561   -1.010846
 N    2.948677    1.905347   -0.636998
 C    1.850250    1.260927   -0.776209
 C    0.518001    1.769416   -1.289741
 O    0.182701    2.895042   -1.593505
 N   -0.298821    0.655252   -1.334645
 C   -1.691821    0.724319   -1.730539
 C   -2.625852    0.764581   -0.540152
 C   -2.601040    1.863866    0.315073
 C   -3.430913    1.885372    1.423340
 F   -3.398161    2.946272    2.245218
 C   -4.303123    0.847646    1.703180
 C   -4.346414   -0.251165    0.850587
 C   -5.296628   -1.400784    1.094004
 O   -5.365551   -2.258563   -0.031469
 C   -4.100784   -2.518175   -0.533867
 O   -3.510595   -1.368241   -1.107881
 C   -3.498573   -0.290305   -0.259701
 C    0.353860   -0.482822   -0.850308
 C   -0.160944   -1.764098   -0.749873
 C    0.694328   -2.756896   -0.272756
 C    2.003428   -2.466852    0.093885
 C    2.521524   -1.165828    0.005010
 C    1.673600   -0.167978   -0.481149
 C    3.921950   -0.919146    0.440293
 C    4.214716    0.020101    1.432796
 C    5.520768    0.198833    1.871279
 C    6.554885   -0.555019    1.320191
 C    6.273445   -1.492238    0.331454
 C    4.963478   -1.676361   -0.101415
 H    3.770913    3.530778   -0.849089
 H   -1.921761   -0.123946   -2.378397
 H   -1.792894    1.642180   -2.315094
 H   -1.933715    2.697103    0.117229
 H   -4.949632    0.908756    2.573451
 H   -6.313225   -1.035178    1.258867
 H   -4.991941   -1.972237    1.985179
 H   -4.201631   -3.243909   -1.339126
 H   -3.431965   -2.896746    0.258022
 H   -1.184838   -1.981647   -1.033613
 H    0.327711   -3.774857   -0.179358
 H    2.642436   -3.253902    0.482204
 H    3.410572    0.608577    1.863469
 H    5.732615    0.927343    2.648466
 H    7.575774   -0.412371    1.662129
 H    7.073695   -2.082301   -0.105452
 H    4.743808   -2.405038   -0.877033
