35 
3ga5_ligand_xtb.xyz
 O    4.514304    0.034031   -0.876244
 C    4.327091   -0.576591    0.371119
 C    2.843098   -0.596165    0.767501
 O    2.431116    0.749404    0.840525
 C    2.031599   -1.402458   -0.260609
 O    0.695634   -1.651969    0.171312
 C   -0.295108   -0.872034   -0.398704
 C   -1.646054   -1.404323    0.097330
 O   -1.862961   -2.732697   -0.303905
 C   -2.768239   -0.537800   -0.484032
 O   -4.015233   -0.908532    0.047347
 C   -2.525743    0.937576   -0.121072
 O   -2.673266    1.130340    1.258584
 C   -1.109863    1.346403   -0.547195
 O   -0.138674    0.469145   -0.004679
 C   -0.740482    2.753958   -0.058607
 O    0.494216    3.176471   -0.563423
 H    4.096223    0.903829   -0.824950
 H    4.715193   -1.592946    0.288580
 H    4.883714   -0.041162    1.152015
 H    2.732575   -1.080933    1.749823
 H    1.461522    0.752826    0.883533
 H    2.498761   -2.383519   -0.383625
 H    2.033465   -0.881248   -1.222713
 H   -0.256884   -0.929886   -1.509146
 H   -1.652385   -1.318359    1.194714
 H   -1.084959   -3.245679   -0.054496
 H   -2.767964   -0.656598   -1.579116
 H   -4.085790   -1.868116   -0.029142
 H   -3.253550    1.556006   -0.670403
 H   -3.476328    0.656593    1.518381
 H   -1.049172    1.308318   -1.647314
 H   -0.753241    2.748040    1.037045
 H   -1.484750    3.464294   -0.422055
 H    1.184686    2.587599   -0.231654
