40 
3gb2_ligand_dft.xyz
 O   -6.062683   -0.900019    1.450430
 S   -5.263253   -1.820009   -0.068927
 C   -6.664202   -1.063634   -0.945912
 C   -3.837028   -0.691622   -0.063307
 C   -2.708732   -1.034707   -0.808011
 C   -3.850457    0.483616    0.681124
 C   -2.735433    1.313224    0.672423
 C   -1.592076    0.981483   -0.059785
 C   -1.591675   -0.210940   -0.792832
 C   -0.423007    1.872256   -0.074837
 C    0.983259    1.512380   -0.068747
 C    1.680640    2.726514   -0.098600
 O    0.814363    3.771223   -0.123167
 C   -0.435435    3.227125   -0.108234
 C    3.065273    2.818699   -0.092024
 C    1.701310    0.319018   -0.010098
 C    3.093293    0.386694   -0.007003
 C    3.765885    1.624286   -0.050449
 C    3.848864   -0.862554    0.042262
 O    5.204360   -0.824318    0.087105
 C    5.540938   -2.138969    0.122724
 C    6.975710   -2.507900    0.176920
 N    4.505439   -2.908548    0.101863
 N    3.396308   -2.074598    0.048373
 H   -5.623950   -1.288451    2.219620
 H   -6.431813   -0.010767   -1.114405
 H   -6.805635   -1.577833   -1.897587
 H   -7.527029   -1.144247   -0.290501
 H   -2.694664   -1.938523   -1.409924
 H   -4.737941    0.700757    1.265035
 H   -2.743651    2.221638    1.268334
 H   -0.723562   -0.480334   -1.386750
 H   -1.247090    3.938214   -0.148525
 H    3.567562    3.778791   -0.116852
 H    1.209672   -0.646452    0.042921
 H    4.850317    1.638753   -0.046776
 H    7.451345   -2.086486    1.067669
 H    7.506619   -2.131828   -0.702883
 H    7.057384   -3.595034    0.207453
 H   -4.758815   -2.280921   -1.314251
