25 
3gbe_ligand_xtb.xyz
 C    0.050948    1.607745    0.327980
 C    1.422389    0.931512    0.476421
 O    2.116128    1.080758   -0.734529
 C    1.178308   -0.542805    0.866884
 O    0.445559   -0.635446    2.059751
 C    0.365917   -1.255848   -0.242339
 O    1.164585   -1.421876   -1.397468
 C   -0.882181   -0.470047   -0.673569
 N   -0.586205    0.980477   -0.848223
 C   -2.082931   -0.593463    0.273584
 O   -2.993015    0.407971   -0.135707
 H   -0.554264    1.455687    1.219839
 H    0.179145    2.673425    0.138874
 H    1.989403    1.434615    1.270295
 H    2.235624    0.222860   -1.168922
 H    2.145999   -1.058238    0.948701
 H    1.022149   -0.507362    2.821569
 H    0.027925   -2.218111    0.157746
 H    1.607320   -2.276737   -1.398428
 H   -1.175859   -0.847624   -1.659719
 H   -1.497734    1.418589   -1.047389
 H    0.080434    1.106095   -1.625299
 H   -2.513600   -1.594355    0.171538
 H   -1.775538   -0.454114    1.316100
 H   -3.848333    0.268115    0.282514
