35 
3gc5_ligand_dft.xyz
 C    2.926649   -1.576324    0.106248
 O    3.277748   -2.735306    0.243826
 N    3.889904   -0.565970    0.021565
 C    3.585359    0.765628   -0.122857
 N    4.671121    1.624306   -0.132699
 N    2.386138    1.225017   -0.201279
 C    1.331163    0.320018   -0.106742
 C    0.016516    0.826248   -0.167807
 C   -0.251294    2.303225   -0.345562
 C   -1.201901    2.950764    0.674839
 N   -2.619398    2.803905    0.290709
 C   -0.992520   -0.122791   -0.078882
 N   -2.362547    0.033505   -0.103089
 C   -2.892265   -1.224661    0.044694
 N   -4.246259   -1.417898    0.134351
 C   -5.161503   -0.469025   -0.466821
 N   -2.002460   -2.183167    0.118396
 C   -0.786129   -1.518431    0.055801
 C    0.506855   -2.002342    0.107241
 C    1.553852   -1.078063    0.027633
 H    4.843910   -0.867141    0.169140
 H    4.391678    2.563149   -0.384001
 H    5.476799    1.307673   -0.656141
 H   -0.648205    2.489072   -1.355412
 H    0.713133    2.813040   -0.298587
 H   -0.929455    4.010255    0.788703
 H   -1.070966    2.476373    1.652545
 H   -3.213690    3.198671    1.015059
 H   -2.795976    3.346049   -0.551997
 H   -2.803126    0.958390   -0.010868
 H   -4.484624   -2.394045    0.033552
 H   -5.075665    0.503907    0.028741
 H   -4.994817   -0.324571   -1.544320
 H   -6.182643   -0.823369   -0.312593
 H    0.727488   -3.058369    0.213185
