35 
3gc5_ligand_xtb.xyz
 C    2.923829   -1.572382    0.091614
 O    3.281889   -2.727966    0.199554
 N    3.884944   -0.566318    0.006596
 C    3.574860    0.762104   -0.110903
 N    4.626978    1.640149   -0.100813
 N    2.372993    1.209942   -0.173929
 C    1.329714    0.314550   -0.097228
 C    0.023582    0.823246   -0.159685
 C   -0.221484    2.298670   -0.326193
 C   -1.218833    2.896323    0.674888
 N   -2.599756    2.785410    0.194860
 C   -0.993223   -0.105879   -0.075018
 N   -2.354953    0.054374   -0.103724
 C   -2.889063   -1.199606    0.027361
 N   -4.228925   -1.423057    0.124352
 C   -5.184624   -0.468775   -0.385195
 N   -1.992960   -2.148160    0.107619
 C   -0.779084   -1.506878    0.054662
 C    0.507628   -1.998597    0.105609
 C    1.556060   -1.081206    0.032139
 H    4.850124   -0.864480    0.073555
 H    4.383448    2.580751   -0.363858
 H    5.516983    1.309965   -0.436287
 H   -0.583235    2.494539   -1.340709
 H    0.743928    2.790780   -0.213009
 H   -0.945423    3.945570    0.862379
 H   -1.155109    2.358514    1.623990
 H   -3.236359    3.180680    0.879969
 H   -2.705061    3.315605   -0.665612
 H   -2.791944    0.975506   -0.084474
 H   -4.461657   -2.397520    0.004590
 H   -5.101165   -0.317644   -1.468608
 H   -6.187003   -0.825429   -0.157895
 H   -5.040051    0.490962    0.111876
 H    0.722993   -3.049872    0.200621
