68 
3gcq_ligand_xtb.xyz
 C   -8.056994   -1.334985    0.136433
 C   -7.204933   -0.206814    0.010912
 C   -5.796428   -0.504659    0.036323
 N   -5.367310   -1.741870    0.192735
 N   -7.569741   -2.589147    0.286981
 C    4.421926    4.801970    1.337654
 C    5.220252    3.785534    0.578318
 C    4.884236    2.440569    0.623286
 C    6.321775    4.180578   -0.172913
 C    7.085123    3.244672   -0.848188
 C    6.743794    1.906234   -0.813555
 C    5.627556    1.501746   -0.088808
 N    5.295750    0.143723   -0.066165
 N    6.268609   -0.786583   -0.060340
 C    5.672316   -1.959501   -0.025815
 C    6.436350   -3.249696    0.026125
 C    6.147793   -3.931681    1.369286
 C    7.934801   -2.975224   -0.103412
 C    5.974298   -4.155862   -1.120787
 C    4.268550   -1.806196   -0.034940
 C    4.064307   -0.448310   -0.066249
 N    2.903986    0.304715   -0.168696
 C    1.629487   -0.211796   -0.036197
 O    1.407050   -1.364134    0.243393
 N    0.674956    0.755784   -0.244227
 C   -0.717234    0.623605   -0.192216
 C   -1.363901   -0.588143    0.031652
 C   -2.742343   -0.653525    0.063505
 C   -1.484033    1.771465   -0.381930
 C   -2.860461    1.706903   -0.349031
 C   -3.511271    0.492344   -0.127634
 N   -4.901265    0.507391   -0.108029
 C   -7.773118    1.067774   -0.119933
 C   -9.144913    1.234935   -0.142023
 N   -9.706604    2.478190   -0.342890
 C   -9.980640    0.104139   -0.028776
 C   -9.452321   -1.145858    0.108830
 C   -6.277202   -2.711515    0.312237
 H    4.031022    5.561019    0.660867
 H    3.589899    4.338400    1.862018
 H    5.052541    5.305370    2.068942
 H    4.068685    2.118222    1.255326
 H    6.588906    5.226376   -0.211473
 H    7.950486    3.561599   -1.410627
 H    7.327558    1.159224   -1.326159
 H    6.474054   -3.298011    2.190997
 H    5.083092   -4.120513    1.481919
 H    6.677965   -4.879699    1.430242
 H    8.148863   -2.499096   -1.056277
 H    8.263092   -2.307249    0.687467
 H    8.494612   -3.905738   -0.039852
 H    4.914827   -4.380915   -1.031851
 H    6.144185   -3.670213   -2.079343
 H    6.529287   -5.091400   -1.103758
 H    3.510924   -2.558836   -0.019785
 H    3.033835    1.267501   -0.445476
 H    0.991491    1.692811   -0.450144
 H   -0.779094   -1.479299    0.181949
 H   -3.240624   -1.592267    0.233222
 H   -0.998654    2.722146   -0.557660
 H   -3.438216    2.609230   -0.498710
 H   -5.304056    1.422081   -0.251595
 H   -7.154187    1.951904   -0.205132
 H   -9.126993    3.277539   -0.146110
 H  -10.671966    2.582811   -0.077527
 H  -11.051638    0.248416   -0.050857
 H  -10.080367   -2.017050    0.203847
 H   -5.875226   -3.708940    0.439885
