48 
3gcs_ligand_dft.xyz
 C   -4.761175    0.135143   -0.013197
 C   -4.516341   -1.202751    0.303767
 C   -5.592764   -2.026093    0.642821
 C   -6.884822   -1.526485    0.665300
 C   -2.042400   -1.184946   -0.071709
 C    0.387748   -1.757561   -0.188372
 C    0.806163   -0.675475   -0.969990
 C    2.161071   -0.493735   -1.221773
 C    3.096181   -1.380318   -0.705620
 C    2.692202   -2.460447    0.066804
 C    1.340758   -2.644958    0.322929
 O    4.438811   -1.222957   -1.002828
 C    4.701197    0.300223    0.877779
 C    5.591974    1.109999    1.576097
 C    7.317660    0.581584    0.189939
 C    6.526828   -0.252379   -0.582168
 N    9.460006    1.579428    0.619366
 C   10.862606    1.847421    0.401997
 C   -7.126199   -0.195176    0.349502
 C   -6.058770    0.638586    0.008121
 C   -6.268538    2.095940   -0.344521
 F   -5.109358    2.703115   -0.639734
 F   -7.069737    2.235293   -1.410404
 F   -6.821368    2.774167    0.671729
Cl   -8.774518    0.371370    0.396668
 N   -3.234652   -1.775344    0.317915
 N   -0.964292   -2.032985    0.096371
 O   -1.958728   -0.054046   -0.511862
 C    5.186230   -0.395279   -0.228713
 N    6.874765    1.261636    1.256996
 C    8.773720    0.742798   -0.185365
 O    9.262846    0.154657   -1.140710
 H   -3.938050    0.779010   -0.283072
 H   -5.426308   -3.070951    0.893555
 H   -7.714524   -2.172378    0.929215
 H    0.078153    0.017112   -1.366685
 H    2.496677    0.340963   -1.828484
 H    3.433833   -3.147564    0.459802
 H    1.026554   -3.491004    0.929847
 H    3.667211    0.222138    1.191051
 H    5.243621    1.666467    2.443172
 H    6.949767   -0.772415   -1.433147
 H    8.946342    2.006069    1.377360
 H   11.451648    0.927384    0.475708
 H   11.027234    2.273496   -0.592929
 H   11.209086    2.555713    1.156690
 H   -3.217638   -2.756158    0.553057
 H   -1.116808   -2.891281    0.604083
