82 
3gds_ligand_dft.xyz
 N    2.067667    1.100145    0.986253
 C    1.338039    0.307538    2.022373
 C   -0.139053    0.543713    1.676804
 O   -0.468429    1.688561    1.368836
 C    1.673124    0.787297    3.444462
 C    3.175044    0.725444    3.736003
 C    0.890963   -0.042498    4.467635
 N   -0.952169   -0.525128    1.721820
 C   -2.303561   -0.580269    1.133029
 C   -2.104546   -0.772500   -0.378739
 O   -2.313399   -1.841416   -0.924380
 C   -3.237659    0.571345    1.532610
 C   -4.604767    0.368023    0.923861
 C   -5.536484   -0.493487    1.511687
 C   -4.953830    0.999332   -0.268502
 C   -6.775770   -0.718576    0.933826
 C   -6.193280    0.785804   -0.862298
 C   -7.109434   -0.076984   -0.261258
 O   -8.334780   -0.332743   -0.780165
 N   -1.538472    0.289694   -1.041653
 C   -0.748654   -0.019921   -2.221507
 C    0.421043   -0.893944   -1.748318
 O    1.284135   -0.457713   -0.989606
 C   -0.293300    1.252754   -2.962954
 C    0.564236    2.225332   -2.182711
 C    1.960913    2.196497   -2.282430
 C   -0.005537    3.188714   -1.351941
 C    2.759923    3.073474   -1.564910
 C    0.779562    4.072462   -0.613507
 C    2.168677    4.019911   -0.720712
 O    3.000656    4.833595   -0.021922
 N    0.440435   -2.176746   -2.160511
 C    1.347802   -3.180979   -1.628335
 C    1.064089   -3.502395   -0.160136
 O    0.441400   -2.830365    0.626698
 C    2.862620   -2.945935   -1.898737
 C    3.637930   -1.966979   -1.038649
 C    3.915518   -2.243896    0.302394
 C    4.157690   -0.795263   -1.592815
 C    4.662172   -1.359187    1.076784
 C    4.910649    0.089937   -0.828385
 C    5.160964   -0.183430    0.516894
 O    1.610394   -4.680539    0.161382
 H    1.765036    2.080965    1.011035
 H    3.085503    1.025276    1.074522
 H    1.812425    0.721251    0.045284
 H    1.634422   -0.734576    1.869319
 H    1.338162    1.830898    3.516951
 H    3.552143   -0.297607    3.632403
 H    3.770003    1.378078    3.086666
 H    3.365410    1.048654    4.763014
 H    1.130397    0.290542    5.480895
 H   -0.189895    0.050188    4.331892
 H    1.155328   -1.104319    4.393962
 H   -0.487841   -1.426825    1.749962
 H   -2.742812   -1.517460    1.480289
 H   -2.817997    1.529766    1.223233
 H   -3.294080    0.589810    2.626873
 H   -5.292064   -0.992803    2.446854
 H   -4.246191    1.670959   -0.748446
 H   -7.500956   -1.381840    1.392645
 H   -6.446738    1.293172   -1.790268
 H   -8.458072    0.173705   -1.592057
 H   -1.212473    1.064456   -0.471164
 H   -1.383401   -0.592208   -2.902217
 H    0.238614    0.934663   -3.866304
 H   -1.207307    1.753890   -3.298796
 H    2.433506    1.470428   -2.937710
 H   -1.086903    3.262541   -1.268475
 H    3.840105    3.063701   -1.665267
 H    0.304213    4.804803    0.033881
 H    2.495183    5.544145    0.392542
 H   -0.431339   -2.526478   -2.536846
 H    1.106453   -4.098128   -2.173636
 H    2.941955   -2.658026   -2.951300
 H    3.335648   -3.929702   -1.809029
 H    3.577880   -3.177292    0.742969
 H    3.973586   -0.575447   -2.640937
 H    4.890645   -1.608695    2.108697
 H    5.323572    0.982983   -1.287468
 H    5.779266    0.486072    1.108610
 H    1.396085   -4.868331    1.090182
