82 
3gds_ligand_xtb.xyz
 N    2.285292    1.151572    0.594055
 C    1.577298    0.804207    1.849826
 C    0.088915    0.857688    1.456434
 O   -0.281677    1.782561    0.751989
 C    1.893446    1.811063    2.967311
 C    3.394652    1.868922    3.243131
 C    1.135454    1.420925    4.234575
 N   -0.677878   -0.136257    1.910701
 C   -2.009834   -0.462950    1.390595
 C   -1.771916   -1.068795   -0.002357
 O   -1.804696   -2.268082   -0.197254
 C   -2.994452    0.711418    1.408933
 C   -4.332183    0.236982    0.905904
 C   -5.216585   -0.404557    1.765782
 C   -4.692657    0.390286   -0.424324
 C   -6.430057   -0.878253    1.314920
 C   -5.906734   -0.080701   -0.889291
 C   -6.785396   -0.721250   -0.022935
 O   -7.984383   -1.202164   -0.425451
 N   -1.422920   -0.177200   -0.950418
 C   -0.751602   -0.626477   -2.158446
 C    0.561110   -1.241942   -1.652137
 O    1.482755   -0.544820   -1.246866
 C   -0.548470    0.530863   -3.155906
 C   -0.078058    1.802630   -2.504133
 C    1.273489    2.079095   -2.347972
 C   -1.002037    2.723008   -2.017793
 C    1.691828    3.202270   -1.656902
 C   -0.596792    3.861126   -1.348762
 C    0.756415    4.096070   -1.137580
 O    1.217455    5.156001   -0.431129
 N    0.583172   -2.579629   -1.641003
 C    1.553577   -3.413129   -0.948001
 C    1.443709   -3.232780    0.563398
 O    1.143575   -2.213556    1.132651
 C    3.017104   -3.249486   -1.434625
 C    3.774706   -2.062057   -0.903855
 C    4.179316   -2.016135    0.425143
 C    4.133482   -1.014476   -1.744807
 C    4.878697   -0.926970    0.916711
 C    4.834069    0.075407   -1.260543
 C    5.194464    0.132585    0.078710
 O    1.720451   -4.365044    1.187974
 H    1.949483    2.069955    0.246025
 H    3.309870    1.127890    0.694580
 H    2.019720    0.454111   -0.157948
 H    1.868710   -0.207166    2.139966
 H    1.547610    2.797512    2.640939
 H    3.785652    0.874891    3.447368
 H    3.948600    2.308225    2.417016
 H    3.578365    2.486063    4.117897
 H    1.334929    2.140809    5.022874
 H    0.063567    1.401368    4.058065
 H    1.451617    0.440420    4.582663
 H   -0.204334   -0.908938    2.355689
 H   -2.407453   -1.264031    2.020322
 H   -2.626252    1.536015    0.800871
 H   -3.083633    1.062750    2.438870
 H   -4.955079   -0.527372    2.806705
 H   -4.022615    0.889239   -1.109103
 H   -7.121334   -1.371459    1.978564
 H   -6.177095    0.049879   -1.928650
 H   -8.124810   -1.024840   -1.363600
 H   -1.271950    0.793514   -0.693136
 H   -1.364946   -1.404527   -2.625351
 H    0.171096    0.203259   -3.907476
 H   -1.502887    0.711787   -3.652313
 H    2.010269    1.406230   -2.758351
 H   -2.058040    2.555388   -2.173392
 H    2.741514    3.431918   -1.548483
 H   -1.330025    4.562935   -0.978408
 H    0.488531    5.736440   -0.180232
 H   -0.301197   -3.037452   -1.820017
 H    1.270105   -4.448485   -1.157506
 H    2.989381   -3.210395   -2.524394
 H    3.545740   -4.158542   -1.138690
 H    3.978095   -2.852046    1.078497
 H    3.866115   -1.055521   -2.789542
 H    5.201035   -0.915965    1.947394
 H    5.113626    0.875445   -1.928894
 H    5.768144    0.968754    0.452817
 H    1.638634   -4.294138    2.153696
