33 
3gdt_ligand_dft.xyz
 N    1.261791    0.655660    0.461894
 C    2.265445    1.278596   -0.250300
 N    3.438392    0.564560   -0.331894
 C    3.676395   -0.694949    0.210978
 C    2.500808   -1.195294    0.937606
 N    1.397554   -0.548321    1.042402
 O    2.140968    2.381350   -0.760447
 O    4.730977   -1.273937    0.089504
 C   -0.024968    1.375896    0.640875
 C   -0.775628    1.717014   -0.666797
 C   -2.223451    1.788738   -0.152041
 C   -2.245853    0.796305    1.013604
 O   -0.465216    2.959802   -1.230003
 O   -2.482165    3.071136    0.363385
 O   -0.872389    0.524548    1.348702
 C   -2.958393   -0.515364    0.747568
 O   -2.509766   -1.142009   -0.451245
 P   -1.183264   -2.038134   -0.533670
 O   -1.793018   -3.423310   -1.052476
 O   -0.110247   -1.479263   -1.381211
 O   -0.780875   -2.362074    0.976351
 H    4.182826    0.999538   -0.864370
 H    2.555518   -2.169947    1.407293
 H    0.190977    2.296213    1.200365
 H   -0.648779    0.886543   -1.371948
 H   -2.940526    1.517451   -0.937269
 H   -2.723427    1.280867    1.872316
 H    0.504427    3.021497   -1.271816
 H   -1.971603    3.678908   -0.196583
 H   -4.023184   -0.318662    0.601367
 H   -2.835043   -1.192239    1.597303
 H   -1.171354   -3.852076   -1.655323
 H   -0.207322   -1.634968    1.307452
