51 
3ge7_ligand_xtb.xyz
 C   -4.262041   -2.078083   -0.047860
 O   -5.469790   -1.841362   -0.021539
 N   -3.748205   -3.306022   -0.040181
 C   -2.440228   -3.529444   -0.080731
 N   -1.836824   -4.667096   -0.067560
 N   -1.529635   -2.444873   -0.144347
 C   -1.910925   -1.146137   -0.122669
 C   -0.998932   -0.081292   -0.135846
 C    0.501127   -0.253174   -0.191026
 C    1.107122    0.568907    0.937424
 N    2.575355    0.775919    0.746127
 C    3.412641   -0.432648    0.937796
 C    4.878829   -0.135363    0.634355
 C    5.090073    0.286041   -0.835020
 C    6.353488   -0.452191   -1.278794
 C    6.232264   -1.790713   -0.559990
 C    5.752484   -1.394643    0.836980
 C   -1.526091    1.209466   -0.099786
 N   -0.855735    2.426973   -0.067517
 C   -1.802789    3.333404   -0.036381
 N   -1.595386    4.685171    0.079709
 C   -0.302071    5.213958   -0.286244
 N   -3.057374    2.808078   -0.046141
 C   -2.911731    1.427176   -0.071972
 C   -3.812814    0.380937   -0.060783
 C   -3.305389   -0.902124   -0.080002
 H   -2.506727   -5.429118   -0.024599
 H   -0.566275   -2.735129   -0.190199
 H    0.867172    0.133962   -1.149555
 H    0.770004   -1.306064   -0.113600
 H    0.936498    0.094493    1.903115
 H    0.612590    1.548639    0.904833
 H    2.904578    1.511058    1.379865
 H    2.703880    1.109906   -0.217508
 H    3.045699   -1.214151    0.271017
 H    3.291562   -0.770211    1.969035
 H    5.220609    0.658810    1.305317
 H    5.189732    1.364985   -0.951837
 H    4.254631   -0.057111   -1.449856
 H    7.240544    0.078401   -0.931765
 H    6.413265   -0.555305   -2.359851
 H    7.170958   -2.338181   -0.531198
 H    5.487559   -2.413744   -1.056031
 H    5.198778   -2.197085    1.320543
 H    6.608408   -1.152792    1.465478
 H   -2.377269    5.247484   -0.227299
 H    0.455934    4.579551    0.167738
 H   -0.138424    5.230876   -1.370248
 H   -0.211141    6.226073    0.105169
 H   -4.882856    0.515613   -0.033089
 H   -3.926854    3.308409    0.009476
