34 
3ggj_ligand_dft.xyz
 N   17.261978   16.973285   19.012013
 C   18.368322   12.779437   18.458163
 C   18.363263   16.314237   18.383743
 N   18.990079   13.854119   18.054733
 C   18.202431   14.890318   18.515628
 C   16.205281   16.373575   19.641618
 O   19.135922   12.341852   15.595567
 P   18.015071   12.712753   14.502591
 O   17.588081   11.230653   14.011128
 O   18.417163   13.627755   13.414811
 C   16.575522   13.262309   15.454597
 C   15.938653   12.229971   16.380261
 O   15.191926   12.961464   17.336449
 C   14.915142   12.317087   18.547656
 C   16.170563   12.066126   19.425896
 N   17.213323   13.036602   19.152977
 C   17.094751   14.399263   19.188118
 N   16.069182   15.079333   19.758391
 N   15.278053   17.205659   20.213345
 O   19.235341   16.970903   17.857611
 H   17.342582   17.982229   19.011523
 H   18.686929   11.765887   18.254004
 H   19.372810   13.091724   16.181502
 H   17.959912   11.064011   13.134170
 H   16.919987   14.102908   16.068632
 H   15.839918   13.663183   14.751690
 H   15.285281   11.545664   15.822793
 H   16.713773   11.621657   16.861964
 H   14.245233   12.996663   19.077221
 H   14.394293   11.358887   18.397295
 H   15.888941   12.108529   20.481620
 H   16.606383   11.081364   19.238558
 H   15.101500   18.093410   19.766396
 H   14.445410   16.722182   20.518336
