83 
3gi5_ligand_xtb.xyz
 O  -10.521782   -2.520322    0.071340
 C   -9.460903   -2.178685   -0.401925
 C   -8.897227   -2.827074   -1.639099
 C   -8.656947   -1.089911    0.221685
 C   -9.165812   -0.477959    1.367117
 C   -8.458149    0.537548    1.976508
 C   -7.244944    0.958998    1.459397
 C   -7.437272   -0.671535   -0.298158
 C   -6.724565    0.355461    0.314536
 N   -5.496200    0.791089   -0.203749
 C   -4.878107    0.332841   -1.336047
 O   -5.224342   -0.540583   -2.079268
 O   -3.735905    1.036025   -1.543790
 C   -4.753616    1.882279    0.392620
 C   -3.479791    1.907379   -0.459521
 C   -2.252456    1.437280    0.356348
 O   -2.136673    1.726301    1.529728
 N   -1.384289    0.714896   -0.352773
 C   -0.141131    0.206573    0.186882
 C   -0.137756   -1.323814    0.055087
 C    1.100056   -1.964764    0.611314
 C    1.393409   -1.890211    1.968327
 C    2.547650   -2.462696    2.471587
 C    3.415556   -3.136326    1.628171
 C    3.120108   -3.236884    0.279571
 C    1.974736   -2.645903   -0.225038
 C    1.028803    0.886412   -0.560541
 O    1.132915    0.305974   -1.830661
 C    2.349555    0.815017    0.233348
 N    3.246139    1.890168   -0.121263
 C    3.495089    2.949542    0.826919
 C    2.365910    3.989801    0.852711
 C    2.650925    5.027181    1.935355
 C    2.239538    4.653518   -0.514855
 S    4.397439    1.505140   -1.242886
 O    5.257744    2.635477   -1.406094
 O    3.711571    1.000703   -2.403466
 C    5.322591    0.147518   -0.521004
 C    5.987974    0.368032    0.666427
 C    6.711844   -0.653487    1.278359
 C    5.337479   -1.079685   -1.175574
 C    6.064416   -2.078455   -0.575405
 O    6.260934   -3.364490   -0.983046
 C    6.733096   -1.869908    0.637066
 O    7.354101   -3.021372    1.014093
 C    7.075567   -3.967675    0.001033
 H   -7.930390   -3.274750   -1.421217
 H   -9.582731   -3.596949   -1.984180
 H   -8.761751   -2.085691   -2.423161
 H  -10.113766   -0.815401    1.756753
 H   -8.847926    1.013326    2.863768
 H   -6.714082    1.754952    1.955365
 H   -7.028772   -1.131001   -1.180100
 H   -5.317632    2.819014    0.329374
 H   -4.494583    1.682845    1.438070
 H   -3.256041    2.903364   -0.858029
 H   -1.564611    0.534256   -1.330511
 H   -0.120944    0.507866    1.238618
 H   -1.017132   -1.703820    0.581978
 H   -0.230280   -1.568077   -1.003337
 H    0.710482   -1.383810    2.635262
 H    2.767253   -2.392749    3.526939
 H    4.311827   -3.588447    2.027695
 H    3.776386   -3.778354   -0.385081
 H    1.756046   -2.711088   -1.280258
 H    0.769457    1.955434   -0.658259
 H    1.989701    0.562850   -2.221413
 H    2.839642   -0.139248    0.019013
 H    2.144116    0.862327    1.305257
 H    4.415705    3.435189    0.499546
 H    3.642577    2.531393    1.832270
 H    1.427717    3.478392    1.094328
 H    1.855796    5.767513    1.964972
 H    2.717702    4.558057    2.914389
 H    3.589299    5.537670    1.731530
 H    3.142499    5.214688   -0.742995
 H    1.390832    5.333254   -0.533876
 H    2.109311    3.902628   -1.290212
 H    5.951174    1.348076    1.112432
 H    7.235541   -0.503162    2.206708
 H    4.807948   -1.211324   -2.102920
 H    8.018193   -4.307195   -0.455758
 H    6.550590   -4.831498    0.437839
