82 
3gi6_ligand_xtb.xyz
 O    1.645402   -0.015409   -2.504025
 S    1.817143    0.067462   -1.084899
 O    0.607798    0.149405   -0.299887
 C    2.891571    1.430509   -0.687082
 C    2.950307    1.924527    0.600231
 C    3.822946    2.955419    0.903258
 C    4.643338    3.489229   -0.089619
 O    5.530646    4.491159    0.096295
 C    5.632113    5.086220    1.371244
 C    4.570444    2.976232   -1.390818
 C    3.697477    1.953235   -1.685584
 N    2.628313   -1.323637   -0.609198
 C    3.878628   -1.471874   -1.331234
 C    4.328918   -2.926317   -1.507658
 C    5.728158   -2.946129   -2.119325
 C    3.349304   -3.687603   -2.394174
 C    2.668461   -1.595097    0.813631
 C    2.019911   -2.946457    1.208551
 O    2.424103   -3.303359    2.505609
 C    0.478533   -2.932101    1.091109
 C   -0.006573   -3.171257   -0.344504
 C   -1.470527   -2.846426   -0.480194
 C   -1.878400   -1.783151   -1.276000
 C   -3.221476   -1.467345   -1.390580
 C   -4.170818   -2.197399   -0.695936
 C   -3.770908   -3.253909    0.105927
 C   -2.430076   -3.579828    0.208074
 N   -0.086270   -1.675913    1.547403
 C   -0.173381   -1.330707    2.831528
 O    0.162520   -2.027479    3.772076
 C   -0.792254    0.065681    3.041252
 O    0.070539    1.061131    2.505147
 C   -0.516906    1.725995    1.482470
 O    0.000501    2.657003    0.938019
 C   -2.125939    0.250623    2.297018
 N   -1.771113    1.210605    1.273930
 C   -2.612916    1.535120    0.213543
 C   -2.100670    2.079544   -0.963821
 C   -2.948552    2.398506   -2.006489
 C   -4.313492    2.184967   -1.903403
 C   -3.981030    1.297952    0.320617
 C   -4.816966    1.634326   -0.733471
 C   -6.290469    1.366581   -0.625190
 F   -6.714500    1.245597    0.642467
 F   -7.035807    2.332363   -1.184598
 F   -6.646208    0.221224   -1.243737
 H    2.297121    1.534962    1.362550
 H    3.845546    3.337779    1.910324
 H    6.380496    5.870072    1.268646
 H    5.964086    4.365399    2.124418
 H    4.681868    5.529704    1.681706
 H    5.205813    3.407436   -2.147450
 H    3.611174    1.560118   -2.685772
 H    3.705201   -1.035753   -2.316109
 H    4.674955   -0.900698   -0.829025
 H    4.373141   -3.402727   -0.523711
 H    6.061001   -3.971279   -2.259309
 H    5.725354   -2.450397   -3.087470
 H    6.442657   -2.439226   -1.474690
 H    3.636674   -4.733834   -2.468566
 H    3.337615   -3.258737   -3.393433
 H    2.344484   -3.627372   -1.988503
 H    2.157503   -0.787883    1.341978
 H    3.705670   -1.620245    1.165414
 H    2.411147   -3.728700    0.548981
 H    1.816704   -2.904795    3.152610
 H    0.099041   -3.716560    1.759111
 H    0.564043   -2.530126   -1.017587
 H    0.176012   -4.215585   -0.607067
 H   -1.140301   -1.200037   -1.807306
 H   -3.526869   -0.650529   -2.026975
 H   -5.217309   -1.949193   -0.786003
 H   -4.506763   -3.829746    0.647790
 H   -2.126399   -4.413474    0.824712
 H   -0.146738   -0.961170    0.823210
 H   -0.874998    0.236540    4.120286
 H   -2.484429   -0.681826    1.850194
 H   -2.896766    0.652059    2.965106
 H   -1.039098    2.236302   -1.051987
 H   -2.540379    2.812618   -2.914903
 H   -4.979665    2.437646   -2.713384
 H   -4.404363    0.865829    1.212358
