69 
3gjs_ligand_xtb.xyz
 C   -0.156278   -3.339232    1.190828
 O    0.933354   -3.899297    1.206592
 C   -1.186001   -3.504067    2.276060
 N   -0.527724   -2.531283    0.182209
 C    0.243239   -2.388583   -1.037272
 C    1.358617   -1.329254   -0.873746
 O    1.511662   -0.397513   -1.644952
 C   -0.645445   -2.102913   -2.269322
 C   -1.958983   -1.475282   -1.900492
 C   -3.033111   -2.280510   -1.538798
 C   -2.111270   -0.095047   -1.846403
 C   -4.205361   -1.726423   -1.062305
 C   -3.278870    0.473409   -1.371380
 C   -4.309793   -0.349818   -0.934190
 O   -5.395801    0.228690   -0.318022
 N    2.135246   -1.593844    0.184495
 C    3.307823   -0.838835    0.603348
 C    2.908092    0.620223    0.863179
 O    2.610471    0.996014    1.988261
 C    4.487459   -1.010104   -0.372529
 C    5.689580   -0.199220    0.103342
 C    4.854515   -2.489776   -0.475242
 N    2.929420    1.432963   -0.202039
 C    2.555815    2.834563   -0.111329
 C    1.026111    2.918212   -0.209799
 O    0.450041    3.334484   -1.197820
 C    3.225841    3.618964   -1.227529
 N    0.403816    2.447440    0.884644
 C   -1.019301    2.143769    0.871806
 C   -1.866392    3.429761    0.715477
 O   -2.195781    3.685012   -0.617087
 C   -1.396759    1.337223    2.125365
 C   -2.623872    0.532014    1.766660
 O   -3.729221    1.253938    1.779732
 O   -2.590814   -0.632994    1.446782
 H   -1.802395   -2.614831    2.361846
 H   -0.690845   -3.719112    3.218860
 H   -1.822994   -4.350577    2.024890
 H   -1.373233   -1.982231    0.271715
 H    0.771980   -3.341842   -1.182544
 H   -0.083016   -1.432999   -2.922180
 H   -0.828204   -3.038471   -2.799377
 H   -2.943444   -3.354973   -1.605702
 H   -1.297277    0.539486   -2.165389
 H   -5.024867   -2.362860   -0.755422
 H   -3.389006    1.545216   -1.301418
 H   -6.085973   -0.434825   -0.196695
 H    1.957703   -2.471077    0.673045
 H    3.596075   -1.244166    1.579187
 H    4.182831   -0.661216   -1.363540
 H    5.452310    0.859525    0.162486
 H    6.522186   -0.327433   -0.583917
 H    6.003678   -0.535496    1.089091
 H    5.684456   -2.621583   -1.165155
 H    5.151299   -2.876732    0.497243
 H    4.013345   -3.075683   -0.836877
 H    2.839421    1.004941   -1.118471
 H    2.874388    3.191729    0.874774
 H    3.001690    4.676401   -1.120610
 H    4.302892    3.476909   -1.197251
 H    2.842735    3.285511   -2.188710
 H    0.976585    2.062410    1.629457
 H   -1.214795    1.523394   -0.015570
 H   -1.312656    4.270919    1.159473
 H   -2.815360    3.317536    1.243259
 H   -1.358375    3.702808   -1.121072
 H   -0.588580    0.651760    2.384400
 H   -1.602621    2.006493    2.959628
 H   -4.470462    0.823022    1.303100
