38 
3gjw_ligand_dft.xyz
 C    3.503482   -1.940191    0.188652
 C    3.620986    0.295612    0.313606
 C    1.445718   -0.614997   -0.330905
 C   -0.722521   -1.462270   -0.978324
 C   -1.216704   -0.160990   -1.056595
 N   -3.474085    0.297435   -0.134151
 C   -4.892840    0.745110   -0.375025
 C   -3.602905   -0.907849    0.756530
 C    4.782257   -1.606877    0.560082
 N    2.780651   -0.781981    0.034531
 C    4.859349   -0.195099    0.639600
 C    0.956742    0.708007   -0.415146
 N    1.797390    1.767566   -0.142119
 C    3.141370    1.665733    0.228332
 C    0.600622   -1.682860   -0.619112
 C   -0.373341    0.915146   -0.778088
 O    3.803169    2.656926    0.448782
 C   -2.655843    0.095578   -1.389767
 C   -5.646315    0.411217    0.924445
 C   -4.689104   -0.491779    1.742179
 H    3.063693   -2.911328    0.023570
 H   -1.359842   -2.310205   -1.211869
 H   -2.996276    1.020467    0.413091
 H   -5.255271    0.165279   -1.227114
 H   -4.887270    1.801520   -0.647206
 H   -2.632181   -1.140756    1.193809
 H   -3.917358   -1.734530    0.113073
 H    5.579874   -2.309551    0.752761
 H    5.714751    0.409842    0.901491
 H    1.457879    2.716382   -0.228116
 H    0.976243   -2.697965   -0.571809
 H   -0.735361    1.937838   -0.868717
 H   -3.117185   -0.739272   -1.923522
 H   -2.787007    1.004222   -1.984125
 H   -6.580285   -0.101396    0.688122
 H   -5.903335    1.316195    1.477576
 H   -4.248643    0.060866    2.577215
 H   -5.191185   -1.365103    2.160883
