38 
3gjw_ligand_xtb.xyz
 C    3.538720   -1.887513    0.244131
 C    3.597840    0.337634    0.292048
 C    1.462371   -0.644661   -0.292985
 C   -0.692088   -1.552063   -0.880644
 C   -1.213630   -0.270584   -1.011137
 N   -3.468278    0.255862   -0.178358
 C   -4.865056    0.669828   -0.447939
 C   -3.620965   -0.869405    0.774594
 C    4.810994   -1.517912    0.593495
 N    2.789548   -0.766425    0.058644
 C    4.855428   -0.114576    0.625727
 C    0.939661    0.662773   -0.421569
 N    1.747904    1.741893   -0.195889
 C    3.095618    1.685174    0.166504
 C    0.631933   -1.734718   -0.528119
 C   -0.396051    0.828231   -0.774719
 O    3.714177    2.706768    0.344529
 C   -2.654794   -0.055872   -1.384821
 C   -5.535213    0.629209    0.925364
 C   -4.722450   -0.406568    1.729507
 H    3.135144   -2.871384    0.118113
 H   -1.312363   -2.413504   -1.071777
 H   -2.997447    1.018899    0.320410
 H   -5.307089   -0.063121   -1.125295
 H   -4.900306    1.651693   -0.917916
 H   -2.676095   -1.090594    1.268397
 H   -3.937327   -1.746268    0.207293
 H    5.623971   -2.183199    0.802989
 H    5.695608    0.505846    0.861384
 H    1.373643    2.674374   -0.317651
 H    1.021711   -2.734734   -0.441952
 H   -0.779231    1.832630   -0.890614
 H   -3.071712   -0.948076   -1.855265
 H   -2.748185    0.784321   -2.077011
 H   -6.581896    0.349699    0.839158
 H   -5.495369    1.606139    1.404710
 H   -4.298891    0.045960    2.624532
 H   -5.335701   -1.245991    2.046864
