27 
3gkz_ligand_xtb.xyz
 N   -1.603361    0.966306   -0.176812
 C   -1.758505   -0.483093    0.191315
 C   -3.174946   -0.944704   -0.095908
 C   -0.704387   -1.272211   -0.598688
 C    0.664826   -0.699409   -0.334923
 C    1.395639   -1.100878    0.776943
 C    1.178945    0.302852   -1.158120
 C    2.620326   -0.521152    1.056915
 C    2.407306    0.882389   -0.875060
 C    3.124250    0.475971    0.236353
 C   -2.021675    1.929475    0.855013
 H   -0.587100    1.090344   -0.395496
 H   -2.133795    1.135652   -1.039106
 H   -1.539114   -0.563205    1.259876
 H   -3.907475   -0.367189    0.462202
 H   -3.286681   -1.984421    0.197400
 H   -3.401054   -0.874140   -1.158042
 H   -0.937024   -1.236347   -1.664750
 H   -0.743139   -2.314159   -0.283838
 H    1.010873   -1.883020    1.414153
 H    0.663103    0.579664   -2.069909
 H    3.185726   -0.851818    1.913816
 H    2.804104    1.642528   -1.529839
 H    4.080705    0.923415    0.454267
 H   -3.069049    1.781524    1.109707
 H   -1.889728    2.947617    0.494462
 H   -1.417503    1.793967    1.749746
