30 
3gm0_ligand_xtb.xyz
 O    2.582591    1.242512   -0.882265
 O    3.489733   -0.173380    0.688499
 N   -2.233589    1.144270    0.073632
 C   -2.718899   -0.277737    0.077179
 C   -4.181362   -0.331003   -0.323760
 C   -1.813013   -1.075946   -0.872603
 C   -0.371639   -0.919215   -0.461156
 C    0.376680    0.152227   -0.986984
 C    0.182455   -1.758176    0.491481
 C    1.667011    0.303998   -0.535259
 C    1.489645   -1.598236    0.947897
 C    2.216314   -0.555172    0.425377
 C   -2.484860    1.899934    1.311622
 C    3.758256    0.931253   -0.151908
 H   -2.669486    1.629283   -0.718971
 H   -1.203558    1.086786   -0.111992
 H   -2.587149   -0.654968    1.095226
 H   -4.803898    0.255333    0.347251
 H   -4.320869    0.026515   -1.341915
 H   -4.533589   -1.357420   -0.282655
 H   -1.958567   -0.732185   -1.898100
 H   -2.104013   -2.124131   -0.828090
 H    0.015991    0.767017   -1.798887
 H   -0.404998   -2.574737    0.881024
 H    1.919174   -2.266637    1.673469
 H   -2.114159    2.918033    1.212161
 H   -3.551164    1.935104    1.525343
 H   -1.973350    1.420249    2.143545
 H    4.569738    0.679282   -0.850511
 H    4.052900    1.797977    0.456493
