52 
3gol_ligand_xtb.xyz
Cl   -4.936396   -2.307585   -1.362353
 C   -3.429831   -1.798317   -0.695407
 C   -3.390801   -1.312263    0.600516
 C   -2.179049   -0.896992    1.126790
Cl   -2.153369   -0.306193    2.746254
 C   -2.275284   -1.879561   -1.455270
 C   -1.077424   -1.456581   -0.909189
 C   -1.000830   -0.952894    0.381821
 C    0.290751   -0.448333    0.976320
 C    1.519008   -0.742176    0.156735
 C    2.269598   -1.919232    0.582008
 O    1.847420   -2.673739    1.437688
 C    3.573931   -2.206956   -0.133950
 N    0.163982    0.989947    1.228370
 C    0.767854    1.524472    2.326087
 C    0.670914    3.028057    2.459227
 O    1.358099    0.832541    3.126393
 C   -0.485402    1.720478    0.218595
 C   -1.673250    2.398780    0.470988
 C   -2.308961    3.095384   -0.535192
 C   -1.771058    3.114853   -1.813045
 C   -0.603904    2.427308   -2.082688
 O   -0.026157    2.417076   -3.326081
 C    0.052000    1.703382   -1.070966
 N    1.239833    1.081621   -1.422723
 C    1.916292    0.021951   -0.892130
 C    3.192025   -0.282179   -1.626969
 C    4.230235   -0.962142   -0.726002
 C    4.673423   -0.017025    0.392295
 C    5.446830   -1.359746   -1.564795
 H   -4.287816   -1.259669    1.195916
 H   -2.313443   -2.268259   -2.460300
 H   -0.177289   -1.527344   -1.499459
 H    0.444078   -0.930451    1.953764
 H    4.240337   -2.708519    0.569231
 H    3.346796   -2.922266   -0.931434
 H   -0.293734    3.296466    2.883388
 H    1.449153    3.360821    3.140934
 H    0.780185    3.521000    1.496757
 H   -2.088620    2.369717    1.465015
 H   -3.226485    3.624278   -0.333107
 H   -2.264172    3.660468   -2.605306
 H   -0.563601    2.941045   -3.930776
 H    1.573380    1.395865   -2.325866
 H    3.607837    0.643521   -2.033379
 H    2.967670   -0.941921   -2.472769
 H    3.838391    0.250490    1.034641
 H    5.429764   -0.497498    1.007785
 H    5.100116    0.894208   -0.022566
 H    5.160192   -2.026833   -2.375339
 H    6.179941   -1.871149   -0.946248
 H    5.919308   -0.479350   -1.995412
