78 
3gpj_ligand_dft.xyz
 C   -4.122902    0.415449   -0.440334
 C   -5.480607   -2.682906   -1.023767
 C   -6.677719   -2.563541    1.193699
 C   -6.594335   -2.003077   -0.227294
 O   -7.383551    0.873563    1.526350
 C   -7.510197    0.231682    0.508802
 C   -6.383570   -0.467430   -0.226470
 O   -8.698908    0.037100   -0.082682
 N   -5.130520   -0.066425    0.372567
 N   -3.088645    0.995019    0.256482
 C   -1.852178    1.306901   -0.425987
 C   -0.710522    0.708572    0.402830
 N    0.504129    0.728814   -0.182305
 C    1.700608    0.310742    0.508566
 C    1.833335   -1.223053    0.586339
 C    1.966837   -1.884829   -0.791874
 C    2.410800   -3.353728   -0.763526
 C    3.929330   -3.562395   -0.679288
 N    4.496849   -3.040197    0.553297
 C    5.326071   -1.978528    0.738963
 O    5.383529   -1.433455    1.841391
 C    6.210194   -1.517674   -0.409668
 C    5.697536   -0.310245   -1.218459
 C    5.334038    0.960513   -0.424325
 C    6.430437    1.485983    0.519583
 C    5.991065    2.797634    1.176786
 C    7.753443    1.689390   -0.224347
 N    4.092527    0.750128    0.314825
 C    2.885130    0.898436   -0.268674
 O    2.723738    1.402305   -1.376505
 O   -0.896338    0.261854    1.531564
 C   -1.657696    2.829528   -0.634387
 C   -1.576573    3.573624    0.699412
 C   -2.772424    3.392814   -1.515949
 O   -4.155484    0.333158   -1.661539
 H   -4.516391   -2.554116   -0.520881
 H   -5.388651   -2.258046   -2.027621
 H   -5.677418   -3.756691   -1.112652
 H   -6.810289   -3.650037    1.168621
 H   -7.516923   -2.139461    1.756793
 H   -5.754432   -2.349757    1.743892
 H   -7.550069   -2.182447   -0.734624
 H   -6.386569   -0.124203   -1.267153
 H   -9.356884    0.496227    0.463821
 H   -5.225472    0.354771    1.288397
 H   -2.931900    0.681144    1.209315
 H   -1.876428    0.823719   -1.409653
 H    0.661361    1.157155   -1.087297
 H    1.679919    0.709117    1.529873
 H    0.947160   -1.604195    1.103820
 H    2.692352   -1.452914    1.222942
 H    2.668562   -1.319583   -1.419117
 H    0.998385   -1.810694   -1.298105
 H    2.071656   -3.856264   -1.676946
 H    1.924309   -3.879513    0.070007
 H    4.411464   -3.063081   -1.523990
 H    4.158006   -4.631955   -0.761757
 H    4.003994   -3.286780    1.403532
 H    7.162907   -1.260622    0.062566
 H    6.409788   -2.342967   -1.100353
 H    6.470229   -0.058078   -1.952773
 H    4.811824   -0.593514   -1.798910
 H    5.110171    1.738084   -1.162489
 H    6.581098    0.736832    1.307512
 H    5.052717    2.680467    1.725680
 H    5.841544    3.578714    0.420818
 H    6.753613    3.149808    1.879171
 H    7.624557    2.380714   -1.066762
 H    8.166728    0.754519   -0.616835
 H    8.502525    2.120753    0.447372
 H    4.171248    0.242733    1.188355
 H   -0.703839    2.963025   -1.163452
 H   -2.505422    3.439162    1.264303
 H   -1.434769    4.646160    0.531699
 H   -0.746836    3.217294    1.319626
 H   -3.740660    3.302999   -1.012666
 H   -2.843322    2.857200   -2.467307
 H   -2.594727    4.453568   -1.723254
