59 
3gpo_ligand_xtb.xyz
 N    3.063183    3.624705    0.109323
 C    4.043751    2.740786    0.132195
 N    4.046387    1.503709   -0.333069
 C    2.889365    1.179731   -0.918571
 C    1.794449    2.040978   -1.074786
 C    1.903284    3.307953   -0.473998
 N    0.914517    4.220830   -0.483206
 N    0.792119    1.378041   -1.742160
 C    1.252904    0.177990   -1.949082
 N    2.514926   -0.007521   -1.481816
 C    3.237734   -1.258889   -1.361595
 C    3.892272   -1.357886    0.047245
 O    5.286033   -1.260322    0.007902
 C    3.430735   -2.738684    0.545946
 O    4.350782   -3.745312    0.240052
 O    2.381292   -2.346633   -1.513364
 C    2.129609   -2.945615   -0.248013
 C    0.898856   -2.331851    0.429948
 O    1.166577   -0.961558    0.712042
 P    0.463261   -0.225559    1.922671
 O    1.722382    0.461830    2.608629
 O   -0.369040   -1.034317    2.798557
 O   -0.218364    1.065162    1.260249
 P   -1.539147    0.830239    0.338767
 O   -1.456513    2.036216   -0.648877
 O   -1.465933   -0.542743   -0.184514
 O   -2.608546    1.190418    1.440127
 C   -3.929659    1.605870    1.158514
 O   -3.793568    0.705292   -1.015420
 O   -2.871076   -0.868740   -2.412662
 C   -4.010809   -0.488997   -1.759744
 O   -5.849172   -1.988938   -1.108953
 C   -4.558799   -1.543385   -0.753639
 O   -5.808149   -1.085531    1.316646
 C   -4.660472   -0.789304    0.588954
 C   -4.591451    0.689443    0.142690
 H    4.957529    3.066499    0.610922
 H    1.043539    5.033893    0.095431
 H   -0.020807    3.912252   -0.692161
 H    0.708266   -0.601666   -2.442489
 H    4.005454   -1.304657   -2.149877
 H    3.467106   -0.591274    0.699604
 H    5.497205   -0.320078   -0.085075
 H    3.234644   -2.719455    1.626914
 H    5.219428   -3.325139    0.160128
 H    1.951557   -4.007372   -0.435131
 H    0.040406   -2.378256   -0.245477
 H    0.655402   -2.854987    1.357165
 H    1.548927    0.620792    3.535612
 H   -0.719937    1.846046   -1.304881
 H   -4.469424    1.569830    2.107044
 H   -3.910892    2.625086    0.761961
 H   -2.159708   -0.854227   -1.736283
 H   -4.777661   -0.293653   -2.528659
 H   -5.785993   -2.512251   -1.913912
 H   -3.859527   -2.384119   -0.689569
 H   -6.472495   -1.407842    0.689196
 H   -3.789623   -1.009616    1.213744
 H   -5.607289    1.054207   -0.078948
