63 
3gst_ligand_xtb.xyz
 N    4.584715    0.186528    0.100766
 C    5.030444   -1.051983    0.767515
 C    6.140289   -1.730968   -0.048430
 O    6.494120   -2.857889    0.118330
 O    6.665100   -0.891541   -0.939480
 C    3.865636   -2.017720    1.023770
 C    3.190226   -2.562642   -0.246626
 C    2.400825   -1.464470   -0.921716
 O    2.933716   -0.661195   -1.688140
 N    1.107175   -1.364941   -0.595353
 C    0.440027   -0.098509   -0.805155
 C    1.171115    0.955324    0.055348
 O    2.027519    0.633844    0.862746
 C   -1.028128   -0.193867   -0.421777
 S   -1.144327   -0.615555    1.363066
 N    0.804433    2.223138   -0.154474
 C    1.400245    3.315623    0.582220
 C    2.822922    3.630399    0.122365
 O    3.649522    2.799923   -0.155372
 O    3.038028    4.931122    0.101281
 C   -2.958483   -0.798858    1.621433
 C   -3.597559   -1.643204    0.568946
 C   -3.582441   -3.026286    0.686496
 C   -4.211002   -3.819729   -0.255164
 C   -4.875007   -3.226196   -1.316668
 C   -4.881605   -1.851183   -1.451332
 C   -4.226066   -1.036396   -0.529013
 C   -4.164704    0.422966   -0.680949
 C   -4.354116    1.047523   -1.913254
 C   -4.256890    2.420926   -2.034901
 C   -3.959447    3.200440   -0.929058
 C   -3.750286    2.594821    0.297945
 C   -3.842851    1.218066    0.427302
 C   -3.647021    0.564260    1.771722
 O   -4.868798    0.414333    2.456918
 H    3.778626    0.622769    0.601373
 H    4.175617   -0.056318   -0.851415
 H    5.331793    0.873078   -0.018097
 H    5.473937   -0.795424    1.738117
 H    7.376221   -1.313783   -1.448706
 H    4.270034   -2.863172    1.580974
 H    3.123757   -1.512420    1.643960
 H    2.531177   -3.383113    0.032481
 H    3.945103   -2.945041   -0.934408
 H    0.719470   -1.948407    0.133903
 H    0.545545    0.178136   -1.861383
 H   -1.534744    0.755134   -0.590318
 H   -1.522981   -0.979329   -0.994157
 H    0.152573    2.448683   -0.888824
 H    1.472005    3.022601    1.637311
 H    0.785784    4.209861    0.495980
 H    3.947788    5.159662   -0.154428
 H   -2.994072   -1.307153    2.589674
 H   -3.081570   -3.477171    1.531047
 H   -4.198552   -4.893408   -0.151794
 H   -5.390691   -3.837038   -2.041389
 H   -5.418538   -1.405359   -2.273527
 H   -4.565800    0.456272   -2.790079
 H   -4.414887    2.884730   -2.996683
 H   -3.891440    4.273530   -1.021648
 H   -3.518410    3.190320    1.168736
 H   -3.040619    1.205313    2.421938
 H   -5.492568   -0.065948    1.899344
