73 
3gta_ligand_xtb.xyz
 O    1.197294    1.223622    1.700861
 C    1.315469    0.118645    1.143430
 C    1.680298    0.064695   -0.347982
 C    3.142896   -0.358654   -0.577105
 C    4.144354    0.546463    0.145095
 C    5.562483    0.021283   -0.068851
 C    5.889908   -0.027164   -1.558111
 C    4.882322   -0.899700   -2.300323
 C    3.458988   -0.396276   -2.073662
 N    1.441801    1.399911   -0.855247
 C    0.191572    1.806865   -1.161835
 O   -0.681988    1.104176   -1.603473
 C   -0.071800    3.285607   -0.777307
 C    1.026839    4.247317   -1.203381
 N   -0.249880    3.221984    0.707461
 C   -0.205937    4.506008    1.421590
 N    1.171134   -1.008677    1.820329
 C    0.835391   -0.982766    3.241518
 C    0.201573   -2.341823    3.510052
 C    0.895397   -3.239908    2.490382
 C    0.981312   -2.334569    1.253915
 C   -0.288869   -2.360546    0.457867
 N   -1.104154   -1.376943    0.386096
 C   -2.178801   -1.653528   -0.409305
 C   -3.226673   -0.775237   -0.722129
 C   -4.226894   -1.250279   -1.559943
 C   -4.204168   -2.537996   -2.083099
 C   -3.167306   -3.405357   -1.800885
 C   -2.160504   -2.950046   -0.968415
 S   -0.730545   -3.796589   -0.452243
 C   -3.265288    0.590765   -0.191611
 C   -3.758049    1.634360   -0.975555
 C   -3.841103    2.919912   -0.473997
 C   -3.430403    3.191319    0.821744
 C   -2.909856    2.163719    1.604078
 C   -2.834722    0.872487    1.102496
 H    1.001423   -0.609226   -0.875029
 H    3.266355   -1.369899   -0.177689
 H    4.093860    1.561953   -0.255232
 H    3.916983    0.587684    1.213091
 H    5.648917   -0.980565    0.356829
 H    6.274047    0.665615    0.449326
 H    6.896027   -0.421625   -1.701831
 H    5.867233    0.984634   -1.968656
 H    5.103994   -0.897552   -3.367950
 H    4.963839   -1.929376   -1.945699
 H    3.353712    0.606158   -2.492768
 H    2.747819   -1.047049   -2.585800
 H    2.084266    2.080836   -0.476310
 H   -1.024710    3.585602   -1.224694
 H    1.937104    4.124175   -0.621345
 H    1.263392    4.071553   -2.249732
 H    0.698365    5.278965   -1.109173
 H    0.459225    2.529132    1.120825
 H   -1.183849    2.784146    0.895869
 H   -0.936253    5.194601    1.000449
 H   -0.440910    4.338756    2.470135
 H    0.783788    4.949877    1.357952
 H    0.171470   -0.142032    3.447708
 H    1.755782   -0.846286    3.817147
 H   -0.869301   -2.306386    3.309430
 H    0.356085   -2.672818    4.533438
 H    0.349609   -4.157801    2.284672
 H    1.899590   -3.495962    2.828332
 H    1.815098   -2.625702    0.608390
 H   -5.061716   -0.608513   -1.795819
 H   -5.008754   -2.863853   -2.723447
 H   -3.137658   -4.401891   -2.210731
 H   -4.067796    1.437335   -1.989341
 H   -4.242879    3.711640   -1.088466
 H   -3.528137    4.187749    1.227787
 H   -2.625615    2.356323    2.630439
 H   -2.457024    0.075345    1.722171
