70 
3gvu_ligand_xtb.xyz
 C   -9.186190   -3.740485    0.228120
 C   -8.419650   -2.761335    0.835779
 C   -7.681958   -1.889759    0.037844
 C   -7.755710   -2.068267   -1.346051
 N   -8.482649   -3.001229   -1.926266
 C   -9.183113   -3.818194   -1.156735
 C   -6.853554   -0.813377    0.592469
 C   -7.124190   -0.217291    1.828648
 C   -6.264326    0.792195    2.224556
 N   -5.240873    1.196420    1.495458
 C   -5.069464    0.580731    0.322357
 N   -5.832102   -0.409327   -0.150879
 N   -4.044456    0.944200   -0.483668
 C   -3.040639    1.886099   -0.206836
 C   -3.342230    3.211337    0.119752
 C   -2.280669    4.071463    0.373898
 C   -0.967691    3.660203    0.276890
 C   -0.675137    2.351488   -0.102084
 C   -1.719714    1.470289   -0.338937
 N    0.667988    1.981215   -0.212313
 C    1.200801    0.823941   -0.703836
 C    2.692611    0.798848   -0.664625
 C    3.429573    1.366936    0.371355
 C    4.808870    1.289077    0.363909
 C    5.484643    0.665119   -0.679637
 C    4.743898    0.090464   -1.706344
 C    3.363492    0.145431   -1.693392
 C    6.985169    0.523836   -0.624829
 N    7.420664   -0.587147    0.207219
 C    7.086208   -1.898481   -0.308790
 C    7.556207   -2.987862    0.650648
 N    8.972960   -2.870515    0.922404
 C    9.484483   -3.945419    1.742536
 C   10.692924    0.156699    0.388087
 C   10.954347    1.132431   -0.457180
 O    0.551513   -0.098667   -1.152645
 C   -4.747247    3.718971    0.159579
 H   -9.767255   -4.433732    0.816811
 H   -8.379433   -2.691023    1.913424
 H   -7.196650   -1.414249   -2.000537
 H   -9.762288   -4.569596   -1.677346
 H   -7.962537   -0.511425    2.436446
 H   -6.391694    1.305021    3.170406
 H   -3.839722    0.267810   -1.207002
 H   -2.492301    5.097147    0.638827
 H   -0.165033    4.356245    0.476658
 H   -1.503921    0.454156   -0.625712
 H    1.322590    2.705552    0.048696
 H    2.930753    1.840585    1.205858
 H    5.374462    1.722201    1.177458
 H    5.254525   -0.401175   -2.521871
 H    2.782781   -0.311678   -2.480330
 H    7.432946    1.430984   -0.208857
 H    7.389582    0.363733   -1.628005
 H    7.051481   -0.484152    1.147639
 H    7.600288   -2.010417   -1.270265
 H    6.004119   -2.032914   -0.484901
 H    7.284109   -3.971838    0.222824
 H    7.028496   -2.887559    1.606035
 H    9.484510   -2.828243    0.046050
 H    8.996797   -3.905196    2.717385
 H    9.312078   -4.946737    1.315557
 H   10.554184   -3.804547    1.883787
 H    9.711576   -0.280770    0.478552
 H   11.457765   -0.250193    1.030561
 H   11.935785    1.571049   -0.549887
 H   10.194923    1.543560   -1.102888
 H   -5.332070    3.285156   -0.649661
 H   -5.220641    3.433205    1.097900
 H   -4.763512    4.802516    0.070941
