63 
3gwt_ligand_xtb.xyz
 O   -4.950086    2.672086   -0.324156
 C   -5.213416    1.593577   -0.848226
 N   -6.278820    1.486826   -1.673190
 C   -4.410068    0.374137   -0.628917
 C   -4.912578   -0.908613   -0.908916
 N   -4.247605   -2.020890   -0.789254
 C   -3.000290   -1.976056   -0.273666
 C   -2.391142   -0.755776    0.122746
 C   -1.171093   -0.810150    0.819403
 C   -0.566653   -2.015381    1.028188
 S    0.998767   -2.043221    1.898409
 O    1.166273   -0.791911    2.592233
 C    2.195937   -2.105690    0.558043
 C    2.605622   -0.920350   -0.017020
 C    3.517925   -0.955724   -1.066083
 C    3.940268    0.294758   -1.779702
 N    4.621851    1.210404   -1.061677
 C    5.026476    2.444989   -1.694049
 C    5.027390    1.058889    0.313026
 O    3.663192    0.451696   -2.957350
 C    3.970679   -2.184259   -1.537519
 C    3.553937   -3.364854   -0.945164
 C    2.661772   -3.327953    0.114019
 O    1.101635   -3.264132    2.654398
 C   -1.110691   -3.211475    0.559640
 C   -2.325834   -3.211962   -0.078178
 C   -2.974123   -4.470470   -0.552169
 C   -3.093352    0.468825   -0.134736
 N   -2.555133    1.675373    0.144510
 C   -1.216117    2.062492    0.025378
 C   -0.743675    3.060044    0.874958
 C   -0.390075    1.526788   -0.957680
 C    0.910331    1.984190   -1.076714
 C    1.391668    2.957348   -0.225597
 C    0.567092    3.502744    0.761030
 O    1.135117    4.454703    1.547333
 C    0.365940    5.019609    2.582758
 H   -6.825585    2.315837   -1.836816
 H   -6.487889    0.656704   -2.195225
 H   -5.932965   -1.034758   -1.250838
 H   -0.716239    0.071794    1.237750
 H    2.215735    0.011208    0.363513
 H    6.115307    2.496455   -1.770713
 H    4.594025    2.474620   -2.692164
 H    4.673379    3.299519   -1.114411
 H    4.432500    1.705179    0.964770
 H    4.910719    0.029283    0.640862
 H    6.078080    1.342350    0.410419
 H    4.657196   -2.203967   -2.370572
 H    3.923819   -4.311078   -1.309594
 H    2.330604   -4.225115    0.612633
 H   -0.578906   -4.130000    0.753948
 H   -3.984249   -4.535256   -0.155216
 H   -3.056562   -4.457798   -1.637524
 H   -2.401823   -5.340952   -0.245088
 H   -3.252288    2.426921    0.166345
 H   -1.415962    3.463087    1.615251
 H   -0.767146    0.768295   -1.626108
 H    1.544911    1.583636   -1.851803
 H    2.400148    3.326669   -0.309352
 H   -0.506699    5.551425    2.190647
 H    0.040001    4.259286    3.299134
 H    1.022928    5.728582    3.084102
