52 
3gwx_ligand_dft.xyz
 C   -7.855217    1.144799   -1.107295
 O   -7.778967    1.994860   -1.951930
 O   -8.783064    0.163409   -1.217656
 C   -6.955685    1.062749    0.114376
 C   -6.090372   -0.205745    0.144235
 C   -5.118142   -0.211964    1.331914
 C   -4.321722   -1.486432    1.401390
 C   -3.057621   -1.666347    1.014995
 C   -2.114312   -0.631263    0.455099
 C   -0.992452   -0.344427    1.422297
 C    0.300388   -0.641620    1.282423
 C    0.976035   -1.305004    0.108250
 C    1.890200   -0.336439   -0.600557
 C    3.223851   -0.343725   -0.630097
 C    4.159693   -1.336177    0.015324
 C    5.031632   -2.002488   -1.019490
 C    6.296607   -1.687216   -1.301210
 C    7.106684   -0.600656   -0.622486
 C    6.786286    0.758796   -1.194681
 C    6.214539    1.791500   -0.571536
 C    5.770959    1.886439    0.862381
 C    6.250751    3.178448    1.531212
 H   -8.728928   -0.434856   -0.461066
 H   -7.573780    1.112770    1.021676
 H   -6.321695    1.952131    0.099187
 H   -5.518940   -0.283153   -0.787897
 H   -6.719385   -1.105709    0.193650
 H   -5.689436   -0.091448    2.262462
 H   -4.461603    0.662062    1.259776
 H   -4.863898   -2.351891    1.782538
 H   -2.622491   -2.658541    1.129584
 H   -2.647347    0.300868    0.235175
 H   -1.719691   -0.991230   -0.501583
 H   -1.308113    0.139224    2.346288
 H    0.978272   -0.354727    2.085884
 H    0.234894   -1.686510   -0.603084
 H    1.536310   -2.176011    0.466587
 H    1.374375    0.473571   -1.115493
 H    3.732938    0.441171   -1.188133
 H    3.603617   -2.096481    0.574125
 H    4.780536   -0.803042    0.744782
 H    4.545669   -2.777837   -1.610122
 H    6.791006   -2.222165   -2.110378
 H    8.173560   -0.808921   -0.769491
 H    6.935276   -0.616709    0.458135
 H    7.025160    0.873605   -2.251678
 H    6.029853    2.690938   -1.161137
 H    6.124478    1.026837    1.441312
 H    4.672017    1.849899    0.895723
 H    7.344595    3.225842    1.548033
 H    5.886653    4.059149    0.990094
 H    5.889736    3.245636    2.562485
