74 
3gx0_ligand_xtb.xyz
 N    6.610130   -0.905949    0.484033
 C    6.320444   -2.335702    0.253975
 C    7.391490   -2.955640   -0.661209
 O    7.223215   -3.948228   -1.299547
 O    8.519436   -2.252573   -0.615210
 C    4.910643   -2.557053   -0.305988
 C    4.668759   -1.964914   -1.705904
 C    4.601183   -0.459213   -1.625264
 O    5.610590    0.241535   -1.605948
 N    3.379707    0.083743   -1.504043
 C    3.293461    1.428371   -0.974017
 C    3.915061    1.402055    0.445876
 O    4.162555    0.347072    1.002481
 C    1.862886    1.947801   -0.984955
 S    0.761830    1.099057    0.228077
 N    4.154709    2.601134    0.986480
 C    4.760127    2.741876    2.293684
 C    6.264218    2.460919    2.277337
 O    6.921062    3.341761    2.998370
 O    6.767346    1.534160    1.694775
 N   -3.947256    1.915886   -1.543440
 C   -5.084795    2.457789   -2.252835
 C   -6.308612    2.698334   -1.375365
 O   -6.611249    2.022807   -0.421233
 O   -7.010995    3.716833   -1.812522
 C   -3.899117    0.620224   -1.193325
 O   -4.787687   -0.173896   -1.412568
 C   -2.582606    0.158467   -0.506846
 N   -2.869045   -1.130140    0.089621
 C   -1.472320    0.047705   -1.536181
 S    0.106548   -0.529403   -0.787875
 C   -6.907969   -1.579110    0.913966
 C   -8.364508   -1.958194    1.233838
 O   -9.069988   -1.202424    1.845034
 O   -8.692877   -3.148072    0.792671
 N   -6.772569   -0.153516    1.283155
 C   -5.949544   -2.450478    1.742726
 C   -4.540046   -2.536363    1.147355
 C   -3.880233   -1.186604    0.975998
 O   -4.225488   -0.182947    1.592876
 H    6.546516   -0.379388   -0.437340
 H    7.535544   -0.749893    0.891229
 H    5.888609   -0.451828    1.077682
 H    6.392136   -2.869959    1.210209
 H    9.214415   -2.652787   -1.164129
 H    4.187263   -2.142874    0.398211
 H    4.759467   -3.635004   -0.367997
 H    5.476981   -2.258443   -2.376085
 H    3.735094   -2.364968   -2.098482
 H    2.574788   -0.518022   -1.399384
 H    3.920563    2.074396   -1.602824
 H    1.832682    2.996562   -0.695509
 H    1.429976    1.835841   -1.978115
 H    4.057871    3.436177    0.430496
 H    4.582675    3.742396    2.684178
 H    4.307501    2.001308    2.963682
 H    7.878359    3.173247    3.035875
 H   -3.266514    2.566478   -1.185041
 H   -4.813046    3.386745   -2.752505
 H   -5.396993    1.723465   -3.006399
 H   -7.828038    3.871429   -1.307147
 H   -2.311360    0.860872    0.290426
 H   -2.662047   -1.945742   -0.467825
 H   -1.711802   -0.701267   -2.290789
 H   -1.290153    1.003408   -2.024812
 H   -6.716818   -1.719410   -0.153277
 H   -9.611340   -3.387115    1.008219
 H   -5.803849   -0.005122    1.692368
 H   -7.541413    0.063873    1.941814
 H   -6.834506    0.503931    0.484164
 H   -6.350227   -3.463433    1.790864
 H   -5.904015   -2.059471    2.760833
 H   -3.916568   -3.145526    1.805982
 H   -4.584028   -3.032289    0.176928
