43 
3gxl_ligand_dft.xyz
 C   10.886186   62.933989    5.924848
 C   12.128561   63.558618    5.345772
 C   12.417362   63.488742    3.980202
 C   13.576617   64.090704    3.508605
 C   14.409462   64.744163    4.406185
 C   14.041990   64.761829    5.754253
 N   12.930067   64.182849    6.212107
 C   14.915962   65.449223    6.757556
 N   15.883634   66.237372    6.220127
 C   16.697513   66.867595    7.035689
 N   17.697781   67.639323    6.514500
 C   18.024069   67.859823    5.157443
 C   19.391765   68.112318    4.874210
 C   19.841662   68.385862    3.601708
 C   18.885250   68.390101    2.577186
 N   18.972504   68.607471    1.233698
 N   17.775554   68.514862    0.614835
 C   16.900861   68.237393    1.557403
 C   17.525198   68.139607    2.838036
 C   17.081297   67.881528    4.144363
 C   16.553629   66.759904    8.467732
 C   17.340970   67.433966    9.427509
 C   17.119112   67.239500   10.770146
 C   16.099336   66.364814   11.200406
 C   15.313239   65.709567   10.285660
 C   15.518549   65.896932    8.897696
 N   14.698985   65.236133    8.029064
 H   11.154826   62.228342    6.716766
 H   10.254128   63.704009    6.378653
 H   10.303598   62.406565    5.164150
 H   11.743101   62.970331    3.305327
 H   13.830233   64.049164    2.453241
 H   15.327133   65.224658    4.089831
 H   18.383350   67.973966    7.171317
 H   20.109177   68.079686    5.690853
 H   20.892274   68.577758    3.410286
 H   19.789173   68.808789    0.681875
 H   15.856491   68.115817    1.305076
 H   16.038551   67.692408    4.357371
 H   18.118255   68.131266    9.126157
 H   17.725670   67.764262   11.501452
 H   15.933713   66.217519   12.263407
 H   14.515214   65.039273   10.586302
