81 
3gxy_ligand_xtb.xyz
 C   -7.420307   -0.121336   -2.839314
 C   -8.539461   -0.475895   -1.861878
 C   -9.751706   -1.047931   -2.587361
 C   -5.477698   -0.355292   -1.214497
 C   -6.224600    0.560782   -2.176426
 C   -2.122207    0.342553    0.112890
 O   -2.410276    1.585419    0.693740
 C   -1.178836   -0.455404    1.022971
 O    0.033039    0.205828    1.342651
 C   -1.891922   -0.726330    2.355841
 O   -1.110748   -1.526597    3.198152
 C   -3.213221   -1.454055    2.079072
 O   -4.027841   -0.716135    1.186051
 C   -4.027845   -1.645226    3.362717
 O   -5.214416   -2.348625    3.122446
 O   -4.268960    0.296882   -0.835074
 C   -3.419132   -0.469560   -0.058092
 C    0.958429    0.327538    0.301189
 C    2.322856    0.626056    0.948028
 C    2.266342    2.025590    1.566390
 C    1.885287    3.035690    0.476365
 C    0.542618    2.617646   -0.137383
 C    0.154116    3.492733   -1.331598
 O    3.309905    0.541666   -0.065818
 O    3.503838    2.352949    2.148300
 O    1.837882    4.306623    1.079244
 O    0.610378    1.290501   -0.645203
 O   -0.024663    4.825813   -0.896784
 C    4.546023    0.052780    0.385481
 C    5.560602    0.313471   -0.741205
 C    5.248504   -0.604565   -1.927418
 C    5.185779   -2.057681   -1.429598
 C    4.131142   -2.162172   -0.319962
 C    4.022553   -3.586726    0.237536
 O    6.882423    0.034690   -0.340691
 O    6.199296   -0.482040   -2.953916
 O    4.864994   -2.924303   -2.493413
 O    4.480576   -1.296010    0.749380
 O    3.373124   -4.446728   -0.653441
 H   -7.084053   -1.028291   -3.346756
 H   -7.821145    0.552115   -3.600201
 H   -8.178780   -1.208128   -1.137991
 H   -8.835211    0.420454   -1.312747
 H  -10.148184   -0.326333   -3.298246
 H  -10.537601   -1.299576   -1.879553
 H   -9.479175   -1.949234   -3.131799
 H   -5.231314   -1.308149   -1.704603
 H   -6.072708   -0.564750   -0.320078
 H   -5.517820    0.881569   -2.943881
 H   -6.554488    1.448841   -1.635507
 H   -1.664570    0.481381   -0.878549
 H   -3.281987    1.852828    0.372131
 H   -0.943707   -1.411911    0.526939
 H   -2.102489    0.248059    2.821180
 H   -0.229085   -1.133582    3.225231
 H   -2.985852   -2.439243    1.641249
 H   -3.441289   -2.230219    4.071257
 H   -4.239835   -0.655861    3.790553
 H   -5.675958   -1.893371    2.407957
 H   -3.191479   -1.440384   -0.551493
 H    1.020476   -0.608827   -0.276554
 H    2.523475   -0.122095    1.722669
 H    1.475379    2.026030    2.332911
 H    2.661142    3.008997   -0.307286
 H   -0.239707    2.685973    0.631913
 H   -0.770864    3.090223   -1.759244
 H    0.947602    3.431296   -2.088129
 H    3.478767    3.306743    2.306042
 H    1.240120    4.859065    0.554888
 H   -0.355832    5.353242   -1.630860
 H    4.854956    0.574441    1.303708
 H    5.465033    1.364981   -1.049639
 H    4.280559   -0.326233   -2.356648
 H    6.169814   -2.325552   -1.009103
 H    3.155809   -1.870140   -0.737332
 H    3.427897   -3.564856    1.153721
 H    5.029999   -3.951266    0.484299
 H    7.046808    0.439381    0.517526
 H    7.068939   -0.456454   -2.531860
 H    5.286610   -2.562381   -3.285832
 H    3.797446   -4.344240   -1.517766
