36 
3gy2_ligand_xtb.xyz
 C   -2.305071   -0.824382    0.129761
 C   -3.408343   -1.624071   -0.180963
 C   -4.668289   -1.072075   -0.263199
 C   -4.862776    0.286526   -0.018018
 C   -3.765785    1.077314    0.324670
 C   -2.502650    0.536753    0.393852
 C   -6.197776    0.910717   -0.085948
 N   -6.417297    1.943418    0.617221
 N   -7.124170    0.284373   -0.885911
 N   -1.084899   -1.457138    0.230511
 N   -0.042636   -0.734285    0.133506
 N    1.076018   -1.397545    0.320312
 C    2.318868   -0.813288    0.191798
 C    2.447148    0.534678   -0.146003
 C    3.700705    1.094706   -0.264902
 C    4.848948    0.329806   -0.068021
 C    4.712943   -1.015864    0.266506
 C    3.463173   -1.582958    0.402640
 C    6.192143    0.952744   -0.181441
 N    6.508668    2.123367    0.200869
 N    7.173124    0.142764   -0.685132
 H   -3.250838   -2.675924   -0.365347
 H   -5.510313   -1.711668   -0.486508
 H   -3.939203    2.120680    0.536237
 H   -1.650828    1.142404    0.665143
 H   -7.356907    2.323225    0.527490
 H   -7.990546    0.767826   -1.061527
 H   -6.810811   -0.335484   -1.612885
 H    1.021928   -2.393958    0.551936
 H    1.555812    1.118042   -0.310560
 H    3.797970    2.137253   -0.532785
 H    5.595173   -1.612846    0.443308
 H    3.364770   -2.624765    0.673009
 H    5.756108    2.637417    0.646123
 H    8.048342    0.608540   -0.864213
 H    6.908267   -0.579056   -1.333441
