56 
3gzn_ligand_dft.xyz
 C    1.886503    1.903834    0.290276
 C    2.593157    1.248402   -0.929533
 C    3.480887    0.139988   -0.339659
 C    4.688801   -0.144085   -1.200019
 C   -1.728952    2.490826    0.239268
 C   -0.319951    0.701166    0.105726
 C   -0.802213   -1.451540   -0.117922
 C   -2.583118   -0.007690   -0.008021
 C   -5.126320   -1.495654    1.414795
 C   -6.275227   -0.431323   -0.394055
 C   -7.241330   -1.060791    0.390771
 C   -8.957809    0.096028   -0.823345
 C   -6.635406    0.459662   -1.396269
 C   -6.588328   -1.986903    1.392219
 C   -8.589511   -0.803389    0.177234
 C   -7.988608    0.724093   -1.604777
 C   -4.890276   -0.880726    0.014039
 N   -3.927802    0.200572   -0.034144
 N   -2.130217   -1.261149   -0.118882
 N    0.160974   -0.550979   -0.006812
 C   -1.673627    1.066686    0.109205
 C   -0.431704    2.912351    0.308423
 N    0.432205    1.837333    0.227782
 C    2.468702    1.203401    1.537890
 C    3.814099    0.660764    1.074506
 O    4.729750    1.738686    1.031041
 O    5.433312   -1.254858   -0.614061
 S    6.975772   -0.970220   -0.318454
 O    7.675800   -0.780836   -1.568614
 O    7.063014    0.034309    0.731865
 N    7.377850   -2.427139    0.333569
 H    2.129025    2.967972    0.320750
 H    1.871888    0.857956   -1.650010
 H    3.206116    2.000779   -1.436964
 H    2.881668   -0.771278   -0.236422
 H    4.417491   -0.459690   -2.209554
 H    5.324210    0.744489   -1.269716
 H   -2.601954    3.127403    0.267965
 H   -0.482534   -2.486771   -0.216138
 H   -4.397800   -2.275589    1.645619
 H   -5.017587   -0.699949    2.161780
 H  -10.008805    0.311342   -0.993067
 H   -5.873333    0.942922   -2.002215
 H   -6.646301   -3.024902    1.038899
 H   -7.063494   -1.956355    2.377797
 H   -9.348693   -1.287249    0.786324
 H   -8.289907    1.424250   -2.378374
 H   -4.524778   -1.654500   -0.669515
 H   -4.254275    1.107075    0.267165
 H   -0.032252    3.911727    0.410039
 H    2.573504    1.879509    2.389450
 H    1.819759    0.369872    1.821245
 H    4.184398   -0.138883    1.728128
 H    5.622930    1.362208    1.000990
 H    8.020058   -2.944593   -0.254353
 H    7.673607   -2.343699    1.298482
