33 
3h03_ligand_dft.xyz
 N   -0.497042   -1.404517    0.150904
 C    0.385121   -0.670493    0.928665
 O   -0.038158    0.096704    1.795799
 N    1.713371   -0.819065    0.641686
 C    2.246151   -1.733875   -0.305117
 O    3.441308   -1.769237   -0.501424
 C    1.252451   -2.541875   -0.995606
 C   -0.051337   -2.335242   -0.773130
 C   -1.915588   -1.159615    0.348935
 C   -2.399640    0.123285   -0.349971
 N   -1.724831    1.347328    0.200737
 C   -3.921664    0.223662   -0.234731
 O   -4.324154    1.481301   -0.011176
 O   -4.637868   -0.728054   -0.360318
 C    2.649639    0.139294    1.236517
 C    3.141484    1.175828    0.224418
 C    2.083564    2.004354   -0.457299
 O    2.592736    3.120648   -0.960211
 O    0.905172    1.709408   -0.597836
 H    1.602844   -3.276154   -1.707604
 H   -0.829781   -2.887560   -1.287527
 H   -2.485426   -1.989906   -0.069266
 H   -2.128421   -1.113718    1.419731
 H   -2.159517    0.075519   -1.417058
 H   -2.372043    2.140702    0.225481
 H   -1.344092    1.134068    1.146787
 H   -0.870610    1.602138   -0.330648
 H   -5.296525    1.500099    0.029435
 H    3.512523   -0.417883    1.602987
 H    2.144592    0.606124    2.079729
 H    3.845039    1.854807    0.714310
 H    3.709388    0.672979   -0.567945
 H    1.898169    3.594453   -1.446451
