39 
3h23_ligand_xtb.xyz
 O   -6.251691   -2.119116   -0.486242
 C   -6.035206   -1.065221    0.044694
 O   -7.007343   -0.433607    0.731510
 C   -4.706230   -0.393767   -0.002569
 C   -4.527523    0.970518    0.196183
 C   -3.268768    1.540177    0.116436
 C   -3.590591   -1.180130   -0.295803
 C   -2.333764   -0.625731   -0.365915
 C   -2.160160    0.746162   -0.160298
 O   -0.880209    1.212952   -0.248146
 C   -0.661651    2.611651   -0.138019
 C    0.809757    2.920787   -0.402679
 C    1.746683    2.361453    0.671179
 N    1.797454    0.920781    0.613654
 C    2.907126    0.249496    0.253722
 C    2.828355   -1.222053    0.105083
 N    1.899382   -1.922256   -0.408306
 O    0.765993   -1.385213   -0.880496
 C    4.109485   -1.932373    0.430068
 O    4.195646   -3.059792    0.845508
 N    5.193473   -1.144666    0.166849
 C    5.162183    0.224419   -0.207916
 N    3.999234    0.892087    0.005563
 N    6.166120    0.851110   -0.644827
 H   -6.695238    0.374406    1.158437
 H   -5.367468    1.627510    0.381948
 H   -3.171840    2.603285    0.268591
 H   -3.735996   -2.235370   -0.465523
 H   -1.476729   -1.239739   -0.591411
 H   -0.939641    2.953317    0.868627
 H   -1.280021    3.140068   -0.874324
 H    0.923817    4.003923   -0.438362
 H    1.095174    2.515877   -1.374530
 H    1.412030    2.677197    1.663803
 H    2.764618    2.714419    0.498686
 H    0.982455    0.418695    0.932619
 H    0.729676   -0.404360   -0.858035
 H    6.100536   -1.582641    0.280567
 H    7.011655    0.299901   -0.743710
