17 
3h2a_ligand_xtb.xyz
 O   -1.127494   -2.562501    0.091777
 C   -0.983756   -1.356973    0.020328
 C    0.329968   -0.757781   -0.245203
 N    2.838980    0.961788    0.123440
 O    2.851879    0.052885    0.924997
 O    1.346801   -1.615058   -0.455145
 N   -2.013037   -0.468977    0.168696
 C   -1.938744    0.904785    0.083125
 N   -2.994695    1.580273    0.228059
 N   -0.665503    1.395323   -0.166472
 C    0.453469    0.591783   -0.302785
 N    1.680627    1.245954   -0.470660
 H    0.996930   -2.508933   -0.285630
 H   -2.938274   -0.836473    0.355148
 H   -2.891219    2.584449    0.159760
 H   -0.543366    2.397240   -0.178269
 H    1.716224    2.069701   -1.058278
