22 
3h2f_ligand_xtb.xyz
 O    1.593977    2.614833   -0.003599
 C    1.199107    1.469233   -0.001706
 C   -0.134492    0.957539    0.000074
 C   -0.360789   -0.423794    0.000351
 N    0.646659   -1.336746    0.008269
 C    1.867788   -0.886281    0.003383
 N    2.886721   -1.781922   -0.049194
 N    2.172533    0.427481    0.003631
 N   -1.182869    1.855893   -0.000838
 C   -2.366836    1.421802    0.002104
 C   -2.774077   -0.032392    0.005656
 N   -1.616494   -0.906749   -0.000959
 C   -1.899301   -2.315669   -0.006226
 H    3.815807   -1.490963    0.199806
 H   -3.171660    2.144388    0.001998
 H   -3.400009   -0.247435   -0.877414
 H   -3.390126   -0.246456    0.896155
 H   -2.466771   -2.589675    0.888166
 H   -2.492462   -2.576069   -0.887686
 H   -0.957642   -2.855976   -0.024130
 H    3.135358    0.739860   -0.018758
 H    2.641438   -2.744664    0.102460
