22 
3h2n_ligand_xtb.xyz
 O    0.819088    2.657330    0.218180
 C    0.961332    1.465265    0.087940
 N    2.186832    0.869668    0.035103
 C   -0.164181    0.485360   -0.031844
 N   -1.333898    0.899943   -0.285704
 C   -2.415530   -0.029468   -0.423629
 C   -3.701292    0.648734    0.044226
 C   -2.167934   -1.345310    0.333785
 N   -0.823978   -1.809276    0.071751
 C    0.202702   -0.946938    0.043952
 N    1.417986   -1.385187   -0.019082
 C    2.457215   -0.496158   -0.049916
 N    3.681670   -0.824042   -0.121828
 H    3.005275    1.465867    0.078139
 H   -2.499122   -0.234903   -1.501069
 H   -3.643919    0.862637    1.108333
 H   -4.558862    0.009175   -0.145624
 H   -3.824982    1.586806   -0.487269
 H   -2.308896   -1.168979    1.410463
 H   -2.877189   -2.109504    0.012382
 H   -0.602183   -2.789556    0.160453
 H    3.823031   -1.826840   -0.170029
