40 
3h2o_ligand_dft.xyz
 O  -84.012276   93.700547   94.426697
 C  -83.220852   93.606925   95.341853
 O  -83.533736   94.041511   96.585865
 C  -81.867607   93.033040   95.246229
 C  -81.005966   92.946049   96.342915
 C  -79.743236   92.391141   96.212012
 C  -81.431047   92.549658   94.005746
 C  -80.176159   91.994168   93.864627
 C  -79.300951   91.907352   94.966726
 N  -78.041093   91.379062   94.779456
 C  -77.347656   90.674345   95.842651
 C  -78.087785   89.445030   96.393675
 C  -78.454940   88.434737   95.341763
 C  -79.246169   87.213934   95.789431
 N  -79.053713   86.144370   94.825354
 C  -78.967738   86.447592   93.502338
 N  -79.238924   85.443317   92.623921
 C  -79.134065   85.757407   91.357534
 N  -79.331250   84.786822   90.416692
 N  -78.806130   86.998893   90.916473
 C  -78.488066   88.093447   91.771276
 O  -78.196767   89.168272   91.275323
 C  -78.576462   87.730040   93.152921
 N  -78.186477   88.656854   94.115070
 H  -84.433898   94.394052   96.513691
 H  -81.329891   93.318214   97.309068
 H  -79.090203   92.345272   97.077633
 H  -82.104597   92.611856   93.157002
 H  -79.850453   91.604575   92.903335
 H  -77.963503   90.860513   93.910981
 H  -76.385258   90.359290   95.431157
 H  -77.128556   91.362064   96.666284
 H  -77.472104   88.966367   97.168306
 H  -79.013760   89.759271   96.899117
 H  -79.651582   85.055642   89.498884
 H  -79.734302   83.936967   90.782917
 H  -78.901974   86.875826   96.772333
 H  -79.422527   85.229071   95.037808
 H  -78.695312   87.193061   89.929727
 H  -80.310015   87.495446   95.894210
