38 
3h2o_ligand_xtb.xyz
 O    5.861025   -2.410850   -0.594774
 C    5.592294   -1.102847   -0.815225
 O    6.355379   -0.439157   -1.469344
 C    4.356271   -0.563119   -0.212392
 C    4.217101    0.825179   -0.154655
 C    3.100283    1.412781    0.391003
 C    3.312698   -1.352138    0.282167
 C    2.189642   -0.771080    0.819970
 C    2.058521    0.624771    0.900128
 N    0.956322    1.140164    1.521276
 C    0.485418    2.483299    1.311659
 C   -0.120578    2.705545   -0.089267
 C   -1.374196    1.910924   -0.293129
 C   -2.452905    2.382237   -1.064355
 N   -3.545865    1.687212   -1.265380
 C   -3.624395    0.475068   -0.698393
 N   -4.750305   -0.251766   -0.906989
 C   -4.828447   -1.418167   -0.352530
 N   -5.917476   -2.178667   -0.582096
 N   -3.845001   -1.951702    0.442698
 C   -2.641018   -1.310714    0.731884
 O   -1.812946   -1.839280    1.435961
 C   -2.554056    0.002511    0.094362
 N   -1.452276    0.723715    0.279276
 H    5.203347   -2.819605   -0.017817
 H    5.018412    1.430618   -0.550564
 H    3.037768    2.489202    0.424458
 H    3.345927   -2.433273    0.219634
 H    1.379451   -1.387571    1.182081
 H    0.199259    0.473783    1.623862
 H    1.307688    3.186468    1.462179
 H   -0.276289    2.686504    2.068689
 H    0.616628    2.393367   -0.835652
 H   -0.330467    3.765214   -0.243113
 H   -2.421550    3.358990   -1.530261
 H   -6.100040   -3.011540   -0.052422
 H   -3.960137   -2.875415    0.844210
 H   -6.665246   -1.750648   -1.098895
