102 
3h8c_ligand_xtb.xyz
 C    3.645305   -0.732754    2.908406
 C    3.970520    0.449944    2.013047
 O    3.629088    1.592427    2.266745
 C   -0.060808   -2.581706    1.722370
 C    1.093020   -3.343029    1.886644
 C    2.282055   -2.749582    2.268743
 C    2.351962   -1.378402    2.484700
 C    1.203784   -0.612981    2.310061
 C    0.013580   -1.207893    1.938032
 C   -3.719235   -4.528249    0.740845
 C   -1.382925   -4.169320    0.330859
 C   -1.329606   -3.233106    1.360084
 C   -2.570301   -4.806081    0.020325
 C   -2.494909   -2.947949    2.066964
 C   -3.677298   -3.597234    1.764485
 N    4.646846    0.138685    0.891281
 C    5.131083    1.171671   -0.000897
 C    4.099694    1.521759   -1.092099
 O    4.362506    1.482391   -2.281438
 C    6.439904    0.754432   -0.646630
 C    9.041077   -0.091469   -0.486840
 N    2.905181    1.859777   -0.591064
 C    1.765035    2.269518   -1.380677
 C    1.384377    1.268511   -2.490618
 C    0.843539   -0.080664   -2.009920
 C    1.840387   -0.957532   -1.257833
 N    2.974468   -1.308463   -2.092958
 C    4.078970   -1.918908   -1.547827
 N    5.211557   -1.863512   -2.336130
 N    4.171894   -2.491361   -0.412442
 C    0.593650    2.479228   -0.419695
 O    0.639402    2.152921    0.746806
 N   -0.472747    3.091889   -0.977907
 C   -1.762605    3.087117   -0.326443
 C   -2.646427    2.063697   -1.053457
 O   -2.446705    1.779221   -2.218330
 C   -2.411157    4.482877   -0.388516
 C   -3.717351    4.495975    0.351942
 C   -4.923603    4.394092   -0.329382
 C   -3.732492    4.564510    1.740575
 C   -6.121817    4.363505    0.362626
 C   -4.929742    4.534500    2.433380
 C   -6.127481    4.432107    1.745437
 C   -5.112431   -1.909856   -0.677625
 C   -6.365097   -2.205989   -0.158703
 C   -7.142888   -3.202787   -0.721141
 C   -6.677346   -3.911532   -1.815037
 C   -5.432197   -3.616949   -2.344313
 C   -4.656321   -2.621520   -1.779355
 C   -4.269476   -0.820849   -0.080549
 C   -4.523675    0.513926   -0.793633
 N   -3.630303    1.539317   -0.306027
 S    7.705584    0.426981    0.626800
 H    3.540042   -0.348797    3.925799
 H    4.458204   -1.458257    2.878443
 H    1.050782   -4.412271    1.736647
 H    3.162458   -3.360563    2.407370
 H    1.245577    0.455590    2.455360
 H   -0.866096   -0.596212    1.796970
 H   -4.644560   -5.031060    0.503308
 H   -0.487863   -4.388877   -0.233967
 H   -2.599986   -5.526065   -0.784441
 H   -2.459671   -2.231320    2.875225
 H   -4.571606   -3.380753    2.330569
 H    4.819496   -0.830374    0.632734
 H    5.275142    2.071511    0.614153
 H    6.293901   -0.155426   -1.231746
 H    6.800133    1.551804   -1.297196
 H    8.728848   -0.972893   -1.039985
 H    9.283232    0.720553   -1.166887
 H    9.899035   -0.324917    0.134206
 H    2.773198    1.917341    0.418746
 H    1.995447    3.228586   -1.870794
 H    0.613469    1.727749   -3.113091
 H    2.266281    1.133956   -3.117750
 H    0.488628   -0.628284   -2.886158
 H   -0.014310    0.085009   -1.355001
 H    2.158054   -0.450488   -0.337329
 H    1.333316   -1.884545   -0.961827
 H    3.195334   -0.627163   -2.805468
 H    5.068289   -1.717868   -3.322373
 H    5.891038   -2.571763   -2.106183
 H    3.312717   -2.487389    0.124803
 H   -0.521328    3.172020   -1.984306
 H   -1.597365    2.789212    0.713521
 H   -1.716197    5.198921    0.054335
 H   -2.566170    4.748706   -1.436018
 H   -4.923121    4.338257   -1.408383
 H   -2.799390    4.647850    2.279328
 H   -7.053067    4.288009   -0.179045
 H   -4.928460    4.593974    3.511697
 H   -7.062161    4.410984    2.285560
 H   -6.731521   -1.658106    0.698165
 H   -8.113193   -3.428891   -0.303355
 H   -7.282252   -4.692127   -2.252367
 H   -5.063933   -4.167646   -3.197399
 H   -3.681483   -2.398337   -2.187771
 H   -4.496196   -0.709583    0.981844
 H   -3.212984   -1.077318   -0.181639
 H   -5.560512    0.830977   -0.645026
 H   -4.331773    0.409833   -1.863615
 H   -3.723890    1.818579    0.657985
