102 
3h8c_ligand_dft.xyz
 C    3.719965   -1.577902    2.840370
 C    2.581733   -1.492220    3.848929
 O    1.802377   -2.425473    4.026686
 C    2.129216   -1.080909   -1.173543
 C    3.281854   -0.397751   -0.768754
 C    3.804547   -0.573890    0.508950
 C    3.190850   -1.432495    1.424239
 C    2.062699   -2.142294    1.010840
 C    1.544256   -1.965719   -0.263219
 C    0.450307   -0.513551   -5.093374
 C    1.610773    0.359949   -3.164327
 C    1.539737   -0.882139   -2.522532
 C    1.083845    0.539716   -4.439166
 C    0.897253   -1.934605   -3.190898
 C    0.354751   -1.751236   -4.460226
 N    2.445000   -0.306745    4.487426
 C    1.384298   -0.082198    5.455499
 C    0.115811    0.495675    4.784548
 O   -0.384646    1.555803    5.157333
 C    1.839812    0.847997    6.572460
 C    3.438692    1.408346    8.727804
 N   -0.357974   -0.238028    3.758099
 C   -1.501205    0.131121    2.943183
 C   -1.439166    1.556652    2.349790
 C   -0.386631    1.816370    1.263572
 C    1.073000    1.666440    1.682872
 N    1.412100    2.585204    2.759980
 C    2.704841    2.621170    3.240971
 N    2.837548    3.391177    4.392042
 N    3.737015    2.003812    2.781376
 C   -1.592340   -0.930525    1.835651
 O   -0.863521   -1.914989    1.828617
 N   -2.479157   -0.688059    0.844983
 C   -2.307937   -1.321273   -0.443732
 C   -2.828779   -0.321299   -1.478224
 O   -3.691500    0.498366   -1.172692
 C   -3.026705   -2.690409   -0.548208
 C   -2.348313   -3.605272   -1.537335
 C   -2.747104   -3.676549   -2.872965
 C   -1.251394   -4.367216   -1.121612
 C   -2.063986   -4.488668   -3.775632
 C   -0.566997   -5.179604   -2.020099
 C   -0.970708   -5.240208   -3.352929
 C   -2.588388    2.733792   -4.821367
 C   -1.838364    2.728007   -6.000156
 C   -2.236077    3.474076   -7.104945
 C   -3.398777    4.238108   -7.047263
 C   -4.157482    4.248773   -5.880139
 C   -3.754352    3.500921   -4.777528
 C   -2.179478    1.881006   -3.646922
 C   -2.725934    0.453673   -3.790938
 N   -2.305973   -0.424341   -2.713939
 S    3.303470    0.165844    7.415261
 H    4.178606   -2.563588    2.970903
 H    4.481953   -0.817797    3.037930
 H    3.792857    0.263680   -1.462732
 H    4.705266   -0.035409    0.795042
 H    1.560754   -2.803583    1.707388
 H    0.651657   -2.517043   -0.538342
 H    0.037846   -0.372762   -6.088376
 H    2.073963    1.200507   -2.655612
 H    1.162340    1.511950   -4.917733
 H    0.839517   -2.916530   -2.731318
 H   -0.132708   -2.586984   -4.953184
 H    3.074092    0.457060    4.253476
 H    1.128328   -1.067841    5.860401
 H    2.072480    1.836100    6.161928
 H    1.021542    0.961576    7.287922
 H    3.580814    2.408418    8.307753
 H    2.553338    1.405909    9.370333
 H    4.312559    1.153386    9.331760
 H    0.064638   -1.140898    3.541656
 H   -2.414450    0.075945    3.553491
 H   -2.424301    1.784563    1.925985
 H   -1.325969    2.248056    3.186972
 H   -0.539242    2.835387    0.889137
 H   -0.553729    1.143760    0.413350
 H    1.283606    0.624055    1.957601
 H    1.703924    1.902423    0.818362
 H    0.718134    2.650974    3.497836
 H    2.268764    4.226802    4.416277
 H    3.809605    3.567295    4.608554
 H    3.473551    1.403312    2.003282
 H   -3.054757    0.144880    0.825709
 H   -1.236283   -1.487764   -0.593514
 H   -2.988664   -3.138863    0.447974
 H   -4.081293   -2.533623   -0.799921
 H   -3.599087   -3.091010   -3.208511
 H   -0.936786   -4.313932   -0.081544
 H   -2.391975   -4.539159   -4.810123
 H    0.280239   -5.767316   -1.679110
 H   -0.440791   -5.876561   -4.055403
 H   -0.929942    2.131558   -6.048190
 H   -1.636761    3.461687   -8.010864
 H   -3.710622    4.823581   -7.907053
 H   -5.065025    4.843130   -5.826501
 H   -4.349102    3.511917   -3.867163
 H   -1.088622    1.830149   -3.567490
 H   -2.563081    2.301250   -2.712549
 H   -2.379419    0.010359   -4.728523
 H   -3.819695    0.482194   -3.812956
 H   -1.520430   -1.042533   -2.873229
