57 
3h98_ligand_xtb.xyz
 C   -0.252868    2.620413   -1.192455
 C    0.296751    2.201947    0.169500
 C   -0.763575    2.389362    1.253134
 C    1.549467    3.002265    0.548380
 C    2.766450    2.767676   -0.349978
 C    2.883582    0.625119   -1.496540
 C    2.984452   -0.900852   -1.338025
 N    3.133963    1.358664   -0.395694
 N    4.000026   -0.512784    0.808319
 O    2.470630    1.088941   -2.544428
 C    4.014598   -1.390071   -0.324626
 O    5.264715   -1.387132   -0.960103
 N    3.762768    1.390455    1.913371
 C    4.424030   -0.738077    2.096698
 C    4.266952    0.443430    2.753252
 C    3.608687    0.786806    0.765677
 C    1.569262   -1.237263   -0.927173
 C   -1.241561   -1.223875   -0.418433
 C   -0.712601   -0.923886   -1.665370
 C   -1.572871   -0.458806   -2.660316
 O   -4.047076    1.259470    1.036978
 S   -5.164896    0.473407    0.620459
 O   -6.406792    1.124926    0.337405
 C   -5.457608   -0.867585    1.790832
 N   -4.770952   -0.344706   -0.815006
 C   -3.430114   -0.543647   -1.117727
 C   -2.574087   -1.031315   -0.134773
 S   -0.173026   -1.946049    0.813965
 O   -0.320046   -3.371794    0.740687
 O   -0.377383   -1.321493    2.081423
 N    1.346199   -1.578073    0.276011
 C   -2.913468   -0.278800   -2.388193
 N    0.651167   -1.041186   -1.906617
 H   -0.453629    3.689573   -1.202350
 H    0.448239    2.390857   -1.991553
 H   -1.185478    2.097463   -1.393907
 H    0.555684    1.135953    0.138088
 H   -0.414286    1.976246    2.195623
 H   -1.691712    1.887449    0.989595
 H   -0.977080    3.446998    1.392577
 H    1.834837    2.746272    1.569092
 H    1.317305    4.068331    0.515313
 H    2.571528    3.075011   -1.377824
 H    3.618056    3.323356    0.047931
 H    3.223403   -1.328703   -2.314557
 H    3.741581   -2.402630    0.015384
 H    5.947720   -1.678844   -0.344565
 H    4.771279   -1.697583    2.417692
 H    4.479861    0.685035    3.773993
 H   -1.180238   -0.218740   -3.636735
 H   -5.668453   -1.764105    1.223990
 H   -4.580125   -0.985657    2.412615
 H   -6.314757   -0.586842    2.389811
 H   -5.340675   -0.012272   -1.578935
 H   -2.920939   -1.256005    0.857485
 H   -3.571403    0.088276   -3.161900
 H    0.988577   -0.624163   -2.769220
