61 
3hb4_ligand_dft.xyz
 N    4.709333   -2.934592    2.054020
 C   -1.556871    0.056827   -0.263506
 C   -2.895852    0.805054   -0.443526
 C   -0.420429    1.020076   -0.578313
 C   -1.557832   -1.200397   -1.128268
 C   -0.403522    2.243216    0.358913
 C   -4.088955   -0.121459   -0.229102
 C   -1.724832    3.001083    0.187516
 C    1.029993    0.531037   -0.571089
 C    5.119382   -2.861959    0.745986
 C    5.800292   -1.271923   -1.025850
 C   -3.957274   -1.512524   -0.351050
 C   -2.944944    2.089493    0.406586
 C    1.863058    1.840214   -0.544882
 C    0.846031    2.969132   -0.188408
 C   -0.192717    1.884120    1.838068
 C    5.009117   -1.513658    0.096089
 C   -5.363705    0.391025    0.043063
 C    5.743380   -0.034718   -1.656322
 C    3.087241    1.777034    0.383280
 C    4.144130   -0.518636    0.558812
 C    4.886249    0.951964   -1.181026
 C   -2.622456   -2.173911   -0.629753
 C   -6.328854   -1.802617    0.088235
 C    4.066115    0.722046   -0.072790
 C   -5.075531   -2.334542   -0.189769
 C   -6.474290   -0.421992    0.204202
 O   -7.439316   -2.573445    0.250780
 O    5.528820   -3.840809    0.145592
 O    1.436188    3.919565    0.675286
 H    4.910192   -3.808469    2.518386
 H    4.717062   -2.107832    2.630659
 H   -1.471701   -0.263141    0.786565
 H   -2.919628    1.127388   -1.499007
 H   -0.614032    1.411936   -1.592486
 H   -0.576763   -1.687616   -1.106323
 H   -1.754028   -0.922773   -2.173404
 H   -1.783476    3.855081    0.876870
 H   -1.769580    3.412193   -0.831693
 H    1.229757   -0.079199    0.318875
 H    1.275131   -0.092185   -1.435314
 H    6.452727   -2.061006   -1.384261
 H   -3.842420    2.667100    0.162716
 H   -3.037926    1.817566    1.465174
 H    2.243404    2.035335   -1.554354
 H    0.550891    3.468524   -1.126174
 H   -0.002621    2.794165    2.414388
 H   -1.066404    1.389291    2.269590
 H    0.664375    1.223498    1.990700
 H   -5.505598    1.463069    0.132999
 H    6.369037    0.162133   -2.521836
 H    2.768799    1.573796    1.411232
 H    3.571022    2.758335    0.398871
 H    3.489592   -0.716642    1.404827
 H    4.844554    1.917920   -1.679403
 H   -2.761015   -2.989764   -1.348983
 H   -2.266372   -2.643383    0.298211
 H   -4.955394   -3.413317   -0.288426
 H   -7.453359   -0.004952    0.414644
 H   -7.195197   -3.500830    0.147157
 H    0.796557    4.629519    0.805823
