33 
3hb8_ligand_xtb.xyz
 N    1.602919    0.384257    0.049830
 C    2.840117    0.683635    0.611826
 N    3.804133   -0.258378    0.395446
 C    3.703758   -1.454801   -0.324793
 C    2.378724   -1.664083   -0.869933
 C    1.403528   -0.762492   -0.670571
 O    3.043204    1.702985    1.229679
 O    4.665103   -2.177799   -0.433261
 C    0.551424    1.354990    0.229073
 C    0.257517    2.206576   -1.010210
 C   -1.148163    2.723857   -0.687961
 C   -1.742789    1.592116    0.178187
 O   -1.146410    3.889151    0.092185
 O   -0.676295    0.717313    0.531310
 C   -2.818506    0.787223   -0.552068
 O   -3.227837   -0.311666    0.219519
 P   -2.302368   -1.632428    0.134730
 O   -1.541445   -1.712673   -1.118938
 O   -1.518921   -1.740056    1.500187
 O   -3.349915   -2.790232    0.360827
 H    4.710522   -0.054913    0.804010
 H    2.198420   -2.563647   -1.431094
 H    0.399480   -0.916033   -1.039284
 H    0.858061    2.001541    1.066686
 H    0.985348    3.004676   -1.137775
 H    0.238419    1.572633   -1.896921
 H   -1.744389    2.873515   -1.598819
 H   -2.159395    2.027968    1.095194
 H   -0.729368    4.609203   -0.394793
 H   -3.700024    1.408165   -0.724123
 H   -2.412501    0.425585   -1.503311
 H   -0.941401   -0.983406    1.619229
 H   -3.550534   -3.218334   -0.470219
