67 
3hc8_ligand_xtb.xyz
 C   -2.810655   -1.278369    0.021242
 C   -2.334187   -2.448084    0.643817
 C   -0.978469   -2.631578    0.785043
 C   -0.110962   -1.647361    0.313955
 C   -0.668984   -0.508499   -0.295881
 N   -1.968738   -0.355457   -0.441354
 N    1.267162   -1.753840    0.419693
 C    2.079636   -0.812130   -0.046973
 C    1.514273    0.414783   -0.698070
 N    0.160772    0.485961   -0.776205
 O    2.272398    1.266652   -1.115565
 N    3.383950   -0.834336    0.027221
 C    4.289642   -1.782415    0.612583
 C    5.595971   -0.999264    0.891183
 N    5.825112   -0.101785   -0.226537
 C    6.338141    1.222313    0.112821
 C    7.842350    1.198381    0.405602
 O    8.553960    0.668672   -0.689420
 C    8.127530   -0.638280   -0.993916
 C    6.626111   -0.669183   -1.309475
 C   -4.226270   -1.006630   -0.160928
 C   -5.231192   -1.601543    0.622902
 C   -6.544156   -1.281204    0.396897
 C   -6.845105   -0.354629   -0.620485
 N   -5.900994    0.210752   -1.366742
 C   -4.644395   -0.104595   -1.141483
 C   -0.419352    1.732092   -1.249005
 O   -8.115326   -0.043752   -0.827744
 C   -0.347965    2.783389   -0.120975
 O   -0.906428    2.336077    1.080791
 C   -2.318495    2.458361    1.176609
 C   -2.733603    2.173294    2.616095
 C   -2.509277    0.715967    2.998718
 C   -8.392922    0.898187   -1.852586
 H   -3.020497   -3.202738    0.987904
 H   -0.582511   -3.522494    1.250049
 H    1.642807   -2.579285    0.876676
 H    4.484204   -2.596200   -0.094720
 H    3.891935   -2.205317    1.537815
 H    6.408357   -1.712178    1.067128
 H    5.460061   -0.406949    1.798073
 H    3.916180   -0.062779   -0.422946
 H    5.788029    1.620012    0.966746
 H    6.156582    1.866293   -0.752122
 H    8.041110    0.600441    1.309856
 H    8.222412    2.208935    0.555996
 H    8.353290   -1.311342   -0.150767
 H    8.707193   -0.954944   -1.861433
 H    6.440464   -0.063505   -2.200442
 H    6.303600   -1.692651   -1.505578
 H   -4.977265   -2.283032    1.420624
 H   -7.348281   -1.701593    0.976925
 H   -3.920701    0.369268   -1.789653
 H   -1.449783    1.526515   -1.531434
 H    0.159917    2.083864   -2.103467
 H   -0.832541    3.703668   -0.471446
 H    0.702334    2.997431    0.096342
 H   -2.810577    1.751031    0.495246
 H   -2.614166    3.479204    0.896988
 H   -3.788211    2.427484    2.727667
 H   -2.151767    2.817448    3.276133
 H   -3.133969    0.062691    2.393004
 H   -1.467182    0.447782    2.842157
 H   -2.756204    0.557306    4.044935
 H   -7.922375    1.857218   -1.629283
 H   -8.021203    0.538568   -2.813583
 H   -9.474909    1.001548   -1.876541
