43 
3hdz_ligand_dft.xyz
 N    2.097823    0.629711   -0.871742
 C   -0.280999    0.234183   -0.533095
 C    0.222107   -2.305307    0.245748
 C    2.721579   -1.854037    0.275741
 C    3.450351    0.098785   -1.045465
 C    1.912808    1.971836   -1.403808
 C   -2.706735   -0.203817   -0.106483
 C   -3.723288   -1.146346   -0.288978
 C   -5.057672   -0.759196   -0.274687
 C   -4.394799    1.518789    0.130938
 C   -5.398642    0.575449   -0.068025
 C    1.063664   -0.180262   -0.503965
 C    1.326060   -1.490361   -0.025647
 C   -1.284574   -0.637912   -0.135695
 N   -1.045825   -1.912541    0.208373
 N    0.432913   -3.650084    0.646535
 C    3.719784   -1.082512   -0.168870
 O    2.983482   -2.921099    1.067184
 C    2.150823    3.072673   -0.366688
 C    1.124502    3.097031    0.765963
 C   -3.059097    1.131647    0.112845
 C    1.429762    4.173034    1.805983
 H   -0.550206    1.227801   -0.859969
 H    4.154453    0.903583   -0.799775
 H    3.612106   -0.132452   -2.116248
 H    0.917838    2.070943   -1.845841
 H    2.619896    2.091714   -2.234056
 H   -3.447094   -2.184268   -0.440360
 H   -5.835579   -1.502038   -0.425610
 H   -4.651536    2.558601    0.311159
 H   -6.441768    0.877476   -0.054637
 H    0.877567   -4.202712   -0.081101
 H   -0.464147   -4.062741    0.882712
 H    4.744668   -1.312499    0.099071
 H    2.135691   -3.311698    1.357376
 H    2.150998    4.040885   -0.885716
 H    3.156482    2.947785    0.057583
 H    1.093862    2.114238    1.250657
 H    0.123998    3.268382    0.345022
 H   -2.286859    1.872100    0.302251
 H    2.409023    4.003486    2.267927
 H    1.444235    5.170461    1.351356
 H    0.680339    4.178103    2.603680
