70 
3hec_ligand_xtb.xyz
 C    9.174281   -3.544303   -0.350392
 C    7.826333   -3.232739   -0.311909
 C    7.441269   -1.945834    0.056892
 C    8.456052   -1.035210    0.361132
 N    9.739971   -1.328318    0.322026
 C   10.091210   -2.555711   -0.025243
 C    6.035898   -1.530264    0.132997
 C    4.999978   -2.430033    0.402770
 C    3.722762   -1.897349    0.460187
 N    3.472351   -0.616490    0.272092
 C    4.517805    0.170064    0.024881
 N    5.790845   -0.238556   -0.047080
 N    4.364760    1.502428   -0.173427
 C    3.231303    2.305373   -0.171402
 C    3.410188    3.694050   -0.292474
 C    2.286223    4.503860   -0.284133
 C    1.014329    3.978614   -0.167133
 C    0.843292    2.600686   -0.059847
 C    1.953484    1.766987   -0.059765
 N   -0.464646    2.117940    0.041861
 C   -0.915742    0.830355    0.095371
 C   -2.405815    0.731279    0.176581
 C   -3.266038    1.616354   -0.467629
 C   -4.634246    1.451768   -0.366266
 C   -5.177056    0.414831    0.385146
 C   -4.314591   -0.477380    1.011458
 C   -2.945884   -0.326403    0.901493
 C   -6.671930    0.217737    0.428538
 N   -7.208982   -0.383138   -0.787156
 C   -6.733547   -1.728003   -1.078840
 C   -7.374629   -2.756097   -0.127372
 N   -8.816088   -2.681689   -0.025688
 C   -9.528208   -3.105157   -1.214097
 C  -10.851707   -0.098951    0.811225
 C  -10.137450    0.975635    1.074277
 O   -0.209725   -0.155456    0.097466
 C    4.777101    4.302480   -0.425270
 H    9.506750   -4.530855   -0.634852
 H    7.087157   -3.971969   -0.585448
 H    8.200653   -0.025901    0.652521
 H   11.155715   -2.749239   -0.046790
 H    5.182253   -3.476198    0.579598
 H    2.854724   -2.510599    0.664129
 H    5.245922    1.970911   -0.331524
 H    2.407907    5.573987   -0.370626
 H    0.155919    4.635610   -0.161171
 H    1.833438    0.701651    0.030256
 H   -1.167510    2.842558    0.088136
 H   -2.876862    2.418277   -1.080254
 H   -5.294363    2.141106   -0.875442
 H   -4.720169   -1.294711    1.590260
 H   -2.271259   -1.022710    1.376183
 H   -7.172700    1.182552    0.551091
 H   -6.946697   -0.418693    1.271596
 H   -6.997023    0.223278   -1.573730
 H   -5.636777   -1.821043   -1.017882
 H   -7.031607   -1.958607   -2.104470
 H   -6.974189   -2.621430    0.881128
 H   -7.100814   -3.760339   -0.463003
 H   -9.072422   -1.721410    0.192391
 H   -9.350403   -2.476282   -2.097172
 H   -9.234271   -4.127906   -1.453419
 H  -10.595409   -3.095513   -0.995912
 H  -11.029773   -0.862936    1.550138
 H  -11.297585   -0.262675   -0.156228
 H   -9.963332    1.739293    0.334019
 H   -9.693508    1.143405    2.042074
 H    5.402609    4.058181    0.433989
 H    5.277667    3.951820   -1.328931
 H    4.698304    5.384950   -0.485819
