70 
3hec_ligand_dft.xyz
 C    8.945819   -3.844441   -0.399699
 C    7.608204   -3.475193   -0.399062
 C    7.265979   -2.169332   -0.043822
 C    8.307634   -1.296179    0.291975
 N    9.593252   -1.638520    0.299785
 C    9.896939   -2.892843   -0.042709
 C    5.863639   -1.695589   -0.013193
 C    4.777174   -2.568834    0.145313
 C    3.519644   -1.996161    0.154711
 N    3.304183   -0.684134    0.030473
 C    4.403690    0.060104   -0.094218
 N    5.669454   -0.382788   -0.127486
 N    4.314006    1.427874   -0.215018
 C    3.231076    2.305312   -0.195507
 C    3.523473    3.679115   -0.353176
 C    2.467338    4.581858   -0.332063
 C    1.152440    4.171640   -0.162629
 C    0.887556    2.813702   -0.008702
 C    1.911319    1.870724   -0.025191
 N   -0.479154    2.451034    0.148189
 C   -1.011297    1.242301    0.447822
 C   -2.526677    1.219139    0.532583
 C   -3.362673    1.967401   -0.299596
 C   -4.743198    1.821775   -0.220727
 C   -5.300733    0.923397    0.694009
 C   -4.462615    0.183978    1.538905
 C   -3.086259    0.323450    1.447521
 C   -6.777007    0.710687    0.721092
 N   -7.211706   -0.187669   -0.465467
 C   -6.624700   -1.577946   -0.414564
 C   -7.597374   -2.545190    0.230126
 N   -8.841897   -2.716533   -0.618214
 C   -9.995099   -3.233756    0.199468
 C   -9.175671   -1.444448   -1.376160
 C   -8.710499   -0.218442   -0.609442
 O   -0.410037    0.200500    0.644324
 C    4.938454    4.163842   -0.537367
 H    9.250302   -4.847305   -0.678643
 H    6.846593   -4.190491   -0.695994
 H    8.075363   -0.272873    0.572651
 H   10.954207   -3.146906   -0.034138
 H    4.907687   -3.634879    0.280852
 H    2.629314   -2.609831    0.273038
 H    5.229262    1.841478   -0.313416
 H    2.679818    5.640301   -0.450940
 H    0.350634    4.906143   -0.148557
 H    1.707938    0.818478    0.097405
 H   -1.110149    3.239392    0.160465
 H   -2.940756    2.651498   -1.029715
 H   -5.380648    2.428165   -0.862956
 H   -4.886499   -0.485300    2.285708
 H   -2.419979   -0.260152    2.073866
 H   -7.348379    1.634481    0.590877
 H   -7.120688    0.202386    1.626444
 H   -6.807988    0.269554   -1.289613
 H   -5.694248   -1.527155    0.156770
 H   -6.364969   -1.880506   -1.432180
 H   -7.922221   -2.203238    1.216220
 H   -7.133407   -3.525883    0.352506
 H   -8.638226   -3.435277   -1.319774
 H   -9.665960   -4.117981    0.747400
 H  -10.310352   -2.455415    0.896188
 H  -10.813272   -3.495359   -0.472538
 H  -10.256997   -1.407337   -1.520781
 H   -8.707618   -1.506585   -2.361617
 H   -9.028141    0.686593   -1.131226
 H   -9.137276   -0.184581    0.396630
 H    5.571961    3.915396    0.323863
 H    5.405445    3.733935   -1.432618
 H    4.963115    5.249983   -0.650798
