48 
3heg_ligand_xtb.xyz
 C    4.692858    0.156518   -0.023697
 C    4.527874   -1.223331    0.068503
 C    5.660990   -2.037050    0.137074
 C    6.926493   -1.491605    0.111979
 C    2.032887   -1.242569   -0.007391
 C   -0.351984   -1.967379   -0.002175
 C   -0.917885   -0.738673   -0.327365
 C   -2.290428   -0.608748   -0.415532
 C   -3.117614   -1.698638   -0.170574
 C   -2.555583   -2.930129    0.146721
 C   -1.185044   -3.061159    0.226968
 O   -4.484405   -1.647912   -0.316830
 C   -4.775811    0.279629    1.141020
 C   -5.640639    1.284603    1.541976
 C   -7.255136    0.629565    0.085951
 C   -6.477230   -0.411406   -0.392255
 N   -9.255615    1.899808    0.071636
 C  -10.581293    2.315096   -0.299312
 C    7.092721   -0.116717    0.019074
 C    5.967131    0.703295   -0.047217
 C    6.130644    2.198096   -0.145315
 F    6.798178    2.569534   -1.251040
 F    4.961468    2.847311   -0.181616
 F    6.807170    2.709818    0.897356
Cl    8.683338    0.543082   -0.013003
 N    3.281771   -1.836294    0.104364
 N    1.030048   -2.174193    0.089056
 O    1.862585   -0.059012   -0.166796
 C   -5.199795   -0.591013    0.138005
 N   -6.844291    1.470536    1.035128
 C   -8.629529    0.844850   -0.478613
 O   -9.104827    0.129347   -1.340233
 H    3.826122    0.794869   -0.079343
 H    5.548458   -3.109327    0.209741
 H    7.796185   -2.126127    0.163757
 H   -0.282546    0.109662   -0.515238
 H   -2.719727    0.342803   -0.691531
 H   -3.203963   -3.774069    0.320435
 H   -0.756744   -4.023036    0.471944
 H   -3.807790    0.169897    1.604533
 H   -5.348987    1.979553    2.318613
 H   -6.860828   -1.063527   -1.159638
 H   -8.743220    2.408020    0.779092
 H  -10.571147    3.328950   -0.704944
 H  -10.939000    1.624942   -1.062429
 H  -11.252579    2.282996    0.561283
 H    3.319416   -2.842129    0.190731
 H    1.286284   -3.133629    0.274363
