60 
3hfb_ligand_xtb.xyz
 O   -8.502263    0.930394   -0.959587
 C   -7.629969    1.266853   -0.050724
 O   -7.843391    1.833676    0.991332
 C   -6.196586    0.830891   -0.383347
 N   -5.336136    1.504858    0.621572
 C   -6.067005   -0.701935   -0.210690
 C   -4.607392   -1.054759   -0.135243
 C   -3.864906   -1.307345   -1.282574
 C   -2.503044   -1.520024   -1.206856
 C   -1.837043   -1.466307    0.020845
 C   -2.584718   -1.212636    1.173585
 C   -3.948945   -1.004731    1.099885
 C   -0.398376   -1.652025    0.135496
 N    0.176774   -1.191548    1.260863
 C    1.472569   -1.266955    1.382089
 C    2.286240   -1.795163    0.348576
 N    1.700513   -2.365041   -0.715134
 C    0.390993   -2.298272   -0.816678
 N    3.626558   -1.826904    0.363171
 C    4.514215   -1.078076    1.222775
 C    5.384311   -0.140963    0.417361
 C    4.812996    0.866745   -0.364340
 C    5.636253    1.688182   -1.125863
 C    7.009914    1.529455   -1.105751
 C    7.576199    0.536451   -0.325546
 C    6.763623   -0.295630    0.424051
 C    3.345464    1.066601   -0.435162
 C    2.673366    0.635477   -1.575098
 C    1.307729    0.800722   -1.698876
 C    0.597547    1.407584   -0.677190
 C    1.261456    1.856098    0.448284
 C    2.636255    1.700270    0.585386
 C    3.317650    2.240852    1.807750
 H   -9.414641    1.176651   -0.725362
 H   -5.924568    1.116644   -1.400145
 H   -6.004837    1.810648    1.370893
 H   -4.849416    2.328525    0.260440
 H   -4.634632    0.794782    0.974480
 H   -6.551634   -1.189467   -1.054924
 H   -6.578536   -1.008278    0.703925
 H   -4.361744   -1.347571   -2.240528
 H   -1.948161   -1.713351   -2.110659
 H   -2.070889   -1.188884    2.120842
 H   -4.516948   -0.911393    2.019242
 H    1.881610   -0.912886    2.317099
 H   -0.032616   -2.804334   -1.673325
 H    4.043855   -2.231857   -0.464270
 H    3.918372   -0.513018    1.940014
 H    5.150534   -1.777638    1.777278
 H    5.185910    2.461028   -1.731534
 H    7.636014    2.178034   -1.699061
 H    8.646954    0.404618   -0.304745
 H    7.205716   -1.076027    1.026486
 H    3.233885    0.158121   -2.365708
 H    0.800657    0.454470   -2.587208
 H   -0.473412    1.533062   -0.760796
 H    0.710100    2.340048    1.242154
 H    2.896894    1.798494    2.710619
 H    3.162465    3.317421    1.870352
 H    4.387536    2.051882    1.784312
