57 
3hha_ligand_xtb.xyz
 O    1.693812   -0.909347    1.010249
 C    0.883379   -0.547095    0.171854
 C   -0.472942   -1.085218    0.077452
 N   -0.880404   -2.180068    0.768072
 C   -0.099854   -3.040267    1.609955
 N   -2.158963   -2.427246    0.577104
 C   -2.629742   -1.486625   -0.239170
 C   -4.075519   -1.481322   -0.647438
 C   -4.940594   -1.400378    0.616083
 C   -4.378750   -0.292628   -1.560219
 C   -4.375492   -2.792785   -1.383453
 C   -1.599593   -0.609072   -0.589278
 N    1.199521    0.367250   -0.791611
 C    2.320572    1.274131   -0.609255
 C    3.640276    0.525944   -0.354187
 N    3.760434   -0.629973   -1.041148
 C    4.906045   -1.497401   -0.904416
 C    4.569883   -2.826794   -0.265477
 N    3.605157   -3.109581    0.475656
 O    4.525316    0.994271    0.324188
 C    2.056024    2.270515    0.537932
 C    0.705328    2.900096    0.361986
 C    0.524218    3.966995   -0.510772
 C   -0.741404    4.479667   -0.728577
 C   -0.401694    2.365500    1.005711
 C   -1.680396    2.863621    0.787730
 C   -2.850627    2.254114    1.497618
 C   -1.839030    3.927284   -0.089869
 H   -0.766989   -3.808746    1.994226
 H    0.335849   -2.472859    2.432579
 H    0.714169   -3.500885    1.048309
 H   -4.697055   -2.223206    1.282379
 H   -5.994967   -1.456027    0.355093
 H   -4.763970   -0.464353    1.141959
 H   -5.432033   -0.295888   -1.831215
 H   -4.157053    0.646986   -1.058999
 H   -3.791634   -0.348231   -2.474481
 H   -3.773937   -2.869236   -2.286974
 H   -5.426030   -2.837711   -1.661396
 H   -4.142836   -3.637276   -0.740748
 H   -1.671135    0.259307   -1.212497
 H    0.433758    0.732010   -1.337239
 H    2.442367    1.822689   -1.551382
 H    2.955903   -0.999291   -1.524167
 H    5.363932   -1.665959   -1.886037
 H    5.626576   -0.970073   -0.268762
 H    5.269724   -3.626329   -0.499430
 H    2.988593   -2.326310    0.707284
 H    2.105696    1.722183    1.479512
 H    2.851782    3.014736    0.532837
 H    1.378016    4.396597   -1.014758
 H   -0.876270    5.311850   -1.404105
 H   -0.269297    1.541025    1.693007
 H   -3.789977    2.601331    1.073419
 H   -2.830534    2.525207    2.553080
 H   -2.810942    1.167456    1.433186
 H   -2.825467    4.329255   -0.271936
