59 
3hhm_ligand_xtb.xyz
 C    1.978100    1.230436   -0.156156
 O    3.248640    1.237682   -0.783644
 C    1.101091    0.065897   -0.671037
 C    2.155553    1.283547    1.370182
 C    3.947636    0.097452   -0.899041
 O    5.057231    0.140513   -1.362505
 C    3.300657   -1.168565   -0.448402
 C    1.850090   -1.218830   -0.371477
 C    4.141792   -2.168756   -0.146794
 C    1.168338   -2.360654   -0.104839
 C   -0.298200   -2.443070   -0.103608
 O    1.747044   -3.552826    0.159433
 O   -0.807398   -3.529509    0.126104
 C   -1.080460   -1.197742   -0.428083
 O   -0.520086    2.443281    0.491089
 C   -1.127804    1.334458   -0.190136
 C   -0.507693    3.627355   -0.141880
 C   -0.291041    0.051815    0.021330
 C   -2.460827   -1.215417    0.225032
 C    0.997702    0.206577   -2.202103
 C   -2.559327    1.248004    0.363614
 C   -3.271028    0.020645   -0.176222
 C   -3.546181    0.163316   -1.681506
 C   -4.633921   -0.298349    0.428038
 C   -3.426557   -2.373206   -0.039641
 C   -4.764992   -1.809686    0.454178
 O   -5.453530    0.493699    0.802213
 O   -0.915070    3.792023   -1.259634
 C    0.113205    4.688511    0.724390
 O    2.360834   -0.002616    1.902004
 C    2.678559    0.012518    3.270470
 H    1.551117    2.183826   -0.476562
 H    1.270968    1.749363    1.826342
 H    3.026350    1.925305    1.577921
 H    5.201220   -2.004008   -0.255898
 H    3.810722   -3.125261    0.206558
 H    1.002103   -4.179590    0.284800
 H   -1.209867   -1.190906   -1.515280
 H   -1.170618    1.589153   -1.253813
 H   -0.111840   -0.046618    1.097063
 H   -2.305120   -1.165462    1.310493
 H    0.491079   -0.648370   -2.641262
 H    0.473552    1.118154   -2.478624
 H    1.993230    0.254983   -2.637305
 H   -3.090660    2.162495    0.093805
 H   -2.508334    1.199839    1.453979
 H   -4.077410   -0.700821   -2.070270
 H   -2.631616    0.292085   -2.252019
 H   -4.169759    1.040756   -1.839545
 H   -3.140151   -3.275178    0.494242
 H   -3.459916   -2.612125   -1.102105
 H   -5.618436   -2.123708   -0.146641
 H   -4.972218   -2.111455    1.482374
 H   -0.140897    4.519758    1.766173
 H   -0.226583    5.666892    0.398795
 H    1.195579    4.639766    0.616859
 H    2.813476   -1.025965    3.564026
 H    3.604114    0.569586    3.456777
 H    1.870452    0.462000    3.860783
