35 
3hk1_ligand_xtb.xyz
 C   -5.405455   -1.637925    0.217380
 C   -4.925607   -0.613598   -0.813311
 C   -3.885637    0.364855   -0.249580
 O   -6.540241   -1.668899    0.606857
 O   -4.488000   -2.492868    0.646851
 O   -2.244205   -1.402687   -0.291137
 N   -1.521306    0.744714   -0.153175
 C   -0.152422    0.555418   -0.091806
 C    0.701231    1.651005   -0.001887
 S    2.357897    1.159137    0.062122
 C    1.900838   -0.512725   -0.032598
 C    0.534178   -0.667802   -0.109040
 C    0.288782    3.032153    0.039291
 O    1.314488    3.883095    0.134491
 C    0.981743    5.261836    0.185171
 O   -0.879669    3.386033   -0.009169
 C    2.881196   -1.550900   -0.025460
 C    2.673095   -2.908365   -0.095582
 C    3.866166   -3.648565   -0.061761
 C    4.971601   -2.859922    0.033143
 S    4.580270   -1.192180    0.083287
 C   -2.480100   -0.205476   -0.235914
 H   -5.801420   -0.058315   -1.148902
 H   -4.501304   -1.150035   -1.665896
 H   -4.150605    0.638228    0.776154
 H   -3.887484    1.281509   -0.842504
 H   -3.596357   -2.296148    0.264099
 H   -1.778820    1.733918   -0.113641
 H    0.037092   -1.616205   -0.173832
 H    0.396249    5.543868   -0.692347
 H    0.397452    5.477901    1.082117
 H    1.925947    5.799024    0.205682
 H    1.697923   -3.352691   -0.168204
 H    3.903702   -4.721988   -0.105580
 H    5.999465   -3.160694    0.077142
