84 
3hkn_ligand_dft.xyz
 C    2.454658   -1.770707   -0.392091
 C    2.040521   -0.746776    0.662247
 O    0.476813    0.717282   -0.559827
 C   -0.613824    0.773108    0.282469
 C   -1.711058    1.547036   -0.458761
 C   -3.045961    1.406483    0.250826
 C   -3.364074   -0.058409    0.531184
 C   -2.204219   -0.698366    1.283943
 C   -2.384719   -2.199469    1.491126
 C   -0.757047   -2.771242   -1.877823
 C    0.372421   -2.772416   -0.890225
 C    3.081027    0.023856    2.665627
 C    2.744749    0.948939   -1.098792
 C    3.203142    2.393338   -1.080306
 C   -0.466896    4.904987   -1.317082
 C   -0.767359    3.450282   -1.542287
 O   -0.510271    2.818505   -2.536074
 O   -1.370730    2.927185   -0.446836
 O   -4.044601    1.973613   -0.588515
 C   -5.183489    2.370241    0.031134
 C   -6.221946    2.774034   -0.974652
 O   -5.322331    2.358769    1.228737
 O   -3.508804   -0.752033   -0.710832
 C   -4.759992   -1.017953   -1.142844
 C   -4.722798   -1.834232   -2.400956
 O   -5.757977   -0.669323   -0.556546
 O   -3.663180   -2.421384    2.086490
 C   -4.566854   -3.133579    1.377227
 C   -5.913977   -3.100229    2.040276
 O   -4.322327   -3.678718    0.326976
 O   -1.008329   -0.559582    0.544200
 C    1.754864    0.630555    0.036293
 O    3.171074   -0.677651    1.527600
 C    4.415195    0.063762    3.354906
 O    2.066360    0.569853    3.040396
 O    1.382580   -1.972505   -1.310910
 O    0.399961   -3.365907    0.159955
 C    3.628706   -1.220584   -1.228051
 S    5.181940   -2.108284   -0.877477
 O    4.905980   -3.509901   -1.151994
 O    5.737775   -1.669944    0.389258
 N    6.143252   -1.550866   -2.127615
 O    3.901664    0.130147   -1.020461
 O    3.775048    2.720920    0.190951
 C    3.061703    3.522145    1.007153
 C    3.727148    3.669498    2.346599
 O    1.997871    4.013987    0.710593
 H    2.704469   -2.719579    0.089000
 H    1.164739   -1.097794    1.208968
 H   -0.366537    1.279883    1.230790
 H   -1.767956    1.177960   -1.485302
 H   -3.021771    1.947123    1.202543
 H   -4.290073   -0.130005    1.103473
 H   -2.114537   -0.192199    2.258482
 H   -1.620770   -2.585411    2.167330
 H   -2.316333   -2.723258    0.539119
 H   -1.407752   -3.625764   -1.688186
 H   -1.325541   -1.848110   -1.724866
 H   -0.384864   -2.785649   -2.904390
 H    2.222240    0.769387   -2.049652
 H    3.989179    2.543122   -1.822370
 H    2.354740    3.046922   -1.291597
 H   -0.138092    5.355950   -2.253419
 H    0.324124    4.984196   -0.565320
 H   -1.350807    5.421362   -0.934327
 H   -6.686070    1.858971   -1.357280
 H   -6.983186    3.384663   -0.489089
 H   -5.771964    3.307528   -1.814441
 H   -4.493862   -2.866710   -2.117861
 H   -3.942250   -1.477535   -3.076635
 H   -5.697723   -1.800877   -2.887001
 H   -5.825087   -2.999377    3.122910
 H   -6.473538   -3.998174    1.776103
 H   -6.448992   -2.227839    1.648796
 H    1.817849    1.369175    0.837465
 H    4.307001    0.506559    4.344959
 H    4.841926   -0.939583    3.419722
 H    5.098916    0.662903    2.745120
 H    3.429155   -1.436758   -2.286454
 H    6.582215   -2.335669   -2.598791
 H    6.819896   -0.871743   -1.795402
 H    3.293621    2.918454    3.017104
 H    3.507768    4.656751    2.755346
 H    4.803953    3.507449    2.279943
