49 
3hkt_ligand_xtb.xyz
 O    2.778811    2.418730    0.152672
 C    2.839899    1.023037    0.198429
 C    2.695962    0.410010   -1.202586
 O    3.764874    0.826100   -2.021584
 C    2.734692   -1.120671   -1.101001
 O    3.981947   -1.569082   -0.639020
 C    1.617573   -1.552485   -0.150278
 C    1.573505   -3.057115    0.082460
 O    0.341682   -3.365437    0.705659
 O    1.763943   -0.958428    1.140146
 C    1.769072    0.439272    1.139382
 O    0.535375    0.966834    0.736865
 C   -0.424327    1.243901    1.732094
 C   -1.184615   -0.011170    2.212997
 O   -0.408838   -0.933783    2.916876
 C   -1.819156   -0.668628    0.977768
 O   -2.674168   -1.728135    1.340025
 C   -2.616967    0.317751    0.146604
 S   -2.559788   -0.333204   -1.582918
 O   -1.172766   -0.486178   -1.902231
 O   -3.379006    0.471142   -2.430201
 N   -3.243898   -1.844112   -1.536118
 O   -2.044335    1.570433   -0.048652
 C   -1.445426    2.192753    1.081747
 C   -0.812203    3.481598    0.530661
 O    0.076900    3.237706   -0.522401
 H    1.866613    2.688141   -0.076364
 H    3.827543    0.762384    0.596976
 H    1.730916    0.715635   -1.634696
 H    3.887183    1.772553   -1.867858
 H    2.526074   -1.541323   -2.097278
 H    4.647680   -1.069679   -1.132841
 H    0.674361   -1.231675   -0.613488
 H    2.420210   -3.331751    0.719810
 H    1.659424   -3.568879   -0.883067
 H    0.343333   -4.299823    0.938076
 H    1.990705    0.729738    2.178016
 H    0.054417    1.732935    2.594268
 H   -1.971343    0.303941    2.910410
 H    0.327840   -1.236579    2.349390
 H   -1.002788   -1.052289    0.351526
 H   -2.199116   -2.245092    2.007306
 H   -3.655055    0.381990    0.494525
 H   -2.865833   -2.429427   -0.806999
 H   -4.248010   -1.794546   -1.493223
 H   -2.212903    2.452599    1.827457
 H   -1.628616    4.133584    0.191238
 H   -0.248989    3.990158    1.316382
 H   -0.343180    2.588713   -1.104936
