73 
3hkw_ligand_xtb.xyz
 C    1.668686   -2.788106    3.233646
 C    1.572363   -1.536282    3.821821
 C    0.791053   -0.563750    3.236211
 C    0.086396   -0.826252    2.066993
 C    0.172728   -2.079318    1.457244
 C    0.977062   -3.058889    2.070233
 C   -0.414065    0.493995    0.087465
 C   -1.882038   -2.705075   -1.628117
 C    1.763885    1.527056    0.664136
 C    1.086122    0.567621   -0.091198
 C    3.126896    1.681512    0.595716
 C    3.888058    0.876820   -0.258052
 C    1.859907   -0.215435   -0.927903
 C   -4.185672   -1.814980   -1.140120
 C    8.440732    0.045079   -0.644118
 O    1.024463   -4.292015    1.463878
 C   -1.786610    0.661799    2.170012
 C   -2.537159    1.757317    1.534364
 C   -3.895819    1.914936    1.518191
 C   -2.969563    3.515169    0.423246
 C   -2.897398    4.730775   -0.416654
 C   -4.996902    1.099462    2.076947
 F    1.314477   -1.177479   -1.710778
 C    3.236790   -0.078375   -1.024902
 O    5.220247    1.106545   -0.269078
 C    6.038122    0.346039   -1.143673
 C    7.454591    0.844592   -1.014082
 C    7.639393    2.292605   -1.339275
 N   -0.694351    0.202844    1.497111
 N   -1.973826    2.804800    0.837840
 O   -4.165879    3.033882    0.807449
 O   -2.142782    0.170159    3.228577
 C   -1.144548   -0.467324   -0.792028
 S   -2.121408    0.381480   -2.007222
 O   -1.254168    1.192908   -2.820940
 O   -3.179875    1.090608   -1.326934
 C   -2.852510   -0.910336   -3.060534
 C   -3.176653   -2.149959   -2.239391
 C   -3.771526   -3.218956   -3.165974
 C   -1.180881   -1.799545   -0.648761
 N   -0.523108   -2.491891    0.331953
 H    2.278039   -3.559794    3.684226
 H    2.107898   -1.329292    4.734317
 H    0.693295    0.410804    3.685282
 H   -0.805556    1.494312   -0.135371
 H   -1.176336   -2.931143   -2.434466
 H   -2.118441   -3.646100   -1.124776
 H    1.182225    2.163665    1.312545
 H    3.634618    2.426396    1.186555
 H   -5.126932   -1.495880   -1.581538
 H   -3.822506   -1.009619   -0.509198
 H   -4.375564   -2.688926   -0.520477
 H    9.453713    0.399765   -0.564084
 H    8.279481   -0.993681   -0.411278
 H    1.585266   -4.875921    1.986646
 H   -3.702962    5.413651   -0.158397
 H   -1.932864    5.209691   -0.279678
 H   -3.000221    4.443054   -1.462688
 H   -5.691418    1.731439    2.627823
 H   -5.544036    0.609818    1.271513
 H   -4.574937    0.352508    2.743036
 H    3.759188   -0.729382   -1.706744
 H    5.981574   -0.719287   -0.885669
 H    5.695475    0.480045   -2.180925
 H    8.661565    2.607916   -1.152173
 H    6.960889    2.889864   -0.733119
 H    7.398401    2.475641   -2.386268
 H   -2.112989   -1.110287   -3.831504
 H   -3.741376   -0.468177   -3.504047
 H   -4.023712   -4.114039   -2.602173
 H   -4.677301   -2.848212   -3.638866
 H   -3.064872   -3.490736   -3.946743
 H   -0.413085   -3.484588    0.170187
