34 
3hl8_ligand_xtb.xyz
Cl    6.355319   -0.145865    0.027072
 C    4.647373   -0.406598    0.007701
 C    4.163469   -1.714389   -0.013328
 C    2.806619   -1.953243   -0.028404
 C    3.801293    0.687149    0.013569
 C    2.439207    0.443888   -0.001794
 S    1.133355    1.596350    0.001236
 C    1.927289   -0.874181   -0.022366
 N    0.566748   -0.954761   -0.033770
 C    0.034488    0.208892   -0.023700
 N   -1.308604    0.454469   -0.028142
 C   -1.863949    1.722491   -0.015644
 O   -1.228387    2.746872   -0.003182
 N   -2.247409   -0.541859   -0.037383
 C   -3.410354   -0.015639   -0.033906
 C   -3.356484    1.487830   -0.026585
 C   -4.667091   -0.828856    0.008276
 C   -4.363344   -2.266813   -0.415019
 C   -5.182741   -0.817216    1.456213
 C   -5.722769   -0.218090   -0.919389
 H    4.862284   -2.535745   -0.017445
 H    2.413013   -2.956203   -0.044568
 H    4.188917    1.692736    0.029900
 H   -3.808042    1.933112   -0.913748
 H   -3.830328    1.931422    0.849388
 H   -4.019795   -2.293066   -1.445228
 H   -3.580914   -2.683131    0.211275
 H   -5.257148   -2.879112   -0.327001
 H   -4.431570   -1.227065    2.126666
 H   -5.426207    0.192783    1.778320
 H   -6.080859   -1.425129    1.529270
 H   -6.013591    0.775676   -0.587343
 H   -5.346068   -0.153098   -1.937771
 H   -6.609870   -0.846327   -0.924944
