62 
3hmo_ligand_xtb.xyz
 O   -0.783013   -1.939217   -1.715176
 C    0.324587   -2.462273   -1.041264
 C   -0.061063   -3.377587    0.138752
 C   -1.097003   -2.716893    1.031383
 C   -2.309145   -2.242408    0.196905
 C   -1.890507   -1.375119   -1.042225
 C   -3.000175   -1.429539   -2.104056
 N   -1.620447   -0.007214   -0.621601
 C   -0.347796    0.520670   -0.446177
 C    0.898732   -0.102137   -0.414125
 C    2.074932    0.641571   -0.152993
 C    1.969440    2.015717    0.075479
 C    0.730710    2.642133    0.034997
 C   -0.430180    1.911546   -0.207186
 C   -1.823898    2.242181   -0.250152
 C   -2.532432    1.043200   -0.494760
 C   -3.919956    1.055698   -0.509956
 C   -4.571212    2.261823   -0.332491
 C   -3.873930    3.448753   -0.131008
 C   -2.496900    3.446669   -0.078074
 C    0.910708    4.107125    0.283663
 N    2.332917    4.203812    0.483491
 C    3.009532    3.030699    0.372542
 O    4.202142    2.887297    0.514166
 C    3.165720   -0.287777   -0.213060
 C    2.613436   -1.551025   -0.518953
 C    3.409945   -2.676758   -0.652772
 C    4.773889   -2.514392   -0.489316
 C    5.329361   -1.271833   -0.189337
 C    4.540329   -0.148807   -0.047851
 N    1.234027   -1.434548   -0.605766
 O   -3.136626   -1.466810    1.037382
 C   -4.277042   -2.126175    1.561847
 N   -0.592908   -1.520972    1.768355
 C    0.224670   -1.801046    2.957244
 H    0.837167   -3.064496   -1.805533
 H    0.840387   -3.638629    0.693563
 H   -0.492283   -4.298320   -0.255778
 H   -1.448674   -3.426201    1.790411
 H   -2.834738   -3.126265   -0.182280
 H   -2.938587   -0.558180   -2.748385
 H   -2.836624   -2.316215   -2.710771
 H   -3.986537   -1.481961   -1.659555
 H   -4.503631    0.162345   -0.637696
 H   -5.649931    2.279299   -0.350391
 H   -4.418106    4.371345   -0.005918
 H   -1.946930    4.357409    0.094528
 H    0.359621    4.447199    1.169225
 H    0.581848    4.704123   -0.575612
 H    2.800958    5.077610    0.655168
 H    2.992769   -3.643628   -0.892169
 H    5.420564   -3.371289   -0.598379
 H    6.398156   -1.190421   -0.070406
 H    4.956656    0.819334    0.180169
 H   -3.996688   -2.965082    2.205583
 H   -4.927392   -2.488750    0.763127
 H   -4.807343   -1.378223    2.146512
 H   -0.052213   -0.904731    1.117478
 H   -1.459667   -1.003916    2.016161
 H   -0.329282   -2.415722    3.664608
 H    0.500592   -0.866835    3.441726
 H    1.136249   -2.321596    2.669950
