59 
3hnz_ligand_dft.xyz
 O   -4.595764    1.335158   -1.087120
 O    0.172786   -1.627467    0.556765
 O    1.491632    2.885453   -0.807546
 O    3.723358    3.203712    0.475439
 O    3.395580   -1.419384   -0.550076
 O    5.615326   -2.793305   -0.606178
 O    7.546460   -1.741810   -0.229666
 N    2.092534    0.785846   -0.120625
 C    1.199475    1.722421   -0.515364
 C   -0.234510    1.230035   -0.552723
 C   -0.774244    0.937620    0.863233
 C   -1.765699   -0.235236    0.953034
 C   -1.043758   -1.526649    0.528441
 C   -1.882980   -2.677663    0.136095
 C   -3.187864   -2.554186   -0.136701
 C   -3.932223   -1.262153   -0.110259
 C   -2.962374   -0.046587   -0.012458
 C   -3.788095    1.261173    0.084210
 C   -4.867405    1.252060    1.167157
 C   -5.740893    0.116993    0.617380
 C   -5.054946   -1.213741    0.959715
 C   -4.816512   -1.021353   -1.355774
 C   -5.545579    0.269371   -0.941346
 C   -6.781323    0.613774   -1.741855
 C   -2.113744   -0.436194    2.443226
 C    6.210518   -1.748340   -0.350016
 C    5.572462   -0.454860   -0.151971
 C    4.171926   -0.363402   -0.271621
 C    3.508014    0.859409   -0.069224
 C    4.258616    2.005427    0.239111
 C    5.661894    1.906733    0.342877
 C    6.301038    0.706696    0.160386
 H    2.843548    3.259752    0.018322
 H    3.984286   -2.205192   -0.628273
 H    7.832799   -2.656168   -0.381027
 H    1.719487   -0.147739    0.046814
 H   -0.260122    0.323658   -1.167350
 H   -0.827193    1.993266   -1.060630
 H   -1.238874    1.840784    1.273128
 H    0.061961    0.699767    1.526247
 H   -1.368960   -3.631050    0.058926
 H   -3.763492   -3.437516   -0.415310
 H   -2.503908    0.020721   -1.008645
 H   -3.145103    2.144064    0.091811
 H   -5.385842    2.214921    1.150152
 H   -4.517122    1.061089    2.183521
 H   -6.785656    0.168623    0.931695
 H   -4.701677   -1.248074    1.991741
 H   -5.725346   -2.069460    0.814242
 H   -5.514472   -1.856907   -1.495289
 H   -4.255287   -0.875178   -2.282686
 H   -7.524241   -0.186786   -1.666444
 H   -7.225895    1.541741   -1.369554
 H   -6.526710    0.754230   -2.796874
 H   -2.613166    0.445484    2.853681
 H   -1.190002   -0.588038    3.011170
 H   -2.748711   -1.308930    2.609548
 H    6.206856    2.813693    0.577518
 H    7.379308    0.641380    0.251663
