39 
3hp2_ligand_dft.xyz
 C   -5.051768   -0.363647    2.080715
 C   -5.747133   -1.561701    1.922352
 C   -5.750429   -2.201679    0.687809
 C   -5.055812   -1.645699   -0.384471
 C   -4.358728   -0.448424   -0.231993
 C   -4.362293    0.192991    1.010302
 C   -3.582795    0.144538   -1.384296
 N   -2.129476    0.051948   -1.182202
 C   -1.469039    1.193783   -0.672976
 C   -0.048365    1.013005   -0.488288
 C    0.591467   -0.174831   -0.747274
 C   -0.161036   -1.287207   -1.224827
 C   -1.495512   -1.123077   -1.416624
 O   -2.101872    2.211506   -0.423320
 O    1.912959   -0.222880   -0.542565
 C    2.594109   -1.464541   -0.536303
 C    3.993797   -1.234364   -0.019324
 C    4.945337   -2.243838   -0.169098
 C    6.232183   -2.077230    0.329898
 C    6.579451   -0.894261    0.978035
 C    5.633396    0.115474    1.122265
 C    4.341848   -0.050455    0.628573
Br    0.914037    2.480132    0.176913
 H   -5.050599    0.141033    3.042238
 H   -6.287207   -1.992557    2.760209
 H   -6.293112   -3.133149    0.556498
 H   -5.064340   -2.146204   -1.350655
 H   -3.820274    1.127784    1.123961
 H   -3.802245    1.206358   -1.499963
 H   -3.823336   -0.368089   -2.320313
 H    0.300844   -2.239674   -1.443642
 H   -2.125635   -1.931685   -1.770014
 H    2.624544   -1.884220   -1.551036
 H    2.061543   -2.174564    0.111512
 H    4.680344   -3.166818   -0.680896
 H    6.965542   -2.868755    0.207562
 H    7.585101   -0.760045    1.365063
 H    5.899187    1.042210    1.622016
 H    3.603919    0.738101    0.731141
