39 
3hp2_ligand_xtb.xyz
 C   -4.946923   -1.035498    1.942651
 C   -5.889601   -1.906174    1.420284
 C   -6.088893   -1.965385    0.052191
 C   -5.342324   -1.162446   -0.793421
 C   -4.398678   -0.286536   -0.276259
 C   -4.206743   -0.228074    1.099379
 C   -3.568035    0.584476   -1.180183
 N   -2.146702    0.355980   -0.966380
 C   -1.381014    1.420708   -0.464776
 C   -0.002150    1.088308   -0.256420
 C    0.543112   -0.147517   -0.506282
 C   -0.318704   -1.159123   -1.005441
 C   -1.627592   -0.861681   -1.210060
 O   -1.891761    2.502483   -0.246748
 O    1.850781   -0.303624   -0.257466
 C    2.472466   -1.556634   -0.504813
 C    3.925017   -1.408641   -0.137714
 C    4.887638   -1.217223   -1.118342
 C    6.216491   -1.052090   -0.768674
 C    6.590692   -1.070091    0.563741
 C    5.632672   -1.252655    1.546759
 C    4.305106   -1.421067    1.197791
Br    1.097027    2.467990    0.416348
 H   -4.791644   -0.982856    3.009872
 H   -6.469545   -2.534927    2.079193
 H   -6.825128   -2.639709   -0.359674
 H   -5.501057   -1.211548   -1.861706
 H   -3.478091    0.459193    1.504208
 H   -3.736583    1.643465   -0.955188
 H   -3.811251    0.397786   -2.230310
 H    0.046694   -2.147535   -1.219674
 H   -2.320758   -1.602926   -1.580096
 H    2.369636   -1.824084   -1.564591
 H    2.000028   -2.334473    0.111131
 H    4.597503   -1.196647   -2.158957
 H    6.959645   -0.904947   -1.538176
 H    7.627271   -0.938715    0.836062
 H    5.920239   -1.262579    2.587426
 H    3.556646   -1.557822    1.964204
