39 
3hp5_ligand_dft.xyz
 F   -5.377521   -2.128225    2.653029
 C   -4.995385   -1.346324    1.636697
 C   -5.185497   -1.787713    0.335674
 C   -4.774870   -0.964092   -0.706953
 C   -4.196579    0.282952   -0.466109
 S   -3.670597    1.325883   -1.811413
 C   -1.923940    1.109787   -1.668137
 C   -1.038459    2.082380   -1.384323
 C    0.358896    1.763795   -1.211444
 C    0.683525    0.474292   -0.911953
 C    1.878451   -0.110557   -0.381342
 C    3.263271    0.429736   -0.108942
 C    4.045683   -0.922386   -0.057375
Cl    4.648688   -1.291924   -1.748061
 C    5.197135   -1.022337    0.887544
 C    5.327110   -0.145194    1.884268
 C    4.394174    0.962393    2.072579
 C    3.432887    1.212472    1.180037
Cl    2.367340    2.568173    1.416504
 C    1.877884   -1.435686   -0.080927
 O    3.094005   -1.915776    0.277650
 N    0.833750   -2.298534   -0.107255
 C   -0.238878   -1.768105   -0.614890
 N   -0.333734   -0.498132   -1.070280
 N   -1.421670   -0.216814   -1.921621
 C   -4.029224    0.678053    0.862848
 F   -3.469714    1.858094    1.134933
 C   -4.417256   -0.119874    1.927504
 H   -5.637977   -2.755485    0.154065
 H   -4.898159   -1.288302   -1.734811
 H   -1.382896    3.092368   -1.187865
 H    1.095866    2.545663   -1.098755
 H    3.635629    1.051200   -0.931112
 H    5.866018   -1.864778    0.757406
 H    6.140203   -0.249262    2.595789
 H    4.497652    1.591439    2.949736
 H   -1.144436   -2.353406   -0.741541
 H   -1.069262   -0.277282   -2.881038
 H   -4.274476    0.207686    2.949896
