34 
3hp9_ligand_dft.xyz
 O   -1.941285    3.040583    0.877078
 C   -2.602086    2.062387    1.143743
 O   -3.480597    2.118405    2.162125
 C   -2.513506    0.768414    0.404078
 C   -3.634561   -0.059598    0.322606
 C   -3.597153   -1.270914   -0.359941
 O   -4.747103   -1.990689   -0.362487
 C   -4.763170   -3.205481   -1.080118
 C   -2.410835   -1.647211   -0.992119
 C   -1.300760   -0.815118   -0.945399
 C   -1.315298    0.399592   -0.251217
 N   -0.214695    1.250130   -0.240561
 C    1.121097    0.885777   -0.254746
 C    2.100527    1.819317   -0.643434
Cl    1.611503    3.424256   -1.123008
 C    3.450022    1.497906   -0.653957
 C    3.870271    0.226382   -0.286079
 C    1.568390   -0.380036    0.142928
 C    2.917822   -0.705409    0.111953
 C    3.345148   -2.065910    0.592807
 F    4.522874   -2.436787    0.065542
 F    3.483331   -2.096803    1.929962
 F    2.444186   -3.012575    0.272829
 H   -3.812428    1.233410    2.364004
 H   -4.586738    0.237829    0.753333
 H   -4.562204   -3.044710   -2.147009
 H   -4.035093   -3.920971   -0.676759
 H   -5.768168   -3.610897   -0.960988
 H   -2.342587   -2.573638   -1.550583
 H   -0.406446   -1.105520   -1.485492
 H   -0.435835    2.225835   -0.069847
 H    4.168661    2.248029   -0.964639
 H    4.922064   -0.031898   -0.312218
 H    0.848991   -1.112228    0.489907
