62 
3hpt_ligand_xtb.xyz
 O   -2.142112    0.624590    1.330892
 C   -2.138752    1.231040    0.275028
 N   -3.195510    1.223276   -0.552704
 C   -4.376803    0.430478   -0.239943
 C   -5.093768    0.298520   -1.577183
 C   -3.302966    1.861013   -1.850540
 C   -4.755488    1.619667   -2.264471
 C   -0.975361    2.114444   -0.183684
 N    0.276710    1.787528    0.460294
 C    1.328929    1.494737   -0.322149
 O    1.274764    1.519383   -1.545769
 C    0.368317    1.928389    1.898999
 C    1.238266    3.116812    2.320317
 C    2.732217    2.801748    2.326402
 C    3.280056    2.436919    0.951134
 C    2.648808    1.159199    0.375316
 N    3.577109    0.561346   -0.570249
 C    3.412812   -0.858385   -0.803799
 N    4.570701   -1.350443   -1.527521
 C    5.635321   -1.768298   -0.877670
 N    6.537171   -2.195128   -0.311605
 N    2.246769   -1.237564   -1.557559
 C    0.997929   -1.479125   -0.991992
 C   -0.125483   -1.298758   -1.820240
 C    0.829400   -1.939190    0.305907
 C   -0.459553   -2.203191    0.756743
 C   -1.562093   -2.022494   -0.096245
 C   -1.406904   -1.569412   -1.393883
 O   -2.713084   -2.343466    0.547399
 C   -2.359703   -2.713078    1.809696
 C   -3.455016   -3.090472    2.739347
 C   -1.017017   -2.656219    1.990698
 H   -4.075419   -0.523461    0.193115
 H   -4.992588    0.965810    0.492053
 H   -4.682613   -0.537403   -2.143297
 H   -6.164096    0.146766   -1.459623
 H   -2.612519    1.391424   -2.561771
 H   -3.066356    2.926433   -1.789462
 H   -4.872583    1.579757   -3.345238
 H   -5.391992    2.414497   -1.874019
 H   -1.244186    3.160342    0.020412
 H   -0.807385    1.993873   -1.255905
 H    0.747717    1.003027    2.340647
 H   -0.647535    2.060850    2.267866
 H    0.942918    3.419193    3.326712
 H    1.042494    3.956266    1.649052
 H    2.919983    1.976321    3.016813
 H    3.275769    3.672624    2.699451
 H    3.126210    3.262571    0.252450
 H    4.354437    2.260255    1.026475
 H    2.480477    0.439149    1.180435
 H    3.493888    1.068244   -1.451600
 H    3.403445   -1.364553    0.166689
 H    4.734107   -0.932681   -2.432944
 H    2.170560   -0.723054   -2.427175
 H    0.032676   -0.930086   -2.823305
 H    1.665772   -2.107032    0.966310
 H   -2.254893   -1.433233   -2.046560
 H   -3.037891   -3.499856    3.654187
 H   -4.054554   -2.213711    2.983283
 H   -4.107747   -3.828689    2.275557
 H   -0.484181   -2.896877    2.887906
