44 
3hqw_ligand_dft.xyz
 C   10.862219   15.555912   40.512362
 C    9.010443   17.720488   37.450082
 C   13.457438   16.367527   41.101316
 C   12.658912   22.224169   40.094391
 C   12.678430   17.090718   40.200350
 C    7.368964   18.336190   35.596738
 C   12.174001   21.257252   40.984213
 C   13.816519   24.273592   39.808270
 O   13.308430   23.271550   40.659806
 C   12.454738   22.061747   38.724581
 C   11.776566   20.935703   38.260237
 C   11.491371   20.153041   40.511220
 C   11.283089   19.967909   39.135153
 C   10.539414   18.805527   38.635635
 N    9.574633   18.943214   37.658232
 C    7.937138   17.479261   36.503730
 S    7.198225   15.914407   36.436054
 C    6.126256   16.425407   35.188203
 C    6.326647   17.729176   34.841421
 N    9.570088   16.808736   38.213761
 C   10.528638   17.459147   38.953559
 C   11.370568   16.711176   39.901285
 C   11.626109   14.825314   41.404084
 C   12.929867   15.229357   41.710805
 O   13.596979   14.450091   42.602308
 C   14.917214   14.810696   42.933716
 H    9.854239   15.236029   40.268857
 H   14.470074   16.696753   41.304405
 H   13.111541   17.961722   39.718348
 H    7.685327   19.364617   35.458230
 H   12.337001   21.403237   42.046805
 H   14.290380   25.009475   40.458724
 H   14.564374   23.870345   39.113311
 H   13.015826   24.759450   39.235729
 H   12.825347   22.787936   38.010379
 H   11.652768   20.803723   37.188136
 H   11.110697   19.414583   41.209751
 H    5.406491   15.732105   34.775087
 H    5.758345   18.241875   34.074528
 H   11.234298   13.932530   41.880436
 H   15.573527   14.794672   42.053654
 H   14.960557   15.805794   43.395914
 H   15.262499   14.066081   43.652235
 H    9.258814   19.823769   37.282960
