50 
3hqy_ligand_dft.xyz
 C   12.294309   16.746791   43.456081
 C   15.668288   15.427508   46.034336
 C   12.706569   19.140291   46.859568
 C   10.857283   16.533724   38.894269
 C    9.737935   17.081832   38.039238
 C   13.560827   15.407849   41.921291
 C   11.597602   19.297563   47.680838
 C    7.742733   17.987187   36.384442
 C    8.040180   17.430828   33.654799
 C    6.907834   18.143771   34.118615
 C    6.762289   18.416225   35.453958
 C    7.656232   18.233479   37.776127
 C    8.645908   17.784472   38.607408
 C    8.878530   17.272185   35.919110
 C    9.003704   17.004602   34.531590
 N    9.858668   16.832926   36.755807
 O   10.731568   17.027936   40.208463
 C   11.629117   16.615560   41.141752
 C   12.698993   15.756493   40.886156
 C   11.431845   17.107281   42.434157
 C   13.380247   15.894350   43.216611
 C   14.314181   15.499861   44.286817
 C   14.783994   16.266867   45.391969
 N   15.691592   14.275735   45.328354
 N   14.879319   14.293181   44.264066
 C   14.451732   17.678458   45.768982
 C   13.230619   17.862367   46.653507
 N   10.979161   18.287568   48.299967
 C   11.481579   17.069624   48.095329
 C   12.589444   16.805176   47.293658
 H   12.099067   17.113306   44.458787
 H   16.275723   15.573160   46.916271
 H   13.156721   20.006352   46.381449
 H   10.806896   15.435568   38.889119
 H   11.818256   16.827652   38.452720
 H   14.394705   14.742488   41.722136
 H   11.178941   20.287708   47.849482
 H    8.141459   17.222550   32.593837
 H    6.154730   18.473832   33.409608
 H    5.895917   18.963039   35.817498
 H    6.801850   18.777818   38.170884
 H    8.617480   17.953415   39.676434
 H    9.879816   16.457215   34.199664
 H   12.877719   15.359678   39.893569
 H   10.587249   17.762475   42.620247
 H   15.311011   18.124656   46.285801
 H   14.309902   18.272929   44.858133
 H   10.969032   16.252244   48.598813
 H   12.939109   15.786239   47.162875
 H   16.224137   13.442981   45.519410
