35 
3hrf_ligand_dft.xyz
 O   -4.736711   -1.202107   -0.426361
 C   -3.846564   -2.192389   -0.228104
 O   -4.229680   -3.302633    0.045823
 C   -2.387431   -1.910137   -0.386440
 C   -1.729275   -0.741572   -0.382976
 C   -2.368572    0.585399   -0.142680
 C   -2.987765    0.867671    1.081371
 C   -3.545782    2.119767    1.318301
 C   -3.493724    3.105081    0.336478
 C   -2.880022    2.835320   -0.884192
 C   -2.314004    1.586849   -1.120152
 C   -0.229893   -0.705825   -0.565681
 C    0.501982   -0.253501    0.713710
 C    1.991801   -0.161530    0.496206
 C    2.567220    1.011618    0.004152
 C    2.821694   -1.258655    0.731777
 C    4.189476   -1.194669    0.487680
 C    4.733468   -0.013137   -0.001909
Cl    6.452675    0.081409   -0.310641
 C    3.932165    1.096124   -0.246831
 H   -4.287191   -0.370086   -0.635756
 H   -1.821160   -2.830317   -0.499717
 H   -3.029511    0.096033    1.844362
 H   -4.022975    2.323525    2.271692
 H   -3.932323    4.080806    0.520818
 H   -2.842073    3.598231   -1.655628
 H   -1.838981    1.379860   -2.075366
 H    0.022433   -0.007302   -1.374632
 H    0.137942   -1.691458   -0.869387
 H    0.278029   -0.963403    1.518288
 H    0.109591    0.719946    1.029324
 H    1.938444    1.878809   -0.183343
 H    2.394924   -2.181348    1.117181
 H    4.827877   -2.050549    0.677619
 H    4.371971    2.012746   -0.624527
