35 
3hrf_ligand_xtb.xyz
 O   -4.621636   -1.228048   -0.563237
 C   -3.745016   -2.183063   -0.195615
 O   -4.135439   -3.227718    0.252653
 C   -2.305314   -1.909887   -0.404419
 C   -1.689683   -0.722848   -0.435389
 C   -2.367910    0.563866   -0.170474
 C   -2.992232    0.781136    1.058014
 C   -3.588729    1.997502    1.332720
 C   -3.574194    3.009420    0.386615
 C   -2.957196    2.802333   -0.835848
 C   -2.350213    1.590438   -1.112276
 C   -0.206752   -0.622499   -0.644099
 C    0.490039   -0.218856    0.669271
 C    1.973908   -0.133584    0.463837
 C    2.566437    1.056478    0.060319
 C    2.776167   -1.255534    0.631164
 C    4.139650   -1.195835    0.409152
 C    4.709711    0.002477    0.011234
Cl    6.414725    0.089026   -0.265306
 C    3.928815    1.133153   -0.164670
 H   -4.179542   -0.426480   -0.878024
 H   -1.723878   -2.815423   -0.510561
 H   -2.998891   -0.009407    1.793968
 H   -4.065316    2.155946    2.288031
 H   -4.041628    3.958164    0.601942
 H   -2.945151    3.587980   -1.576441
 H   -1.876524    1.430265   -2.070298
 H    0.010599    0.136276   -1.399039
 H    0.193970   -1.577089   -0.987233
 H    0.259166   -0.963920    1.432828
 H    0.099255    0.745997    0.998639
 H    1.956733    1.938499   -0.073767
 H    2.330830   -2.188232    0.945108
 H    4.757569   -2.069486    0.544634
 H    4.384158    2.061417   -0.472143
