47 
3hu1_ligand_dft.xyz
 P    2.496070    0.267299   -1.399680
 O    3.565230    1.408573   -1.150253
 O    1.134755    0.619796   -1.838340
 S    3.609100   -0.975896   -2.629163
 P    1.662118   -1.674515    0.704359
 O    1.745333   -1.425728    2.250517
 O    2.082255   -3.008759    0.233438
 O    2.479317   -0.435730    0.096189
 P   -1.047117   -2.470381    0.310408
 O   -0.455386   -3.665020   -0.543239
 O   -1.508755   -2.727328    1.682943
 O    0.143149   -1.334930    0.253602
 O   -2.110363   -1.815376   -0.669544
 C   -3.508958   -1.802982   -0.333374
 C   -4.035974   -0.383466   -0.297470
 O   -3.496205    0.305296    0.842021
 C   -3.702834    0.475809   -1.517377
 O   -4.765090    1.374592   -1.721774
 C   -2.455177    1.242898   -1.072624
 O   -2.398314    2.457306   -1.762123
 C   -2.733091    1.400294    0.440558
 N   -1.492876    1.387514    1.223271
 C   -1.143391    0.523128    2.218444
 N    0.107359    0.658268    2.603438
 C    0.608056    1.661782    1.796921
 C    1.908551    2.150899    1.579652
 N    2.973885    1.762565    2.304349
 N    2.096079    3.027181    0.572332
 C    1.032200    3.441450   -0.139845
 N   -0.225025    3.051189   -0.024578
 C   -0.374119    2.122511    0.933913
 H    3.200380    2.155333   -0.605055
 H    2.568370   -1.785694   -2.887941
 H    1.087512   -0.734162    2.578449
 H    0.496380   -3.814612   -0.335177
 H   -3.662615   -2.279593    0.637927
 H   -4.026823   -2.373586   -1.109188
 H   -5.123305   -0.430809   -0.177990
 H   -3.508485   -0.131584   -2.411143
 H   -4.363740    2.174159   -2.097539
 H   -1.550959    0.638926   -1.218623
 H   -1.608127    2.927205   -1.434281
 H   -3.254933    2.344146    0.635831
 H   -1.829458   -0.226876    2.583456
 H    3.888740    2.015550    1.961082
 H    2.910488    0.917446    2.852585
 H    1.249966    4.159937   -0.924057
