47 
3hu1_ligand_xtb.xyz
 P    2.369141    0.275503   -1.346649
 O    3.553936    1.310759   -1.273410
 O    1.047623    0.838118   -1.602582
 S    3.067095   -1.198910   -2.612825
 P    1.615900   -1.646170    0.618503
 O    1.656767   -1.579584    2.156573
 O    2.061607   -2.898441    0.004318
 O    2.472526   -0.390891    0.152004
 P   -1.010638   -2.371766    0.291376
 O   -0.470692   -3.591413   -0.535516
 O   -1.360980   -2.590047    1.687143
 O    0.152404   -1.232771    0.120391
 O   -2.142207   -1.786750   -0.638096
 C   -3.483844   -1.761124   -0.170393
 C   -4.020905   -0.328896   -0.118216
 O   -3.465717    0.373192    0.990812
 C   -3.694436    0.488158   -1.377782
 O   -4.761175    1.340425   -1.680921
 C   -2.442191    1.280128   -0.963865
 O   -2.408464    2.511362   -1.614543
 C   -2.637223    1.411274    0.570114
 N   -1.363262    1.341049    1.247604
 C   -0.961504    0.484156    2.217330
 N    0.307287    0.593085    2.511853
 C    0.789047    1.573261    1.676915
 C    2.069037    2.082348    1.399571
 N    3.168299    1.745669    2.094935
 N    2.186655    2.966606    0.399095
 C    1.098252    3.381944   -0.239576
 N   -0.144294    2.998057   -0.055973
 C   -0.259072    2.049654    0.877403
 H    3.264449    2.148460   -0.854647
 H    2.865513   -2.195344   -1.749625
 H    1.143149   -0.792857    2.539937
 H    0.485999   -3.722165   -0.426521
 H   -3.526520   -2.194984    0.832223
 H   -4.084924   -2.354922   -0.862901
 H   -5.106417   -0.364088    0.028910
 H   -3.478809   -0.172792   -2.226832
 H   -4.375871    2.153509   -2.041915
 H   -1.538882    0.688948   -1.162142
 H   -1.567804    2.943198   -1.370606
 H   -3.098846    2.387569    0.802747
 H   -1.630713   -0.214735    2.677356
 H    4.062868    2.029520    1.732115
 H    3.123401    0.951608    2.710144
 H    1.263050    4.119770   -1.012492
