47 
3hu3_ligand_xtb.xyz
 P    3.899161   -0.525001   -0.462644
 O    3.515701   -0.138919   -1.923608
 O    3.649198   -1.905892   -0.023200
 S    5.862041    0.065145   -0.306761
 P    1.595553    0.757030    0.653035
 O    0.958196    1.387937   -0.488634
 O    1.548848    1.476229    2.027617
 O    3.168077    0.540906    0.514344
 P    0.789894   -1.789401   -0.210693
 O    1.248976   -1.320685   -1.513846
 O    1.372350   -3.125154    0.362151
 O    1.044687   -0.723327    0.978967
 O   -0.768231   -2.020574   -0.193677
 C   -1.400839   -2.875360    0.757897
 C   -2.910460   -2.603966    0.762387
 O   -3.219458   -1.431028    1.506214
 C   -3.493715   -2.381724   -0.641797
 O   -4.827927   -2.798058   -0.674304
 C   -3.369667   -0.857890   -0.807552
 O   -4.364946   -0.350600   -1.639563
 C   -3.493309   -0.359444    0.655882
 N   -2.573233    0.728613    0.890304
 C   -1.704892    0.899861    1.915757
 N   -0.975458    1.976540    1.807237
 C   -1.369090    2.561734    0.627560
 C   -0.933705    3.674294   -0.117175
 N    0.047556    4.501217    0.285431
 N   -1.567100    3.946175   -1.260325
 C   -2.532192    3.152802   -1.680364
 N   -2.994145    2.051848   -1.109518
 C   -2.377799    1.784420    0.044455
 H    2.614492   -0.470457   -2.122324
 H    6.159947   -0.885610    0.573351
 H    0.616205    1.822967    2.164192
 H    2.342391   -3.067821    0.320738
 H   -0.999522   -2.687949    1.756069
 H   -1.206385   -3.913633    0.480558
 H   -3.420901   -3.434683    1.259794
 H   -2.904540   -2.910878   -1.401523
 H   -5.297281   -2.194048   -1.268763
 H   -2.367076   -0.618040   -1.181828
 H   -4.162828    0.597324   -1.766429
 H   -4.518536    0.003553    0.843848
 H   -1.653656    0.209671    2.733827
 H    0.683023    4.168430    0.990418
 H    0.397319    5.143969   -0.406423
 H   -2.997529    3.429693   -2.616679
