28 
3hvc_ligand_xtb.xyz
 C    3.660158   -1.698716    0.513341
 N    3.155129   -2.647396   -0.256867
 C    2.057241   -2.367076   -0.939814
 C    1.412614   -1.143821   -0.888036
 C    1.939688   -0.144175   -0.070039
 C    3.101265   -0.439160    0.643097
 C    1.325436    1.173735    0.012396
 C    1.986154    2.386713    0.028916
 N    1.040892    3.345835    0.028475
 N   -0.187918    2.844721    0.024806
 C   -0.054201    1.526398    0.017231
 C   -1.223425    0.656454    0.063335
 C   -2.396185    1.047051   -0.580774
 C   -3.519763    0.244574   -0.544904
 C   -3.460798   -0.951053    0.148774
 C   -2.316719   -1.356006    0.812515
 C   -1.198743   -0.545401    0.768261
 F   -4.553966   -1.743132    0.184584
 H    4.559181   -1.966245    1.054012
 H    1.678541   -3.167293   -1.562354
 H    0.523950   -0.962063   -1.472553
 H    3.547073    0.298046    1.293680
 H    3.032810    2.614114    0.011336
 H   -2.411732    1.987490   -1.108471
 H   -4.432656    0.530791   -1.042992
 H   -2.311851   -2.288252    1.354902
 H   -0.304881   -0.842816    1.295344
 H    1.172212    4.345210    0.035149
