22 
3hvg_ligand_xtb.xyz
 O   -2.415355    2.222101    0.244311
 C   -1.672410    1.279428    0.063295
 C   -0.278242    1.293233   -0.266231
 N   -2.185837   -0.028817    0.173647
 C   -1.428060   -1.139089   -0.005938
 N   -2.014122   -2.348459    0.185200
 N   -0.165115   -1.092266   -0.306810
 C    0.412173    0.131070   -0.433599
 C    1.879748    0.108271   -0.729717
 C    2.677362    0.011214    0.576652
 C    4.176542   -0.041161    0.314979
 H    0.196119    2.254303   -0.373015
 H   -3.015369   -2.430444    0.156107
 H   -1.470482   -3.147644   -0.090846
 H    2.166943    1.013449   -1.266150
 H    2.100704   -0.762782   -1.347394
 H    2.363887   -0.886361    1.112664
 H    2.442473    0.875189    1.202144
 H    4.429023   -0.910942   -0.287314
 H    4.503995    0.850116   -0.215966
 H    4.723751   -0.102005    1.252752
 H   -3.165354   -0.100683    0.421623
