65 
3hwn_ligand_xtb.xyz
 C   -1.690528    2.388398   -0.188973
 C   -1.821516    3.439829    0.711377
 C   -2.822966    1.680248   -0.550452
 C   -3.062495    3.768491    1.238056
 C   -4.055372    1.957529    0.034742
 C   -4.182746    3.020560    0.926117
 C   -5.149116    1.055579   -0.237144
 C   -6.259302   -2.056437   -1.508208
 N   -5.587675   -3.057696   -0.655375
 C    0.182398    0.807488    0.179987
 C    2.371921   -0.060675    0.860202
 C    3.783469   -0.113892    0.540878
 N   -0.505172   -1.315330    1.034448
 C   -0.990396   -2.677592    1.167134
 C   -2.391688   -2.982784    0.775177
 C    4.538468   -1.172856    2.697170
 C    7.025986    0.145580   -1.220067
 C    8.092606    0.905873   -0.424400
 C    7.556804   -1.246533   -1.586107
 C    6.676927    0.918344   -2.492411
 N   -3.060697   -2.400230   -0.128175
 C   -0.608225   -0.497820   -0.021826
 O   -1.268511   -0.735058   -1.026085
 N    1.587978    0.549619   -0.064279
 O    1.878697   -0.544388    1.884626
 C    4.478767    0.288284   -0.601523
 C    5.815014   -0.030560   -0.350517
 N    5.920156   -0.581498    0.857960
 N    4.720125   -0.632598    1.382156
 C   -0.346275    1.944372   -0.703809
 O   -4.904682   -0.097155   -0.919457
 C   -6.109252   -0.711691   -0.894339
 N   -6.989234   -0.013293   -0.259004
 N   -6.384273    1.109037    0.159295
 H   -0.951036    4.011019    0.998567
 H   -2.752287    0.893118   -1.283406
 H   -3.148579    4.602592    1.916722
 H   -5.145885    3.233920    1.359885
 H   -7.327382   -2.255806   -1.632317
 H   -5.771131   -2.062598   -2.486026
 H   -5.649979   -3.970147   -1.099790
 H   -6.081722   -3.117066    0.232779
 H   -4.096041   -2.673916   -0.376922
 H    0.075298    1.089427    1.237682
 H    0.284242   -1.068565    1.667392
 H   -0.367865   -3.371058    0.571249
 H   -0.849874   -2.959050    2.214160
 H   -2.841633   -3.818455    1.307171
 H    5.526025   -1.398804    3.093192
 H    4.031868   -0.453289    3.340224
 H    3.937956   -2.082730    2.658670
 H    8.321733    0.371262    0.492871
 H    7.739116    1.901846   -0.166521
 H    9.000566    1.002646   -1.013713
 H    8.451914   -1.156463   -2.195741
 H    6.810843   -1.806095   -2.147293
 H    7.800158   -1.800267   -0.683543
 H    7.571836    1.055928   -3.093512
 H    5.948095    0.375494   -3.090644
 H    6.275563    1.900367   -2.251092
 H   -2.545818   -1.659465   -0.678024
 H    1.997603    0.906710   -0.911838
 H    4.080703    0.739271   -1.487288
 H   -0.435090    1.586798   -1.731126
 H    0.363418    2.771705   -0.670013
