81 
3hxb_ligand_dft.xyz
 C    4.662054   -1.090689   -2.334075
 C    5.504889   -2.047438   -2.880546
 C    5.699308   -3.255668   -2.210776
 O    6.537475   -4.162983   -2.782680
 C    5.045250   -3.487799   -1.002021
 C    4.199646   -2.518430   -0.470743
 C    3.992812   -1.305118   -1.124331
 C    3.076254   -0.241946   -0.564489
 C    1.724211   -0.156083   -1.302224
 C    0.680042   -1.192947   -0.870409
 O    1.163896   -2.151670   -0.091324
 O   -0.472423   -1.148713   -1.242624
 N    1.134505    1.170725   -1.219764
 C    0.724224    1.670174   -0.028058
 O    0.892687    1.084569    1.037157
 C   -0.023363    3.011243   -0.105432
 C    0.428228    3.944300    1.018806
 C    1.874092    4.347466    0.837303
 C    2.203932    5.455908    0.054127
 C    3.533321    5.798779   -0.172953
 C    4.555097    5.032616    0.381345
 C    4.237752    3.926280    1.164542
 C    2.907160    3.587513    1.391998
 N   -1.445106    2.712495   -0.012228
 C   -2.044400    2.062706   -1.054396
 O   -1.590796    2.066200   -2.191014
 C   -3.263823    1.218022   -0.647592
 C   -4.095107    0.807802   -1.864457
 C   -5.320973    0.015484   -1.485496
 C   -5.285686   -1.375775   -1.407390
 C   -6.403806   -2.107324   -1.020711
 C   -7.588926   -1.446070   -0.702448
 O   -8.719164   -2.101968   -0.319713
 C   -7.645738   -0.054719   -0.776599
 C   -6.519548    0.657986   -1.163871
 N   -2.748035    0.041503    0.043804
 C   -2.342105    0.126652    1.337759
 O   -2.575756    1.057735    2.094886
 O   -1.631359   -0.960806    1.681876
 C   -0.950549   -0.874342    2.943087
 C    0.142953   -1.905921    2.929427
 C    1.476215   -1.523523    3.059745
 C    2.489650   -2.478355    3.029084
 C    2.178918   -3.821799    2.844053
 C    0.847440   -4.211907    2.703101
 C   -0.165111   -3.258931    2.755774
 H    4.527442   -0.146058   -2.857664
 H    6.023308   -1.875388   -3.817939
 H    6.584502   -4.945957   -2.221544
 H    5.191935   -4.428697   -0.474868
 H    3.681442   -2.714971    0.462984
 H    3.547442    0.741882   -0.667228
 H    2.893949   -0.400824    0.499662
 H    1.897928   -0.341448   -2.367886
 H    0.420574   -2.689575    0.231467
 H    0.654382    1.528920   -2.036881
 H    0.154807    3.486926   -1.072955
 H   -0.222676    4.824921    1.011046
 H    0.289030    3.430250    1.975710
 H    1.409026    6.057416   -0.381583
 H    3.771310    6.666323   -0.781670
 H    5.593589    5.296651    0.204880
 H    5.028875    3.324493    1.602603
 H    2.660685    2.716190    1.991410
 H   -1.793955    2.481313    0.916681
 H   -3.881488    1.767753    0.068696
 H   -4.375492    1.719567   -2.402151
 H   -3.452676    0.239519   -2.545486
 H   -4.367139   -1.902522   -1.652723
 H   -6.351558   -3.193037   -0.967883
 H   -8.544448   -3.050364   -0.309720
 H   -8.575822    0.447684   -0.532660
 H   -6.575932    1.742861   -1.221564
 H   -2.212777   -0.612599   -0.520826
 H   -1.674719   -1.057380    3.744033
 H   -0.543800    0.131121    3.061361
 H    1.719932   -0.470333    3.159501
 H    3.525634   -2.169200    3.134661
 H    2.969550   -4.565610    2.811131
 H    0.599680   -5.260035    2.562806
 H   -1.204460   -3.560619    2.652579
