28 
3hyf_ligand_dft.xyz
 C   -2.225862   -0.158262   -1.248540
 N    2.413133   -0.915162   -0.598715
 O    4.281937    1.855625    0.874258
Cl   -4.998880   -0.280558    1.665378
 C   -3.412725    0.032273   -0.540757
 N    1.090050    0.989575   -0.466560
 O    1.891905    2.951727    0.414960
Cl   -4.695632    0.924662   -1.293907
 C   -3.544542   -0.491530    0.745126
 O    4.615975   -2.279685   -0.265781
 C   -2.484626   -1.201969    1.309074
 O    5.730628   -0.571361    0.643326
 C   -1.308748   -1.386723    0.600202
 C   -1.168279   -0.868271   -0.689862
 C    0.129534   -1.048924   -1.447580
 C    1.285516   -0.326601   -0.804432
 C    3.464197   -0.214321   -0.030855
 C    3.342627    1.097520    0.324002
 C    2.062211    1.781217    0.105425
 C    4.722393   -1.012774    0.159020
 H   -2.147749    0.249680   -2.251976
 H    3.868063    2.731684    1.003756
 H    0.178862    1.416719   -0.593667
 H    3.712093   -2.392509   -0.616322
 H   -2.595562   -1.605990    2.309170
 H   -0.490264   -1.938639    1.053938
 H    0.015829   -0.688123   -2.477154
 H    0.409421   -2.103728   -1.504852
