44 
3i1y_ligand_xtb.xyz
 C    0.458822   -0.698545   -0.560400
 C    2.179287    1.281853    1.178847
 C    2.222411    2.288898   -0.989220
 C    4.241722   -1.013819   -0.887224
 C    2.763073   -2.102638    0.639949
 C    2.363150    2.522942    1.759501
 C    3.805562   -2.909196    1.066259
 C    2.476726    3.652252    0.966562
 C   -2.771753    0.528503   -0.283119
 C   -5.228754    0.718232    0.044071
 C   -4.283877   -1.464073    0.187231
 C   -6.463517    0.144753    0.287912
 C   -6.525384   -1.231587    0.455471
 O   -2.502343    1.646488    0.108731
 C   -4.103904   -0.100199   -0.031602
 N   -5.460940   -2.014654    0.418595
 N   -1.915657   -0.234218   -1.001175
 C   -0.561993    0.176202   -1.290066
 C    1.886215   -0.207448   -0.831481
 C    2.966879   -1.146999   -0.345820
 C    5.067472   -2.770020    0.518220
 C    5.283311   -1.815786   -0.461944
 C    2.102687    1.152412   -0.201951
 C    2.407829    3.532049   -0.409939
 H    0.360346   -1.734004   -0.898271
 H    0.243023   -0.656796    0.508260
 H    2.102265    0.403627    1.803309
 H    2.167122    2.202847   -2.065772
 H    4.415440   -0.267539   -1.649744
 H    1.788438   -2.231466    1.085193
 H    2.418241    2.609719    2.834792
 H    3.628056   -3.649641    1.832903
 H    2.619204    4.621856    1.420247
 H   -5.111112    1.783444   -0.090084
 H   -3.446871   -2.152216    0.202317
 H   -7.356087    0.747715    0.347804
 H   -7.466184   -1.734351    0.637044
 H   -2.198846   -1.152803   -1.302212
 H   -0.392894    0.131909   -2.371739
 H   -0.473220    1.213017   -0.956865
 H    2.001728   -0.102862   -1.917269
 H    5.878488   -3.399944    0.852451
 H    6.265395   -1.697199   -0.896028
 H    2.496617    4.408164   -1.035666
