35 
3i4a_ligand_xtb.xyz
 C   -3.324774    1.980006    0.313150
 C   -3.511756    0.667586    1.072198
 C   -3.360604   -0.581925    0.195781
 N   -4.488414   -0.610901   -0.787635
 N   -2.042062   -0.558666   -0.511670
 C   -0.876611   -1.022929    0.323411
 C    0.436384   -0.844796   -0.443646
 C    1.661524   -1.094787    0.459040
 C    2.960434   -0.609948   -0.209105
 C    3.011436    0.947585   -0.275417
 O    4.247354    1.375257   -0.171415
 O    2.025766    1.605814   -0.416748
 N    4.177201   -1.112366    0.489249
 H   -4.023179    2.112402   -0.510960
 H   -3.518998    2.800401    1.001007
 H   -2.307383    2.133908   -0.045760
 H   -4.499474    0.653424    1.536041
 H   -2.802623    0.623519    1.899037
 H   -3.410458   -1.499295    0.797291
 H   -5.379697   -0.732333   -0.270547
 H   -4.458851   -1.375554   -1.482185
 H   -4.573980    0.298503   -1.281214
 H   -2.041715   -1.129555   -1.368746
 H   -1.848969    0.426485   -0.784187
 H   -1.032627   -2.069827    0.591011
 H   -0.851371   -0.425880    1.235909
 H    0.505240    0.181009   -0.809438
 H    0.477117   -1.527733   -1.293662
 H    1.741099   -2.160897    0.677740
 H    1.527235   -0.559118    1.400891
 H    2.998237   -0.961822   -1.247770
 H    4.343891    2.342773   -0.257939
 H    4.368557   -2.105164    0.292027
 H    4.108957   -0.993719    1.511190
 H    4.990757   -0.551320    0.173498
