14 
3i51_ligand_dft.xyz
 C    1.745824    0.703660    0.000023
 C    1.745811   -0.703667   -0.000004
 C    0.537791   -1.382703    0.000103
 C   -0.677595   -0.693924    0.000030
 C   -0.677580    0.693956    0.000013
 C    0.537808    1.382731    0.000021
 O    2.952531    1.318128    0.000003
 O    2.952469   -1.318188    0.000120
Cl   -2.153166   -1.613709    0.000009
Cl   -2.153131    1.613720   -0.000046
 H    0.525109   -2.468654    0.000304
 H    0.525129    2.468684   -0.000040
 H    2.822267    2.273951    0.000065
 H    2.822190   -2.274005   -0.001788
