86 
3i6o_ligand_xtb.xyz
 C    0.667750    3.925215   -0.649058
 C    1.971599    3.474760   -0.427679
 C    2.298697    2.135835   -0.573938
 C    1.306626    1.235387   -0.952998
 C    0.019714    1.680189   -1.186713
 C   -0.314829    3.014425   -1.041854
 S    1.683379   -0.491193   -1.258500
 O    0.507053   -1.062460   -1.856450
 O    2.912761   -0.598040   -1.986874
 N    1.883954   -1.265258    0.204091
 C    3.143046   -1.055807    0.887179
 C    3.747690   -2.368940    1.384959
 C    5.095113   -2.172961    2.082162
 C    6.219573   -1.701877    1.148765
 C    0.671417   -1.335496    0.992545
 C   -0.101499   -2.617190    0.637858
 O    0.694359   -3.748407    0.901456
 C   -1.400459   -2.725914    1.457209
 N   -2.312901   -1.671197    1.081827
 C   -2.476795   -0.540425    1.787390
 O   -1.981682   -0.284446    2.856071
 O   -3.324349    0.297008    1.123707
 C   -3.584960    1.532836    1.770601
 C   -2.345619    2.451711    1.748132
 O   -2.798676    3.741196    1.386578
 C   -3.936376    3.619223    0.586316
 O   -3.643834    3.493518   -0.785548
 C   -3.988777    2.191320   -1.243118
 C   -5.101107    1.715344   -0.311877
 C   -4.671629    2.329504    1.016644
 C   -2.077091   -4.095310    1.263878
 C   -3.835875   -3.876138   -0.516656
 C   -4.267458   -4.007956   -1.825570
 C   -3.425183   -4.547397   -2.782248
 C   -2.153746   -4.961382   -2.421809
 C   -1.724630   -4.831186   -1.113290
 C   -2.558686   -4.282609   -0.146752
 O    0.465141    5.244554   -0.465924
 C   -0.847088    5.757301   -0.600705
 O    3.558700    1.684717   -0.299484
 C    4.560383    2.043914   -1.249880
 C    5.929862    1.751307   -0.635965
 C    6.073330    0.287550   -0.362174
 C    6.148612   -0.238157    0.849096
 H    2.721148    4.189318   -0.125395
 H   -0.708088    0.952772   -1.513591
 H   -1.323404    3.342538   -1.233405
 H    3.022672   -0.351375    1.719320
 H    3.809137   -0.608673    0.154795
 H    3.880269   -3.035853    0.530177
 H    3.056995   -2.845391    2.085712
 H    4.980474   -1.457207    2.899083
 H    5.387349   -3.130331    2.520063
 H    7.176105   -1.906544    1.640530
 H    6.189205   -2.273881    0.220499
 H    0.928104   -1.352129    2.054083
 H    0.044416   -0.457672    0.801951
 H   -0.351901   -2.574202   -0.432179
 H    1.541132   -3.590884    0.464755
 H   -1.164908   -2.584561    2.516768
 H   -2.722991   -1.729917    0.161157
 H   -3.887967    1.326812    2.802691
 H   -1.624568    2.072391    1.011995
 H   -1.856955    2.529536    2.718878
 H   -4.504501    4.547621    0.720451
 H   -3.123644    1.520029   -1.180181
 H   -4.298488    2.286510   -2.284930
 H   -6.059950    2.135557   -0.616234
 H   -5.170551    0.632664   -0.269205
 H   -5.512875    2.541853    1.673528
 H   -1.341473   -4.857923    1.515690
 H   -2.916452   -4.163384    1.957827
 H   -4.502882   -3.465597    0.229354
 H   -5.263852   -3.690366   -2.098141
 H   -3.760657   -4.649147   -3.803663
 H   -1.494778   -5.387086   -3.163893
 H   -0.735072   -5.156618   -0.830743
 H   -0.768693    6.815677   -0.358318
 H   -1.538655    5.271051    0.091824
 H   -1.215320    5.645092   -1.624039
 H    4.410474    1.441107   -2.155121
 H    4.473643    3.107766   -1.505739
 H    6.692605    2.083336   -1.344180
 H    6.034580    2.318081    0.290372
 H    6.046436   -0.350119   -1.235779
 H    6.157036    0.409837    1.716851
