43 
3i7b_ligand_xtb.xyz
 N   -1.502585    3.088777   -0.349377
 C   -2.797593    2.906020   -0.124585
 N   -3.456174    1.775409   -0.001132
 C   -2.672644    0.700717   -0.144395
 C   -1.280019    0.737218   -0.402553
 C   -0.713798    2.024039   -0.489464
 C   -4.315815   -1.964380    1.456289
 C   -4.786694   -1.971628   -1.023210
 N    0.592731    2.242299   -0.754086
 C    5.582396   -0.374381   -0.815671
 C    4.666185   -0.882947   -1.747094
 C    2.045731    0.097902    2.432223
 C    1.117594   -0.381842    1.499458
 C    5.152487   -0.004548    0.426323
 C    3.357533    0.239578    2.082065
 C    3.342298   -1.001026   -1.427747
 C    0.440138   -1.200009   -0.754754
 N   -1.960028   -1.393082   -0.274077
 C    1.487759   -0.718958    0.220097
 C   -0.908757   -0.632187   -0.472488
 C    3.794349   -0.120453    0.790658
 C    2.856844   -0.618195   -0.157274
 C   -4.341324   -1.135696    0.174044
 N   -3.025605   -0.595474   -0.075532
 H   -3.382343    3.811106   -0.021470
 H   -5.300270   -2.378195    1.654989
 H   -3.601861   -2.777307    1.349441
 H   -4.019419   -1.346560    2.300907
 H   -4.815280   -1.360017   -1.922037
 H   -4.085878   -2.788272   -1.177690
 H   -5.777619   -2.380246   -0.846599
 H    0.915516    3.191510   -0.673067
 H    1.254874    1.495123   -0.626703
 H    6.624162   -0.284875   -1.085850
 H    5.015200   -1.186186   -2.723289
 H    1.709997    0.356691    3.425359
 H    0.084561   -0.485422    1.797685
 H    5.848811    0.379164    1.158368
 H    4.082200    0.616950    2.788839
 H    2.662669   -1.409823   -2.159282
 H    0.365988   -2.290198   -0.712459
 H    0.715683   -0.918636   -1.774570
 H   -4.995376   -0.265664    0.295320
