49 
3i7g_ligand_dft.xyz
 C   -4.498683   -1.377647   -0.375585
 C   -3.193525   -0.902027   -0.203887
 C   -3.007732    0.373207    0.340448
 C   -4.095340    1.155365    0.706637
 C   -5.381818    0.660032    0.527952
 C   -5.591754   -0.604584   -0.012956
 C   -2.053814   -1.730804   -0.586130
Cl   -6.754059    1.636612    0.986945
 C   -1.943660   -2.988729   -1.113053
 C   -0.554094   -3.249785   -1.260418
 C    0.089042   -2.136741   -0.816648
 O   -0.815261   -1.205698   -0.404721
 C    1.524910   -1.826299   -0.731726
 O    2.365281   -2.641251   -1.113951
 N    1.832841   -0.616309   -0.213765
 C    3.189652   -0.086669   -0.181981
 C    3.196416    1.439068   -0.336769
 C    3.968224   -0.561428    1.069103
 O    4.470382    0.214408    1.870511
 N    4.055402   -1.907600    1.170670
 C    4.753834   -2.548314    2.262535
 C    2.366035    2.184421    0.720644
 C    2.491165    3.700176    0.540463
 C    2.073731    4.130246   -0.868230
 C    2.870342    3.376008   -1.936597
 C    2.766292    1.859582   -1.749317
 H   -4.668309   -2.362566   -0.798844
 H   -2.004243    0.759884    0.480233
 H   -3.946037    2.142298    1.130274
 H   -6.600399   -0.978996   -0.148007
 H   -2.756558   -3.653496   -1.365869
 H   -0.076210   -4.138486   -1.644040
 H    1.083404   -0.038326    0.135903
 H    3.700758   -0.526653   -1.047830
 H    4.241042    1.740047   -0.187808
 H    3.678431   -2.467342    0.411776
 H    5.809753   -2.725563    2.025113
 H    4.705311   -1.900997    3.139956
 H    4.276777   -3.505060    2.489333
 H    1.299138    1.925125    0.620940
 H    2.691036    1.885517    1.720025
 H    3.534542    3.993729    0.718771
 H    1.885094    4.217980    1.292576
 H    1.002209    3.924647   -1.005645
 H    2.205364    5.211285   -0.992011
 H    2.524621    3.654975   -2.938558
 H    3.926933    3.671484   -1.872335
 H    1.728523    1.540655   -1.924200
 H    3.381574    1.344670   -2.497779
