45 
3i8t_ligand_dft.xyz
 C   -1.092689    0.623403    0.138351
 C   -2.159378    1.416445   -0.599921
 C   -3.505743    1.204465    0.085141
 C   -3.832756   -0.289411    0.199437
 C   -2.653816   -1.020959    0.837277
 C   -2.755287   -2.539294    0.851568
 O    0.110561    0.760486   -0.529933
 O   -1.905672    2.805248   -0.590026
 O   -4.544392    1.804096   -0.658915
 O   -4.082957   -0.830540   -1.074980
 O   -1.452210   -0.735947    0.128140
 O   -1.657617   -3.110435    1.522071
 C    4.047840   -0.432682   -0.053066
 C    3.018403   -1.560676   -0.041274
 C    1.701057   -1.066679   -0.628369
 C    1.237375    0.175780    0.128027
 C    2.346375    1.226192    0.175379
 C    2.009192    2.392953    1.090750
 O    4.319223   -0.084724   -1.373749
 O    3.518219   -2.665962   -0.741665
 O    0.792805   -2.149094   -0.536835
 O    3.545794    0.659419    0.696594
 O    3.038359    3.350330    1.100371
 H   -1.002850    0.974511    1.183664
 H   -2.216275    1.019232   -1.622161
 H   -3.449403    1.641902    1.094929
 H   -4.711319   -0.404237    0.854734
 H   -2.542764   -0.669514    1.875705
 H   -3.655664   -2.839679    1.394948
 H   -2.847005   -2.897166   -0.182680
 H   -1.103786    2.958068   -1.105694
 H   -4.229744    2.682362   -0.914721
 H   -4.644502   -0.183268   -1.526857
 H   -0.853063   -2.848708    1.050279
 H    4.954484   -0.741469    0.478865
 H    2.841440   -1.810394    1.017902
 H    1.862282   -0.795536   -1.680383
 H    0.960167   -0.116773    1.150485
 H    2.524360    1.603115   -0.839647
 H    1.808562    2.002662    2.102283
 H    1.103733    2.889396    0.731589
 H    5.049407    0.546427   -1.370966
 H    2.770017   -3.266854   -0.861833
 H   -0.083054   -1.811545   -0.784389
 H    3.844623    2.867223    1.325566
