125 
3iaw_ligand_dft.xyz
 C    2.576906   -2.631400   -2.306673
 O    1.688770   -2.375013   -1.481079
 C    2.355028   -2.509105   -3.790109
 N    3.791531   -3.016992   -1.886975
 C    4.142615   -2.995422   -0.477753
 C    4.046241   -1.577046    0.107948
 O    3.449778   -1.357483    1.158485
 C    5.555632   -3.580724   -0.317114
 O    6.346248   -2.904844   -1.292421
 C    5.587609   -5.090929   -0.510264
 N    4.664287   -0.614851   -0.607603
 C    4.724678    0.762910   -0.164793
 C    3.312641    1.196639    0.250608
 O    2.331220    0.960095   -0.460088
 C    5.342546    1.656183   -1.263955
 C    5.601603    3.066008   -0.714445
 C    4.514877    1.669801   -2.552208
 C    6.452496    3.943157   -1.630727
 N    3.236141    1.832623    1.437483
 C    1.998527    2.062938    2.191398
 C    1.298435    0.724630    2.496880
 C    1.050648    3.106761    1.576464
 C    1.440588    4.580479    1.746987
 C    2.696387    5.048626    0.989536
 C    3.966129    5.083001    1.839673
 N    0.434847    0.276499    1.362616
 C    0.112203   -1.187450    1.341968
 C   -0.715335   -1.485832    0.070845
 O   -0.262983   -0.755434   -1.018718
 C   -0.463164   -1.698445    2.668487
 C   -1.614550   -0.914220    3.321790
 C   -1.819575   -1.313156    4.788071
 C   -2.186843   -2.785308    4.972621
 N   -2.150243   -1.137999    0.262592
 C   -3.025595   -1.179729   -0.945740
 C   -4.262360   -0.362876   -0.550105
 O   -4.745813   -0.507408    0.568869
 C   -3.390158   -2.609810   -1.381226
 C   -4.388131   -3.403610   -0.520987
 C   -3.838746   -3.951011    0.785082
 O   -2.911834   -3.410665    1.402387
 N   -4.428927   -5.057168    1.257375
 N   -4.720632    0.483921   -1.484539
 C   -5.980926    1.201131   -1.388293
 C   -6.569366    1.168179   -2.810389
 O   -5.833896    0.964456   -3.765537
 C   -5.776325    2.664938   -0.950666
 C   -5.171984    2.812298    0.459214
 C   -3.986135    3.783978    0.518680
 N   -2.881123    3.428965   -0.366832
 C   -2.105977    2.327255   -0.211776
 N   -2.060725    1.579171    0.869577
 N   -1.331008    1.986369   -1.275451
 N   -7.886656    1.425707   -2.916488
 H    3.177265   -2.911832   -4.385189
 H    1.431943   -3.028041   -4.058495
 H    2.227577   -1.449979   -4.035930
 H    4.547468   -3.148791   -2.546061
 H    3.431487   -3.597379    0.092275
 H    5.905043   -3.330795    0.693977
 H    7.249298   -3.243997   -1.259615
 H    5.196915   -5.374025   -1.492301
 H    6.612939   -5.465582   -0.427414
 H    4.992045   -5.589804    0.259887
 H    5.299258   -0.909016   -1.339266
 H    5.375775    0.821939    0.718728
 H    6.321472    1.203693   -1.483213
 H    6.101412    2.984701    0.260496
 H    4.640149    3.559360   -0.528483
 H    4.261045    0.656817   -2.880545
 H    3.575777    2.212709   -2.409456
 H    5.073014    2.151675   -3.358534
 H    6.656182    4.906699   -1.155118
 H    5.952177    4.146420   -2.582068
 H    7.415726    3.469133   -1.848046
 H    4.089533    1.874903    1.973942
 H    2.331281    2.445078    3.161942
 H    2.045496   -0.052994    2.667008
 H    0.667196    0.823261    3.382185
 H    0.910862    2.884282    0.512243
 H    0.071514    2.968821    2.053448
 H    1.547460    4.805805    2.816680
 H    0.577952    5.164078    1.406224
 H    2.522789    6.058491    0.602997
 H    2.843305    4.411964    0.107835
 H    4.191354    4.109777    2.288426
 H    3.862980    5.804423    2.656775
 H    4.834663    5.380237    1.243608
 H    0.966805    0.485841    0.489781
 H   -0.445164    0.849218    1.316717
 H    1.078097   -1.675329    1.167073
 H   -0.663200   -2.564373   -0.110423
 H    0.507351   -1.254892   -1.400353
 H   -0.773614   -2.735749    2.504318
 H    0.366818   -1.748081    3.383269
 H   -2.561787   -1.076707    2.796786
 H   -1.422822    0.166334    3.276063
 H   -2.614221   -0.685242    5.205685
 H   -0.910487   -1.082337    5.359303
 H   -3.048454   -3.051704    4.350355
 H   -1.360476   -3.449782    4.698929
 H   -2.440401   -2.991958    6.015890
 H   -2.545505   -1.832536    0.937135
 H   -2.204116   -0.153512    0.636437
 H   -2.470736   -0.692863   -1.749059
 H   -2.467504   -3.184432   -1.518981
 H   -3.830707   -2.511441   -2.378884
 H   -5.251982   -2.781123   -0.261487
 H   -4.769416   -4.231794   -1.126910
 H   -4.138476   -5.419342    2.154907
 H   -5.188427   -5.517985    0.780670
 H   -4.350055    0.471851   -2.432061
 H   -6.623496    0.677076   -0.673295
 H   -5.128441    3.128932   -1.704763
 H   -6.735659    3.188524   -1.014078
 H   -5.931899    3.173392    1.159780
 H   -4.863030    1.832467    0.834289
 H   -3.608756    3.867900    1.543810
 H   -4.298605    4.790718    0.229207
 H   -2.907060    3.834134   -1.290440
 H   -2.719462    1.882643    1.578057
 H   -0.698356    1.197572   -1.193994
 H   -1.144116    2.648475   -2.011487
 H   -8.488421    1.539811   -2.116092
 H   -8.302670    1.453879   -3.836731
