44 
3ibn_ligand_dft.xyz
 C   -5.377140    0.483732    1.081118
 N   -7.861811    0.983548   -0.679544
 O   -7.755592   -1.145503    0.605489
 S   -7.143358   -0.518890   -0.544950
 C   -3.883464    0.728559    1.169384
 N    7.530260   -0.113357    1.426493
 O   -7.064346   -1.167679   -1.829810
 S    7.399435   -0.577010   -0.173752
 C   -3.055967   -0.557955    1.129078
 O   -5.636096   -0.110219   -0.213524
 C   -1.556639   -0.334888    1.345777
 O    5.813306   -0.611243   -0.354444
 C   -0.877915    0.495484    0.254476
 O    7.966308    0.507915   -0.943604
 C    0.636405    0.595553    0.439937
 O    7.811151   -1.947556   -0.347077
 C    1.314887    1.425058   -0.651593
 C    2.813964    1.651264   -0.433684
 C    3.639198    0.361779   -0.443184
 C    5.122303    0.659095   -0.346004
 H   -5.946578    1.416217    1.150465
 H   -5.719838   -0.209910    1.854808
 H   -8.815559    0.942184   -0.335709
 H   -7.820590    1.324803   -1.634894
 H   -3.697152    1.262128    2.111303
 H   -3.592164    1.405158    0.358247
 H    8.353067    0.467240    1.550901
 H    7.543837   -0.921356    2.041177
 H   -3.217959   -1.059812    0.167837
 H   -3.430762   -1.241358    1.902566
 H   -1.063268   -1.314029    1.402224
 H   -1.394557    0.146230    2.321214
 H   -1.300454    1.509012    0.233564
 H   -1.096415    0.050939   -0.726910
 H    1.059115   -0.417587    0.459687
 H    0.854497    1.039933    1.422142
 H    0.820165    2.403312   -0.713420
 H    1.158991    0.940270   -1.625321
 H    2.966433    2.175012    0.520423
 H    3.187467    2.322499   -1.218284
 H    3.446723   -0.200697   -1.364759
 H    3.356522   -0.284748    0.394441
 H    5.475105    1.252672   -1.194305
 H    5.365382    1.183155    0.585127
