44 
3ibn_ligand_xtb.xyz
 C   -5.556963    1.338817    0.344677
 N   -8.136845   -0.366943   -0.026677
 O   -6.136076   -1.327114    1.089051
 S   -6.571886   -0.926713   -0.206710
 C   -4.049090    1.546908    0.456775
 N    7.677163    0.436840    1.128577
 O   -6.501261   -1.839083   -1.295100
 S    7.174613   -0.717112    0.026866
 C   -3.335182    0.258658    0.863875
 O   -5.852390    0.393658   -0.675197
 C   -1.844072    0.459158    1.134430
 O    5.618155   -0.694981    0.269288
 C   -1.041390    0.812497   -0.116349
 O    7.488210   -0.212449   -1.268205
 C    0.455511    0.897708    0.177939
 O    7.639550   -2.000118    0.424548
 C    1.260071    1.241211   -1.074142
 C    2.744225    1.484284   -0.796138
 C    3.478944    0.227723   -0.332031
 C    4.972672    0.489166   -0.177667
 H   -6.064263    2.271307    0.077480
 H   -5.962989    0.958042    1.284973
 H   -8.619372   -0.911674    0.668595
 H   -8.621388   -0.403374   -0.908567
 H   -3.867567    2.326158    1.199934
 H   -3.676701    1.892559   -0.507864
 H    8.479340    0.926373    0.768540
 H    7.889444    0.000620    2.010917
 H   -3.469896   -0.484653    0.076204
 H   -3.812115   -0.136481    1.762656
 H   -1.443063   -0.464907    1.556130
 H   -1.714269    1.245705    1.881872
 H   -1.378937    1.770718   -0.514713
 H   -1.216379    0.052881   -0.880844
 H    0.792103   -0.057588    0.582308
 H    0.628601    1.662626    0.938600
 H    0.840764    2.145307   -1.521841
 H    1.156502    0.435003   -1.802613
 H    2.846345    2.263886   -0.038113
 H    3.217958    1.848111   -1.710465
 H    3.337493   -0.575345   -1.056231
 H    3.088842   -0.110956    0.627374
 H    5.426124    0.780647   -1.130189
 H    5.159705    1.280878    0.556789
