38 
3ibu_ligand_xtb.xyz
 C   -2.417588   -0.895909    0.865175
 N   -5.110794    0.422005    1.208736
 O   -4.452997   -0.339252   -1.065519
 S   -4.131342    0.680094   -0.124208
 C   -1.830337   -1.668289   -0.313577
 O   -4.187183    2.046600   -0.513434
 C   -0.558234   -1.028024   -0.871442
 O   -2.713049    0.452467    0.522007
 C    0.634181   -1.116219    0.079272
 C    1.909541   -0.572801   -0.561684
 C    3.097974   -0.627825    0.395431
 C    4.380557   -0.103771   -0.246260
 C    5.559258   -0.156714    0.723460
 C    6.885437    0.269343    0.092883
 C    6.936080    1.752868   -0.253421
 H   -1.710278   -0.837862    1.695756
 H   -3.342440   -1.369244    1.207361
 H   -6.005035    0.067183    0.912503
 H   -5.220300    1.279366    1.725310
 H   -2.588013   -1.703174   -1.096854
 H   -1.622637   -2.687835    0.018141
 H   -0.766463    0.018635   -1.099428
 H   -0.301377   -1.529798   -1.806855
 H    0.792609   -2.158520    0.368132
 H    0.426657   -0.545577    0.985824
 H    1.742767    0.460814   -0.872470
 H    2.140844   -1.153691   -1.457644
 H    3.252277   -1.660081    0.719640
 H    2.872453   -0.033980    1.284480
 H    4.217447    0.923525   -0.575440
 H    4.613444   -0.703776   -1.129288
 H    5.660799   -1.180436    1.093176
 H    5.348346    0.483691    1.583262
 H    7.060609   -0.320433   -0.809833
 H    7.692247    0.044873    0.794975
 H    6.206907    2.000492   -1.020159
 H    6.728188    2.355847    0.628023
 H    7.922577    2.019965   -0.625886
