54 
3idp_ligand_dft.xyz
 C    8.886881   23.084046   28.616628
 C    6.295913   21.333336   30.542394
 C    5.842100   20.017243   30.594946
 C    3.955852   20.740331   31.835499
 C    4.798189   24.899875   32.945461
 C    3.410403   26.833443   32.422075
 C    4.617255   25.330415   29.144449
 C    5.451183   24.104869   33.925358
 C    5.239466   24.388340   35.240417
 C    3.765940   26.090461   34.812072
 C    2.515117   27.445768   36.543334
 C    2.776215   27.548864   38.943736
 C    3.189153   27.061095   37.708510
 C    1.696928   28.416830   39.032447
Cl    1.186660   29.021731   40.594572
 C    1.015951   28.808817   37.886025
 C    1.426718   28.323708   36.654280
 N    2.864404   27.040570   35.249683
 N    4.394859   25.349944   35.693215
 C    3.966200   25.958565   33.383528
 C    3.637102   26.636195   31.084009
 C    4.410847   25.550006   30.620611
 C    4.980938   24.699263   31.548877
 N    5.816252   23.648869   31.093895
 C    5.462512   22.326025   31.138675
 N    4.330066   22.014610   31.777670
 C    4.659034   19.695895   31.248392
 C    7.575864   21.649454   29.879993
 N    7.730293   22.821603   29.249392
 N    9.959056   22.314081   28.522189
 C    9.841075   21.155609   29.177132
 C    8.673241   20.784841   29.872253
 N    8.973215   19.561908   30.433397
 C   10.260296   19.280352   30.063557
 N   10.813402   20.187684   29.306185
 H    8.937266   24.050876   28.123112
 H    6.401901   19.239524   30.081187
 H    3.027860   20.549613   32.370666
 H    2.828410   27.700362   32.719713
 H    5.648600   25.550511   28.842306
 H    4.420185   24.288949   28.870078
 H    3.956792   25.973402   28.556763
 H    6.121352   23.308899   33.627651
 H    5.745546   23.822490   36.018400
 H    3.302631   27.245872   39.842481
 H    4.019690   26.374475   37.639920
 H    0.171945   29.486397   37.954131
 H    0.889805   28.635318   35.760931
 H    2.267147   27.420766   34.534631
 H    3.208851   27.322527   30.358896
 H    6.489220   23.866995   30.364430
 H    4.290024   18.677829   31.289633
 H   10.745542   18.369041   30.388364
 H    8.410648   19.040506   31.086853
