69 
3iej_ligand_dft.xyz
 C   -2.229673   -2.701093   -1.749913
 N   -3.588030   -3.365688   -1.891418
 C   -3.433295   -4.866905   -1.811155
 C   -2.644496   -5.253890   -0.567449
 O   -1.381120   -4.645077   -0.590703
 C   -1.495512   -3.242587   -0.528791
 C   -4.615485   -2.804100   -0.935586
 C   -5.228032   -1.499316   -1.472456
 C   -5.390894   -0.426965   -0.383011
 N   -4.118959    0.148550   -0.009816
 N   -3.224282   -0.617702    0.650997
 C   -2.099486    0.099891    0.691954
 C   -2.272561    1.340328    0.035153
 C   -3.576140    1.328797   -0.408001
 C   -4.256477    2.458038   -1.113838
 C   -3.160717    3.456928   -1.543057
 N   -2.203985    3.694572   -0.478400
 C   -1.384540    2.542104   -0.127544
 C   -0.901307   -0.449849    1.344314
 C   -1.020496   -1.300579    2.448888
 C    0.106834   -1.877753    3.014176
 C    1.366723   -1.608580    2.488358
 C    1.520324   -0.744764    1.390618
 C    0.364944   -0.177159    0.833362
 C    2.797635   -0.449328    0.834903
 C    3.877857   -0.189020    0.355926
 C    5.169030    0.095010   -0.184708
 C    5.332172    1.081934   -1.165958
 C    6.588243    1.354511   -1.688476
 C    7.687643    0.635747   -1.227590
 C    7.548408   -0.347270   -0.251741
 C    6.290038   -0.614975    0.267561
 C   -2.271385    4.741025    0.426934
 C   -3.251456    5.866221    0.084258
 O   -3.181079    6.814132    1.103716
 O   -1.573812    4.778928    1.415716
Cl    2.756236   -2.353796    3.212517
Cl    9.265714    0.974049   -1.882983
 H   -2.386887   -1.623931   -1.669394
 H   -1.677817   -2.934096   -2.663511
 H   -3.925793   -3.160551   -2.834745
 H   -2.880705   -5.169928   -2.703959
 H   -4.431263   -5.309475   -1.833075
 H   -2.490055   -6.334475   -0.572121
 H   -3.196610   -4.990649    0.348202
 H   -1.991056   -2.925495    0.397674
 H   -0.485846   -2.827631   -0.517275
 H   -4.108983   -2.628805    0.013646
 H   -5.378658   -3.573015   -0.800928
 H   -6.201951   -1.707596   -1.926150
 H   -4.597364   -1.067681   -2.260870
 H   -5.863766   -0.843014    0.511193
 H   -6.030630    0.377703   -0.750712
 H   -4.970131    2.949622   -0.440407
 H   -4.816237    2.123035   -1.995869
 H   -3.609245    4.392344   -1.876901
 H   -2.615137    3.045999   -2.401666
 H   -0.634002    2.382461   -0.914615
 H   -0.855969    2.781166    0.797184
 H   -2.001648   -1.499876    2.867313
 H    0.018719   -2.532908    3.873700
 H    0.483344    0.474651   -0.026350
 H    4.469148    1.639491   -1.514510
 H    6.718338    2.119562   -2.445599
 H    8.417407   -0.893893    0.096821
 H    6.167732   -1.376450    1.030477
 H   -4.265699    5.441706   -0.016739
 H   -2.972962    6.282968   -0.898192
 H   -3.731949    7.564033    0.853135
