69 
3iej_ligand_xtb.xyz
 C   -4.444168   -3.202605    0.792547
 N   -4.322169   -2.335821   -0.389129
 C   -3.511739   -3.037433   -1.399521
 C   -4.017918   -4.457627   -1.681658
 O   -4.100876   -5.213071   -0.497925
 C   -4.957503   -4.601356    0.437609
 C   -5.612935   -1.855922   -0.901133
 C   -5.508625   -0.523831   -1.655208
 C   -5.261075    0.704672   -0.767186
 N   -3.861029    0.927338   -0.514530
 N   -3.092362   -0.061437   -0.026804
 C   -1.829425    0.377727    0.117171
 C   -1.811963    1.722676   -0.280858
 C   -3.111233    2.030734   -0.666402
 C   -3.563702    3.372911   -1.113207
 C   -2.308293    4.224812   -1.391775
 N   -1.346542    4.068514   -0.328645
 C   -0.731883    2.754492   -0.277588
 C   -0.771602   -0.460417    0.644417
 C   -1.078115   -1.479960    1.552200
 C   -0.078251   -2.278000    2.070455
 C    1.240695   -2.077897    1.691383
 C    1.572240   -1.055979    0.784358
 C    0.553627   -0.254531    0.272536
 C    2.909872   -0.847153    0.404114
 C    4.070475   -0.693290    0.102544
 C    5.424230   -0.526911   -0.243566
 C    5.815825    0.479075   -1.131109
 C    7.145340    0.630794   -1.465354
 C    8.094294   -0.221897   -0.914798
 C    7.718972   -1.225069   -0.029660
 C    6.389702   -1.376720    0.304347
 C   -1.182361    4.901713    0.730993
 C   -1.904032    6.242374    0.711269
 O   -1.676416    6.919926    1.905603
 O   -0.457650    4.620256    1.664618
Cl    2.480423   -3.073976    2.337598
Cl    9.754833   -0.032795   -1.334817
 H   -5.097693   -2.729055    1.526843
 H   -3.443473   -3.310972    1.219668
 H   -3.518070   -1.068821   -0.042416
 H   -2.491645   -3.100202   -1.009007
 H   -3.498774   -2.459473   -2.324270
 H   -3.315458   -4.980381   -2.331334
 H   -4.999487   -4.426898   -2.179354
 H   -5.982755   -4.548064    0.041126
 H   -4.953145   -5.240830    1.320557
 H   -6.287783   -1.724333   -0.051941
 H   -6.071213   -2.587609   -1.573616
 H   -6.459563   -0.373951   -2.166655
 H   -4.733574   -0.577702   -2.421558
 H   -5.785209    0.588094    0.187682
 H   -5.646121    1.599370   -1.257808
 H   -4.160088    3.837118   -0.322019
 H   -4.181074    3.313822   -2.011429
 H   -2.580297    5.270525   -1.514579
 H   -1.841151    3.880834   -2.320527
 H   -0.069636    2.631055   -1.143823
 H   -0.132794    2.698222    0.635401
 H   -2.095521   -1.613059    1.884770
 H   -0.312424   -3.056369    2.778909
 H    0.810479    0.514912   -0.436978
 H    5.071456    1.137508   -1.553234
 H    7.453279    1.405319   -2.149710
 H    8.466856   -1.878435    0.390700
 H    6.086502   -2.152508    0.990975
 H   -2.985690    6.099729    0.592577
 H   -1.529623    6.836005   -0.138023
 H   -0.984095    6.431933    2.385661
