73 
3if7_ligand_xtb.xyz
 C    7.930805   -0.809879   -1.394404
 C    7.581416    0.400238   -0.536406
 C    6.620572    0.072097    0.607885
 C    5.249440   -0.454099    0.178653
 C    4.441028    0.555717   -0.632171
 C    3.051891    0.044030   -1.021829
 C    2.106340   -0.244351    0.145112
 C    1.809877    0.982587    1.004194
 C    0.744596    0.673218    2.054016
 C    0.293088    1.917514    2.838257
 C   -0.471576    2.832154    1.939082
 C   -1.790881    2.812570    1.817435
 C   -2.538648    3.576588    0.761987
 O   -1.883617    4.765246    0.361187
 C   -2.648213    2.706061   -0.525127
 N   -1.347103    2.413988   -1.100931
 C   -3.385126    1.398217   -0.232148
 O   -3.509910    0.607227   -1.389683
 P   -2.211830   -0.268759   -1.793039
 O   -2.852061   -1.530247   -2.490005
 O   -1.576688    0.497669   -3.036319
 O   -1.315231   -0.571727   -0.680063
 C   -3.841304   -1.749684    1.444088
 C   -4.669410   -1.754117    0.419977
 N   -1.407277   -4.070205    1.110715
 C   -1.776722   -4.311552   -0.269286
 C   -0.266958   -3.179909    1.193234
 C   -1.165729   -5.309813    1.816074
 H    8.694112   -0.547461   -2.123797
 H    7.059059   -1.170828   -1.933584
 H    8.312700   -1.618457   -0.774503
 H    8.500516    0.801627   -0.101337
 H    7.153715    1.181841   -1.166436
 H    6.476595    0.975145    1.207544
 H    7.091531   -0.676402    1.250875
 H    4.696146   -0.710808    1.083797
 H    5.368827   -1.370790   -0.400852
 H    4.348386    1.483690   -0.064637
 H    4.978757    0.789735   -1.553186
 H    2.581370    0.785238   -1.673420
 H    3.167562   -0.873261   -1.603988
 H    2.515906   -1.037211    0.772837
 H    1.163147   -0.608769   -0.266624
 H    2.717836    1.323307    1.506758
 H    1.467885    1.788031    0.350790
 H    1.142377   -0.061999    2.756626
 H   -0.122425    0.225789    1.563642
 H    1.167982    2.427194    3.247277
 H   -0.343755    1.598876    3.665412
 H    0.113171    3.496403    1.315346
 H   -2.394058    2.166236    2.437813
 H   -3.556188    3.809842    1.113419
 H   -1.700712    5.293511    1.145228
 H   -3.207234    3.282179   -1.271988
 H   -0.858422    3.295803   -1.231601
 H   -1.248938    1.343328   -2.683876
 H   -0.810161    1.851314   -0.443527
 H   -4.398343    1.599625    0.122250
 H   -2.835749    0.824708    0.519753
 H   -3.398189   -1.278483   -3.234359
 H   -3.047859   -2.472764    1.534499
 H   -3.925461   -1.021437    2.236844
 H   -4.585207   -2.483000   -0.368262
 H   -5.469098   -1.036766    0.316939
 H   -1.959124   -3.357141   -0.759809
 H   -0.993612   -4.849977   -0.827149
 H   -2.690868   -4.904483   -0.294717
 H   -0.069375   -2.948664    2.239869
 H    0.643224   -3.617438    0.753162
 H   -0.503280   -2.260060    0.663619
 H   -0.938676   -5.090488    2.859033
 H   -2.064440   -5.924842    1.778255
 H   -0.328373   -5.887860    1.390489
