63 
3ii5_ligand_dft.xyz
 C    7.079052   -4.384178   -0.060012
 F   -5.427621   -4.049367    1.218503
 N    8.124919   -3.360736    0.237463
 O   -2.748717   -0.089852    0.226348
 C    8.044791   -2.902974    1.656679
 F   -7.226019   -4.428162    0.070374
 N    1.006713    1.414472   -1.055249
 C    8.106456   -2.190965   -0.762335
 F   -7.326301   -3.257898    1.884240
 N    1.498610    2.177462   -0.054703
 C    6.834890   -1.409017   -0.726393
 N    3.495955    2.497775    1.230830
 C    6.691007   -0.314009    0.132615
 N   -3.845006    1.835629   -0.356315
 C    5.503822    0.397580    0.190761
 C    4.411923    0.043017   -0.621853
 C    4.572254   -1.042068   -1.500760
 C    5.760780   -1.750747   -1.555243
 C    3.154341    0.776767   -0.566789
 C    1.996092    0.584894   -1.347055
 C    2.807912    1.840767    0.277600
 C    2.866055    3.483895    1.829537
 C    1.537771    3.863850    1.540192
 C    0.826951    3.190893    0.575556
 C   -0.572472    3.504383    0.224953
 C   -0.951349    4.844561    0.121712
 C   -2.278517    5.157694   -0.146290
 C   -3.218611    4.149305   -0.295525
 C   -2.842521    2.805278   -0.185081
 C   -1.509803    2.480024    0.069562
 C   -3.754667    0.476312   -0.164787
 C   -5.016300   -0.284635   -0.457421
 C   -5.964100    0.126073   -1.396880
 C   -7.099068   -0.644674   -1.629503
 C   -7.295255   -1.826223   -0.925648
 C   -6.341882   -2.243960    0.001874
 C   -5.203073   -1.483637    0.229946
 C   -6.577832   -3.503065    0.795772
 H    6.100102   -3.921996    0.066001
 H    7.200103   -4.725967   -1.088626
 H    7.197751   -5.220081    0.630252
 H    9.034364   -3.813765    0.116962
 H    8.849968   -2.192041    1.845667
 H    7.079319   -2.420778    1.808897
 H    8.146113   -3.768791    2.311976
 H    8.283104   -2.650897   -1.738394
 H    8.975220   -1.581292   -0.499750
 H    7.524442   -0.000528    0.758118
 H   -4.769723    2.201094   -0.528663
 H    5.407062    1.243368    0.862351
 H    3.759825   -1.334335   -2.157290
 H    5.856273   -2.572359   -2.262031
 H    1.833107   -0.136519   -2.136774
 H    3.420009    4.015865    2.598940
 H    1.059407    4.658806    2.097798
 H   -0.212667    5.632944    0.224947
 H   -2.583613    6.194391   -0.242062
 H   -4.254692    4.406587   -0.502040
 H   -1.220109    1.443564    0.148617
 H   -5.807681    1.025959   -1.985965
 H   -7.826119   -0.328415   -2.370038
 H   -8.177798   -2.430550   -1.105800
 H   -4.444758   -1.809652    0.932763
