89 
3iiw_ligand_dft.xyz
 N   -2.847156    0.999171    0.556934
 C   -3.158017    1.636254   -0.761232
 C   -1.848186    1.945172   -1.496930
 O   -1.622541    1.439631   -2.589588
 C   -4.052791    2.852857   -0.562549
 N   -0.986306    2.785523   -0.871039
 C    0.347051    3.019560   -1.423028
 C    1.222930    1.831998   -0.972123
 O    1.964861    1.862992    0.005367
 C    0.883535    4.439191   -1.191137
 C    1.458334    4.928696    0.147749
 C    0.543765    4.939396    1.383260
 N    0.640907    3.708507    2.153294
 C   -0.305529    2.742711    2.233409
 N    0.199882    1.486814    2.437751
 N   -1.598841    2.918779    2.117259
 N    1.035913    0.739543   -1.768783
 C    1.257884   -0.647245   -1.397403
 C    2.579762   -0.919611   -0.658981
 C    3.790868   -0.404927   -1.440711
 C    5.104655   -0.413232   -0.644702
 C    5.555334   -1.832091   -0.318929
 N    6.929556   -1.961553    0.322112
 C    0.069468   -1.140110   -0.548924
 O   -0.407365   -0.421897    0.329407
 C    6.993365   -1.190812    1.604699
 C    8.005337   -1.477171   -0.603633
 C    7.170144   -3.413235    0.614844
 N   -0.357429   -2.385580   -0.812320
 C   -1.425317   -3.066474   -0.106682
 C   -2.795062   -2.450578   -0.462746
 O   -2.894799   -1.408796   -1.091173
 C   -1.195190   -3.114572    1.411620
 O    0.110948   -3.598110    1.613888
 N   -3.868496   -3.154954   -0.037143
 C   -5.225368   -2.745532   -0.336386
 C   -5.615099   -1.509456    0.471721
 O   -6.877914   -1.169232    0.237643
 C   -6.194168   -3.908097   -0.109907
 O   -4.884265   -0.890899    1.217509
 H   -2.117220    0.277993    0.431496
 H   -2.486823    1.714132    1.267191
 H   -3.677501    0.511896    0.921517
 H   -3.648001    0.872942   -1.364870
 H   -4.286245    3.300795   -1.531405
 H   -4.994812    2.563191   -0.087060
 H   -3.571301    3.611430    0.061412
 H   -1.176585    3.043059    0.095110
 H    0.213475    2.936084   -2.505484
 H    1.675898    4.581902   -1.935066
 H    0.071468    5.111394   -1.494978
 H    1.771914    5.962538   -0.034357
 H    2.368864    4.370842    0.386876
 H    0.815395    5.776617    2.033225
 H   -0.501281    5.097743    1.098626
 H    1.582658    3.392044    2.336595
 H    0.952050    1.230510    1.806703
 H   -0.501291    0.766954    2.525127
 H   -1.870220    3.889703    2.249987
 H    0.288263    0.853662   -2.451559
 H    1.277229   -1.204836   -2.342086
 H    2.636700   -2.004305   -0.500201
 H    2.542845   -0.441564    0.321989
 H    3.604417    0.632001   -1.729450
 H    3.913534   -0.971855   -2.372724
 H    5.861383    0.100716   -1.245518
 H    4.956110    0.169543    0.270779
 H    4.862225   -2.312212    0.377336
 H    5.597123   -2.438996   -1.228700
 H    6.887795   -0.127365    1.394898
 H    6.187959   -1.525631    2.260194
 H    7.958316   -1.375927    2.078505
 H    7.924060   -2.009770   -1.552152
 H    7.895799   -0.406057   -0.764262
 H    8.975309   -1.677661   -0.146900
 H    7.126218   -3.975146   -0.319024
 H    8.155054   -3.527529    1.069394
 H    6.402536   -3.769752    1.302802
 H    0.053415   -2.873228   -1.593367
 H   -1.407032   -4.100662   -0.466008
 H   -1.947729   -3.784710    1.850560
 H   -1.336306   -2.117810    1.844163
 H    0.229322   -3.753588    2.558345
 H   -3.742893   -4.029237    0.451817
 H   -5.268717   -2.435600   -1.387830
 H   -7.096614   -0.389834    0.774848
 H   -5.909767   -4.754148   -0.741051
 H   -6.190367   -4.228088    0.937474
 H   -7.210450   -3.611603   -0.371568
