40 
3ijh_ligand_dft.xyz
 C    1.710721   -0.692880    1.674540
 O    2.978312   -1.066115    1.447939
 C    1.012199   -0.330116    0.348564
 O   -0.214684    0.226253    0.742534
 C   -1.116439    0.524965   -0.317767
 C   -2.294767    1.184688    0.398964
 C   -3.490473    1.504896   -0.483705
 O   -4.468404    2.212932    0.235484
 O   -2.781030    0.322339    1.430085
 C   -1.453204   -0.747140   -1.100400
 O   -2.079103   -1.722568   -0.274169
 C   -0.154428   -1.353666   -1.648850
 O   -0.387155   -2.531420   -2.371715
 C    0.828354   -1.610815   -0.495802
 O    0.394081   -2.686145    0.304726
 O    1.752972    0.550177   -0.434292
 C    4.032471    2.080152   -1.438444
 C    2.743529    2.670347   -0.870614
 C    2.101059    1.786681    0.183322
 O    1.202160   -0.659618    2.763405
 H    3.342373   -1.337596    2.305883
 H   -0.664191    1.251451   -1.008132
 H   -1.939135    2.120539    0.850608
 H   -3.178660    2.142196   -1.316811
 H   -3.898387    0.572014   -0.904380
 H   -4.665842    1.683993    1.019993
 H   -2.033470    0.162013    2.027411
 H   -2.107298   -0.495875   -1.947693
 H   -2.626189   -1.247918    0.377216
 H    0.291911   -0.633710   -2.342204
 H   -0.532558   -3.225361   -1.712249
 H    1.805440   -1.886913   -0.896710
 H   -0.538996   -2.501357    0.520068
 H    4.466026    2.742359   -2.194013
 H    3.842985    1.107976   -1.901223
 H    4.777604    1.935824   -0.647816
 H    2.016962    2.837492   -1.675081
 H    2.941437    3.647322   -0.413244
 H    1.203200    2.258075    0.600910
 H    2.805465    1.598128    1.006640
