40 
3ijh_ligand_xtb.xyz
 C    1.739422   -0.831869    1.615519
 O    2.998013   -1.174101    1.372618
 C    1.031226   -0.345907    0.336669
 O   -0.194810    0.182314    0.782292
 C   -1.108167    0.531420   -0.250162
 C   -2.316058    1.117671    0.504094
 C   -3.501494    1.471677   -0.401449
 O   -4.432711    2.267099    0.276152
 O   -2.781052    0.194305    1.472895
 C   -1.445216   -0.703065   -1.097776
 O   -2.049956   -1.723509   -0.329866
 C   -0.133638   -1.247955   -1.708329
 O   -0.362791   -2.346689   -2.535905
 C    0.845466   -1.594541   -0.571030
 O    0.424417   -2.708790    0.158892
 O    1.762466    0.579957   -0.400656
 C    3.888668    2.344711   -1.420235
 C    2.624866    2.791225   -0.696839
 C    2.161289    1.749570    0.314151
 O    1.214185   -0.917595    2.688099
 H    3.408951   -1.545995    2.171337
 H   -0.668812    1.297243   -0.903857
 H   -1.980400    2.035746    1.009132
 H   -3.156758    2.057109   -1.255869
 H   -3.974375    0.547915   -0.761393
 H   -4.694735    1.798896    1.078596
 H   -2.030650   -0.021355    2.045157
 H   -2.114479   -0.408473   -1.920325
 H   -2.623028   -1.300216    0.334490
 H    0.312561   -0.470238   -2.334938
 H   -0.642120   -3.084409   -1.975402
 H    1.827842   -1.839441   -0.986598
 H   -0.523970   -2.589387    0.356011
 H    4.176931    3.078222   -2.168818
 H    3.713153    1.390925   -1.909276
 H    4.708576    2.226786   -0.715808
 H    1.825546    2.952201   -1.421930
 H    2.802947    3.728619   -0.167031
 H    1.314214    2.127066    0.900288
 H    2.978335    1.497254    1.002394
