68 
3ik3_ligand_dft.xyz
 N   -8.668794   -3.155985   -0.845456
 N    6.907712    0.025104    0.655989
 C   -5.085481    0.010485    0.019100
 C   -4.016509    0.919885    0.257245
 C   -4.293639    2.164976    0.869863
 C   -3.234883    3.045819    1.088331
 C   -1.932127    2.719444    0.735301
 C   -2.709613    0.595514   -0.109523
 C    2.097619    1.517805    0.188359
 C    4.369924    1.890341    0.932449
 C    3.971608    0.772506   -1.157919
 C    6.367706    1.103548   -0.324151
 C    6.317517   -1.330702    0.420748
 C    6.837686   -2.343479    1.425174
 C    8.400744   -0.049387    0.623330
 C  -10.682397   -1.944545    0.007338
 C  -11.044189   -0.764410    0.592375
 C  -10.042883    0.205477    0.875695
 N   -8.767839    0.063233    0.617379
 N   -8.448859   -1.106281    0.042283
 C   -9.316896   -2.137449   -0.287825
 C   -7.375765   -2.776288   -0.875140
 C   -7.183801   -1.509425   -0.334839
 C   -6.047003   -0.705776   -0.151580
 C   -1.662161    1.482555    0.139313
 C   -5.700962    2.516961    1.254980
 C   -0.306923    1.058742   -0.282388
 O   -0.088325    0.221362   -1.134847
 N    0.751182    1.679859    0.412338
 C    3.008131    2.023378    1.131922
 C    4.887481    1.246521   -0.196661
 C    2.608110    0.900705   -0.973617
 C    4.457530    0.161915   -2.454124
 F    5.178673   -0.978291   -2.207767
 F    3.481884   -0.167916   -3.276773
 F    5.299695    0.989024   -3.095671
 C    8.942887   -1.076959    1.607932
 C    8.874217   -3.457784    2.345574
 N    8.339911   -2.435280    1.379033
 H    6.604735    0.341958    1.584388
 H   -3.439257    4.014632    1.534211
 H   -1.151874    3.463100    0.878166
 H   -2.502143   -0.353981   -0.590505
 H    5.045318    2.329999    1.665909
 H    6.708311    0.804857   -1.314912
 H    6.895335    2.015131   -0.028439
 H    6.550396   -1.606911   -0.609129
 H    5.231696   -1.246276    0.498634
 H    6.427130   -3.329797    1.197372
 H    6.569970   -2.090415    2.455852
 H    8.807773    0.934222    0.869479
 H    8.683728   -0.281864   -0.408068
 H  -11.389231   -2.728411   -0.237728
 H  -12.076191   -0.551247    0.844409
 H  -10.304446    1.150409    1.340000
 H   -6.606325   -3.417012   -1.284381
 H   -6.357176    2.504747    0.378072
 H   -6.111781    1.775690    1.948836
 H   -5.752389    3.504194    1.720151
 H    0.490525    2.205922    1.234798
 H    2.643660    2.537253    2.016380
 H    1.915892    0.531587   -1.716468
 H    8.723761   -0.807881    2.645800
 H   10.026788   -1.157150    1.497515
 H    8.602300   -3.157708    3.358568
 H    8.433542   -4.426437    2.106968
 H    9.958960   -3.504380    2.242443
 H    8.606571   -2.747270    0.437830
