67 
3ikc_ligand_xtb.xyz
 C    3.772831   -1.172846   -1.635006
 O    3.673795   -2.159869   -2.306201
 O    4.737106   -0.268655   -1.800097
 C    2.858665   -0.804899   -0.450347
 C    3.664535   -1.084367    0.836796
 C    3.135714   -0.322675    2.071927
 O    4.081281   -0.354255    3.103665
 C    2.805838    1.138786    1.688269
 O    3.988470    1.828554    1.357528
 C    1.838111    1.073993    0.505109
 O    2.573726    0.567632   -0.604269
 C    1.143612    2.371676    0.089521
 O    0.130365    1.992714   -0.808335
 C    2.081594    3.394380   -0.556495
 O    1.279234    4.496588   -0.938493
 C   -4.867048   -0.340589   -0.192576
 C   -3.392108   -0.124402    0.197360
 O   -3.000124    1.209641   -0.008116
 C   -3.268935   -0.392390    1.706443
 C   -1.787527   -0.410537    2.114288
 O   -1.625883   -0.703552    3.472313
 C   -1.084278   -1.462085    1.236437
 O   -1.666599   -2.697819    1.566571
 C   -1.268553   -1.049585   -0.232564
 O   -2.649934   -1.024705   -0.575311
 C   -0.556783   -1.955168   -1.254970
 O   -0.573476   -3.289412   -0.805659
 C    0.859101   -1.444139   -1.567605
 O    1.696233   -1.576151   -0.419206
 C   -0.217785   -4.253462   -1.770413
 C   -3.086565    1.672636   -1.298378
 C   -2.880355    2.945072   -1.605288
 C   -2.568289    4.013904   -0.607677
 O   -5.317400   -1.335212   -0.681267
 O   -5.607673    0.719930    0.130321
 H    5.307148   -0.515673   -2.548162
 H    4.701719   -0.781651    0.672621
 H    3.640454   -2.155470    1.031188
 H    2.235093   -0.810902    2.454792
 H    4.716851    0.356807    2.934728
 H    2.367515    1.655529    2.545975
 H    4.210558    1.580389    0.447258
 H    1.035364    0.370466    0.755638
 H    0.698111    2.825826    0.989233
 H   -0.263823    2.801461   -1.161152
 H    2.848088    3.695587    0.165712
 H    2.556458    2.937788   -1.433569
 H    1.844994    5.179622   -1.310593
 H   -3.802242    0.386073    2.250094
 H   -3.702349   -1.369535    1.925883
 H   -1.346815    0.578086    1.953176
 H   -1.823198   -1.644748    3.577069
 H   -0.005156   -1.486940    1.455896
 H   -1.437227   -3.315776    0.858627
 H   -0.869561   -0.032180   -0.352305
 H   -1.133572   -1.877774   -2.192653
 H    1.285037   -2.023347   -2.393600
 H    0.793193   -0.391791   -1.863507
 H   -0.454210   -5.219831   -1.328548
 H    0.849685   -4.217516   -2.005252
 H   -0.798967   -4.120562   -2.689726
 H   -3.313614    0.921764   -2.045359
 H   -2.955722    3.240860   -2.640282
 H   -3.382693    4.737380   -0.567751
 H   -1.662912    4.555727   -0.882106
 H   -2.442509    3.573993    0.376586
 H   -6.539330    0.563085   -0.096435
