44 
3ikd_ligand_dft.xyz
 C    0.734829    3.426478    0.852737
 N    0.594259    0.276742    0.576802
 O    0.145310   -1.828981    1.338756
 P    2.930176   -2.679763   -0.585614
 C    0.321892    4.494486    0.060084
 O    4.535239   -2.530778   -0.520095
 C    1.170007    5.005842   -0.918181
 O    2.395512   -1.216040   -1.011839
 S   -2.668551   -1.992107    0.479826
 C    2.433417    4.448194   -1.093282
 O    2.618311   -2.802350    0.964592
 C    2.841723    3.379880   -0.300458
 O    2.447708   -3.704295   -1.520453
 C    1.997190    2.848237    0.677657
 C    2.410183    1.651156    1.502744
 C    2.012175    0.294636    0.881025
 C   -4.692864    1.250475   -0.523712
 C   -5.981849    0.804644   -0.737870
 C   -6.305739   -0.555327   -0.582448
 C   -5.346611   -1.480282   -0.212277
 C   -4.039656   -1.030585    0.005257
 C   -3.699626    0.329762   -0.148229
 C   -2.310029    0.558810    0.123937
 C   -1.645191   -0.580500    0.457189
 C   -0.222241   -0.770833    0.819265
 C    2.841818   -0.032006   -0.365704
 H    0.075336    3.041352    1.627633
 H    0.243357    1.033669    0.006661
 H   -0.658671    4.934945    0.215406
 H    4.921873   -3.028683   -1.252270
 H    0.851302    5.840134   -1.535404
 H    3.105898    4.847438   -1.846504
 H    1.676962   -2.564664    1.167442
 H    3.833302    2.955141   -0.438423
 H    3.495525    1.651463    1.655376
 H    1.948161    1.709598    2.493211
 H    2.185180   -0.479356    1.629743
 H   -4.441772    2.300222   -0.645591
 H   -6.754973    1.507996   -1.030478
 H   -7.325509   -0.884691   -0.756102
 H   -5.600098   -2.528821   -0.093037
 H   -1.857186    1.544739    0.083079
 H    3.901875   -0.110090   -0.097385
 H    2.730602    0.763707   -1.108062
