20 
3imc_ligand_xtb.xyz
 C    3.438860   -0.957860    0.011526
 C   -3.001291   -0.809633    0.003118
 C    0.849163    1.587619   -0.003199
 C   -1.864838   -1.559821   -0.003830
 C   -0.511533    1.776376    0.000758
 C    0.618495   -0.827030   -0.007526
 N   -2.681951    0.518655    0.006127
 O    2.787631    0.285813   -0.005325
 C    1.416937    0.298747   -0.005739
 C   -0.768403   -0.654049   -0.004497
 C   -1.321042    0.646627    0.001234
 H    3.181272   -1.535562    0.905939
 H    3.203843   -1.549158   -0.880246
 H    4.504791   -0.734420    0.023216
 H   -4.027305   -1.125478    0.006167
 H    1.525557    2.427398   -0.003866
 H   -1.807340   -2.630082   -0.008258
 H   -0.934662    2.769985    0.004140
 H    1.028138   -1.824507   -0.010980
 H   -3.339768    1.278871    0.012523
