18 
3ime_ligand_xtb.xyz
 O    3.414144    0.985513   -0.006951
 O    3.209487   -1.224610    0.007233
 C   -3.267251    0.638253    0.000917
 C   -3.194994   -0.759332   -0.002118
 C   -2.133415    1.416487    0.003017
 C   -1.986663   -1.422807   -0.003027
 C    0.461179    1.195235    0.002458
 O    0.439737   -1.058358   -0.001372
 C    2.684127   -0.148822    0.000637
 C    1.219309    0.052994    0.000392
 C   -0.895679    0.770133    0.001801
 C   -0.838908   -0.641222   -0.000823
 H    2.871481    1.783811   -0.013259
 H   -4.238327    1.110072    0.001426
 H   -4.111280   -1.329828   -0.004013
 H   -2.189803    2.494030    0.005427
 H   -1.921925   -2.498411   -0.005252
 H    0.796677    2.214455    0.004879
