49 
3ind_ligand_dft.xyz
 C    1.878658    3.629565    1.104890
 N    1.502814    2.440927    0.379387
 O    1.129703    1.078460    2.185446
 C    1.146095    1.262169    0.985217
 N    1.060418    1.076460   -1.310998
 C    0.757147    0.272559   -0.132662
 N    1.447552    3.313846   -1.879250
 C    1.352968    2.385639   -1.014603
 C    1.640658   -0.980141   -0.086685
 C    1.954579   -1.614728    1.118363
 C    2.726360   -2.772741    1.128143
 C    3.195128   -3.318017   -0.062548
 C    2.895359   -2.687546   -1.265827
 C    2.129549   -1.526216   -1.275204
 C   -0.786880   -0.062339   -0.052438
 C   -1.608639    1.247684   -0.030152
 C   -3.114862    0.945926    0.003477
 C   -3.503365    0.130997   -1.238730
 C   -2.718435   -1.189529   -1.248098
 C   -1.210644   -0.890356   -1.286478
 C   -3.050330   -1.993209    0.017226
 C   -2.653427   -1.172886    1.252946
 C   -3.443125    0.143623    1.270553
 C   -1.144567   -0.879876    1.207827
 H    2.837636    4.009793    0.740472
 H    1.115296    4.408095    0.999859
 H    1.970521    3.355589    2.156480
 H    0.591067    0.919531   -2.188554
 H    1.676293    4.206138   -1.447948
 H    1.609138   -1.188765    2.052976
 H    2.963123   -3.247145    2.075957
 H    3.795441   -4.223000   -0.052832
 H    3.264299   -3.094669   -2.202681
 H    1.926073   -1.031692   -2.218829
 H   -1.377121    1.858497   -0.911711
 H   -1.341986    1.839090    0.855854
 H   -3.665481    1.894026    0.010583
 H   -3.287001    0.705187   -2.149530
 H   -4.582063   -0.072062   -1.234247
 H   -2.985465   -1.771936   -2.138068
 H   -0.644415   -1.828774   -1.315946
 H   -0.989696   -0.350679   -2.217837
 H   -2.510126   -2.948685    0.009496
 H   -4.122866   -2.225873    0.044243
 H   -2.871495   -1.745251    2.162304
 H   -3.182113    0.726850    2.163296
 H   -4.520494   -0.061100    1.320926
 H   -0.837363   -0.334020    2.105839
 H   -0.597687   -1.828922    1.201057
