56 
3ine_ligand_dft.xyz
 C   -4.084354   -0.239005    2.389371
 N    1.104469    2.935171   -0.435560
 O   -5.175679   -0.789434   -0.058934
 C   -3.274536   -0.126885    1.126385
 N    0.532044    1.611538    1.246862
 O    0.592856    1.629588   -2.249297
 C   -1.944584    0.268587    1.140361
 N    1.616817    3.600850    1.835817
 C   -1.181122    0.383838   -0.026464
 C   -1.798252    0.100466   -1.240517
 C   -3.134141   -0.294983   -1.289075
 C   -3.870112   -0.412948   -0.113739
 C   -5.830504   -1.087018   -1.270056
 C    0.294292    0.787275    0.066715
 C    0.656677    1.790698   -1.047076
 C    1.137221    2.810249    0.961688
 C    1.580216    4.090985   -1.154841
 C    1.278454   -0.448709    0.029731
 C    2.744202    0.042474    0.068075
 C    3.717728   -1.145774    0.073860
 C    3.515099   -1.973375   -1.203352
 C    2.070441   -2.491066   -1.245488
 C    1.089037   -1.307576   -1.240028
 C    1.806342   -3.377985   -0.020496
 C    2.006553   -2.546907    1.254701
 C    3.449567   -2.023223    1.305660
 C    1.030176   -1.359299    1.253842
 H   -3.477814    0.010125    3.264677
 H   -4.947077    0.435528    2.364558
 H   -4.480273   -1.252125    2.517867
 H    0.758319    1.202733    2.139249
 H   -1.494142    0.511674    2.097798
 H    2.012152    4.435295    1.409295
 H   -1.245263    0.206447   -2.166586
 H   -3.584865   -0.498163   -2.253691
 H   -5.355968   -1.931322   -1.786783
 H   -5.850783   -0.219128   -1.941794
 H   -6.852935   -1.357341   -1.002703
 H    1.033226    4.986299   -0.844292
 H    2.651378    4.242233   -0.983585
 H    1.407517    3.907602   -2.215933
 H    2.949424    0.669790   -0.809443
 H    2.917105    0.660514    0.957727
 H    4.744375   -0.762427    0.110067
 H    3.719310   -1.356024   -2.087790
 H    4.220460   -2.814412   -1.225033
 H    1.913585   -3.070752   -2.162761
 H    1.235293   -0.691323   -2.132852
 H    0.064482   -1.693465   -1.275965
 H    2.488361   -4.238422   -0.019251
 H    0.783496   -3.774916   -0.055740
 H    1.806620   -3.166997    2.136690
 H    4.154999   -2.863888    1.329960
 H    3.608026   -1.442822    2.224318
 H    1.163288   -0.803012    2.192217
 H   -0.003430   -1.724745    1.240252
