51 
3inf_ligand_xtb.xyz
 C    1.800280    3.326189    2.340687
 N    1.991050   -2.911790   -1.002126
 O    2.827142    4.226976   -0.017138
 C    1.887055    2.426943    1.148483
 N    2.067951   -1.921777    0.978642
 O    0.343075   -1.726050   -2.049588
 C    1.455162    1.117455    1.190540
 N    3.644507   -3.578270    0.628275
 C    1.540106    0.284110    0.077655
 N   -5.704153    1.423113    0.060936
 C    2.074361    0.785473   -1.094687
 C    2.508373    2.100570   -1.162489
 C    2.423056    2.926779   -0.051279
 C    3.364539    4.797254   -1.184741
 C    1.093888   -1.158737    0.226635
 C    1.061749   -1.926437   -1.100384
 C    2.676902   -2.876939    0.230067
 C    2.252515   -3.864573   -2.049160
 C   -0.300362   -1.228426    0.820463
 C   -0.584364   -1.999298    1.937895
 C   -1.880100   -2.049275    2.424555
 C   -2.893674   -1.353249    1.793921
 C   -2.621899   -0.591175    0.659159
 C   -1.315455   -0.527858    0.187165
 C   -3.694240    0.122966   -0.043375
 C   -3.741348    0.166799   -1.436433
 C   -4.778965    0.840789   -2.055558
 C   -5.739737    1.448339   -1.260665
 C   -4.711929    0.782143    0.647769
 H    1.198172    4.201657    2.103836
 H    2.792943    3.680948    2.613622
 H    1.359031    2.807289    3.187021
 H    2.532481   -1.541400    1.784595
 H    1.033191    0.731115    2.107791
 H    3.970091   -4.276262   -0.028199
 H    2.145571    0.164839   -1.974530
 H    2.913111    2.464630   -2.093310
 H    2.639381    4.794766   -2.004857
 H    3.608234    5.826126   -0.924022
 H    4.275708    4.280568   -1.503241
 H    1.555460   -3.655917   -2.859615
 H    3.277117   -3.764006   -2.414847
 H    2.095098   -4.881976   -1.685498
 H    0.202045   -2.558952    2.421324
 H   -2.099803   -2.645918    3.297694
 H   -3.906075   -1.419667    2.163732
 H   -1.080491    0.070709   -0.679419
 H   -2.984274   -0.338798   -2.018574
 H   -4.845739    0.887983   -3.131726
 H   -6.576309    1.979476   -1.695539
 H   -4.717649    0.807396    1.730135
