15 
3iny_ligand_dft.xyz
 N   -1.786703   -1.600527   -0.000171
 C   -2.663894   -0.639620   -0.000692
 C   -2.091106    0.734967    0.000796
 C   -0.760081    0.568808    0.000101
 C    0.441417    1.466245   -0.000010
 O    0.271778    2.674809   -0.000354
 N    1.643959    0.832565   -0.000137
 C    1.785504   -0.487090    0.000052
 N    2.830744   -1.235841    0.000080
 N    0.597524   -1.379879    0.000147
 C   -0.586097   -0.891938    0.000099
 H   -3.725743   -0.868615   -0.000467
 H   -2.646900    1.662131    0.001680
 H    3.655224   -0.634837   -0.000065
 H    0.790071   -2.379600    0.000171
