55 
3io7_ligand_xtb.xyz
 N   -4.845930    0.555262    0.262985
 C   -3.951780    1.683324    0.439060
 C   -3.786915    2.058158    1.913151
 C   -4.488014   -0.749794    0.257205
 C   -3.001703   -1.060300    0.364820
 C   -2.764390   -2.459006    0.939728
 C   -0.147379   -0.203986   -0.694083
 C    1.955372    0.849060   -0.289618
 C    3.374669    0.825793   -0.063988
 C    4.249321   -0.258112   -0.010428
 C    5.133566   -2.337805   -0.019318
 C    6.603155   -0.485042    0.280791
 C   -6.630002    1.171427   -1.323967
 C   -6.257987    0.870812    0.125134
 O   -5.310315   -1.640517    0.129744
 C   -1.271051   -2.782451    0.936477
 C   -0.679301   -2.594912   -0.465433
 N   -0.961354   -1.261513   -0.949364
 C   -2.382518   -1.015091   -1.042546
 C    1.229650   -0.320379   -0.465764
 N    1.358572    2.061960   -0.334960
 C    0.064103    2.057039   -0.556714
 N   -0.721176    1.017470   -0.731784
 N    4.074211   -1.570896   -0.109510
 C    6.432417   -1.843824    0.176734
 N    5.525175    0.298576    0.188464
 N    5.495469    1.624184    0.260269
 C    4.209146    1.966140    0.114778
 N    3.766738    3.227848    0.171467
 H   -2.975124    1.480258   -0.002880
 H   -4.383869    2.530828   -0.099571
 H   -4.744816    2.324791    2.353866
 H   -3.113807    2.906477    2.004062
 H   -3.374913    1.226167    2.478816
 H   -2.491644   -0.327602    0.992164
 H   -3.158205   -2.514076    1.956432
 H   -3.312450   -3.184321    0.335901
 H    4.952540   -3.400195   -0.105675
 H    7.553990    0.002687    0.432655
 H   -6.429616    0.299742   -1.941022
 H   -6.054916    2.011083   -1.709110
 H   -7.687153    1.413216   -1.393042
 H   -6.822053    0.001784    0.470420
 H   -6.491707    1.725428    0.764742
 H   -0.750297   -2.115335    1.628508
 H   -1.107431   -3.808825    1.267524
 H   -1.142616   -3.303595   -1.159373
 H    0.394298   -2.776980   -0.455822
 H   -2.537036   -0.048051   -1.519595
 H   -2.831003   -1.796938   -1.661516
 H    1.747938   -1.261733   -0.432481
 H   -0.421805    3.026878   -0.591399
 H    7.275373   -2.509536    0.244828
 H    4.421820    3.987256    0.158453
 H    2.782923    3.338189   -0.053915
