21 
3iog_ligand_dft.xyz
 C   -0.127564    0.090320    0.313934
 P    2.325084   -0.604045   -0.703092
 S    1.817413    0.032983    2.235421
Cl   -0.545164    2.738847   -0.286829
 C   -1.049229    1.085290   -0.030142
Cl   -4.544096   -0.848082   -0.178864
 C   -2.403540    0.806684   -0.183737
 C   -2.847742   -0.493642    0.012113
 C   -1.963930   -1.509759    0.354128
 C   -0.618072   -1.207781    0.500699
 C    1.347185    0.369073    0.491882
 O    1.894628    0.040188   -2.121868
 O    2.234477   -2.078242   -0.665195
 O    3.785546    0.025100   -0.440222
 H    3.118951    0.334522    2.089521
 H   -3.097308    1.594787   -0.450256
 H   -2.322567   -2.521658    0.502776
 H    0.081626   -1.997448    0.755793
 H    1.553347    1.418341    0.272243
 H    1.407881   -0.610013   -2.646754
 H    4.480778   -0.566070   -0.761890
