42 
3iok_ligand_dft.xyz
 C   -4.192512   -1.697250   -1.592362
 C   -2.784792   -1.284986   -1.155778
 N   -2.180816   -2.392696   -0.439688
 C   -0.851343   -2.473502   -0.139481
 N   -0.424045   -3.680426    0.281829
 C    0.863784   -3.757872    0.586201
 N    1.780071   -2.796286    0.534329
 C    1.340041   -1.583513    0.118705
 C    0.012636   -1.379634   -0.244443
 C    2.312768   -0.507822    0.069956
 C    2.127362    0.810971   -0.345495
 N    1.057298    1.490426   -0.798030
 C    1.233821    2.761262   -1.096569
 C    2.467423    3.435522   -0.977257
 C    3.548779    2.724688   -0.521356
 N    3.371924    1.428481   -0.211533
 N    4.331710    0.599775    0.259405
 C    3.690716   -0.563838    0.436443
 N    4.330271   -1.638653    0.950063
 C   -2.833911   -0.009542   -0.324801
 C   -2.678314    1.229808   -0.944668
 C   -2.751873    2.411917   -0.215575
 C   -2.977016    2.333685    1.149613
 F   -3.040785    3.468495    1.865219
 C   -3.131420    1.118040    1.797985
 C   -3.058496   -0.051874    1.050652
 H   -4.159024   -2.575212   -2.247070
 H   -4.808315   -1.929879   -0.716625
 H   -4.672119   -0.878885   -2.135193
 H   -2.191969   -1.070025   -2.058814
 H   -2.650670   -3.286448   -0.456345
 H    1.214871   -4.732642    0.920839
 H   -0.319088   -0.401549   -0.564646
 H    0.355222    3.294719   -1.451982
 H    2.566043    4.482452   -1.232657
 H    4.549064    3.114797   -0.380372
 H    3.818061   -2.512130    0.914193
 H    5.336815   -1.632878    0.963599
 H   -2.481990    1.275772   -2.013274
 H   -2.629831    3.381314   -0.686406
 H   -3.296406    1.098485    2.869656
 H   -3.154427   -1.015052    1.542870
