20 
3ip8_ligand_dft.xyz
 C   -1.577289    1.267823    0.291028
 C   -2.863677    1.125976   -0.221345
 C   -3.407432   -0.142519   -0.400799
 C   -2.656829   -1.267648   -0.069012
 C   -1.371741   -1.125319    0.443644
 C   -0.823085    0.145417    0.636727
 C    0.584760    0.296409    1.163579
 P    1.797022   -0.125497   -0.112962
 O    1.532111    0.932826   -1.311375
 O    3.150048    0.449013    0.548467
 O    1.830033   -1.535330   -0.559321
 H   -1.153928    2.259891    0.425222
 H   -3.440964    2.008740   -0.479992
 H   -4.411443   -0.254381   -0.799081
 H   -3.071601   -2.261006   -0.211716
 H   -0.779841   -2.004128    0.683482
 H    0.768697   -0.367803    2.014427
 H    0.780438    1.321686    1.491788
 H    1.017642    0.512040   -2.013673
 H    3.929898    0.094522    0.098882
