14 
3ipa_ligand_xtb.xyz
 N    1.401526   -1.020675    0.139690
 C    0.621400    0.216787    0.432887
 C   -0.826685   -0.156804    0.035770
 O   -1.689155    0.788482    0.239653
 C    1.127954    1.400026   -0.375969
 O   -1.027891   -1.256678   -0.419075
 H    1.832631   -1.452037    0.961978
 H    2.121348   -0.856258   -0.572900
 H    0.649871   -1.670250   -0.255007
 H    0.644868    0.447710    1.500481
 H   -2.599448    0.552358   -0.016673
 H    2.145112    1.654211   -0.089296
 H    0.500586    2.266374   -0.184788
 H    1.094709    1.188123   -1.442372
