75 
3ipe_ligand_xtb.xyz
 C   12.307046   -1.654705    0.698589
 N    9.658093   -0.642170    0.483011
 O   13.522515   -2.124573    0.378221
Cl    4.927375   -2.195009    1.242684
 C   12.030751   -0.232724    0.406052
 N   -9.818162    0.243190    0.318315
 O   11.499530   -2.409714    1.195893
Cl    6.164942    1.219852   -2.768435
 C   13.076603    0.684103    0.261258
 O    4.360743   -0.263821   -1.180717
Cl   -5.307654   -1.802498   -0.990882
 C   12.837871    2.014231   -0.004432
 O   -4.274273    0.112684    0.807660
Cl   -5.791193    2.270274    2.551865
 C   11.526550    2.463322   -0.108426
 O  -13.400837    1.258294   -1.494582
 C   10.475652    1.589697    0.045017
 O  -11.828283    1.915027   -0.102901
 C   10.693624    0.226588    0.293921
 C    8.345658   -0.528419    0.065811
 C    7.367847   -1.248136    0.751351
 C    6.039623   -1.195420    0.367332
 C    7.960705    0.213978   -1.051246
 C    6.628745    0.281149   -1.401549
 C    5.619045   -0.398926   -0.702668
 C    3.253468   -0.177301   -0.292062
 C    2.272610    0.830965   -0.884915
 C    1.001387    0.945084   -0.049713
 C    0.048167    1.985382   -0.634222
 C   -1.217498    2.184233    0.199774
 C   -2.161500    0.986134    0.147292
 C   -3.457606    1.273265    0.900025
 C   -5.620790    0.226742    0.732310
 C   -6.277115   -0.685722   -0.108930
 C   -7.647247   -0.717762   -0.261973
 C   -6.439842    1.124020    1.424873
 C   -7.815339    1.112744    1.273478
 C   -8.443088    0.185931    0.443133
 C  -10.688309   -0.750012   -0.026339
 C  -10.362095   -2.104022    0.138873
 C  -11.259833   -3.096912   -0.176201
 C  -12.524801   -2.777109   -0.655970
 C  -12.875324   -1.453825   -0.806398
 C  -11.980270   -0.420983   -0.509914
 C  -12.378016    0.993304   -0.667080
 H    9.925017   -1.518251    0.930431
 H   14.071799   -1.465085   -0.065989
 H  -10.253528    1.157895    0.430914
 H   14.102515    0.366720    0.400342
 H   13.660996    2.703170   -0.109265
 H   11.329321    3.509111   -0.289004
 H  -13.732553    0.468606   -1.941839
 H    9.463027    1.958921    0.020874
 H    7.650465   -1.871395    1.585172
 H    8.690582    0.720393   -1.660456
 H    3.580276    0.152491    0.699320
 H    2.774718   -1.159418   -0.200209
 H    2.026324    0.514846   -1.899522
 H    2.766039    1.802589   -0.950765
 H    1.262485    1.228106    0.972746
 H    0.511681   -0.028726   -0.011927
 H   -0.231212    1.690202   -1.647599
 H    0.574341    2.940395   -0.702324
 H   -1.748104    3.063380   -0.174197
 H   -0.940554    2.383563    1.237264
 H   -1.695555    0.107711    0.593336
 H   -2.403336    0.747924   -0.890130
 H   -3.237681    1.493861    1.951147
 H   -3.967636    2.134341    0.455156
 H   -8.081617   -1.414421   -0.959420
 H   -8.410347    1.827550    1.820216
 H   -9.405751   -2.360380    0.565475
 H  -10.986337   -4.130688   -0.028442
 H  -13.233533   -3.556111   -0.888230
 H  -13.885581   -1.225510   -1.122219
