47 
3iph_ligand_dft.xyz
 C   -1.170868    1.087041    0.125692
 C    0.264391    0.707889    0.245460
 C   -2.121587    0.067637    0.117561
 C   -1.588056    2.430402    0.032450
 C    0.665135   -0.265099    1.170712
 N    1.136423    1.307498   -0.575912
 C   -3.482730    0.337263   -0.002611
 C   -2.956501    2.687520   -0.061893
 C   -0.619908    3.585615    0.062431
 C    2.419691    0.964143   -0.488825
 C    2.001942   -0.616480    1.243809
 C   -4.424570   -0.831662   -0.005311
 C   -3.897452    1.664975   -0.084453
 C    2.918385    0.020624    0.408356
 N   -5.641157   -0.611495   -0.597928
 O   -4.123753   -1.903803    0.493291
 C    4.363507   -0.376059    0.497189
 C   -6.587780   -1.675807   -0.736094
 N    5.267061    0.546367    0.073126
 O    4.691760   -1.468599    0.940467
 C   -7.403283   -2.059750    0.461822
 C   -8.045937   -1.315204   -0.677600
 C    6.698511    0.275428    0.116805
 C    7.154706   -0.638256   -1.009491
 C    7.140142   -2.129966   -0.839151
 C    8.311502   -1.583439   -0.824921
 H   -1.814024   -0.971229    0.189327
 H   -0.066900   -0.725889    1.825492
 H   -3.294198    3.719644   -0.105264
 H    0.114369    3.472338    0.866089
 H   -0.055910    3.645768   -0.871883
 H   -1.153211    4.528535    0.214623
 H    3.078046    1.453389   -1.205664
 H    2.357227   -1.372922    1.936095
 H   -4.954187    1.914690   -0.126067
 H   -5.718574    0.162220   -1.241400
 H   -6.288335   -2.479113   -1.406352
 H    4.953624    1.481085   -0.131160
 H   -7.209697   -1.513305    1.378385
 H   -7.632596   -3.111409    0.595503
 H   -8.726102   -1.847925   -1.334346
 H   -8.296006   -0.270551   -0.516404
 H    6.941843   -0.185290    1.080716
 H    7.210282    1.242263    0.060518
 H    6.957272   -0.217926   -2.002226
 H    6.498984   -2.991182   -0.752903
 H    9.382308   -1.671456   -0.729774
