58 
3ipu_ligand_dft.xyz
 C    3.534487   -1.468745    0.444579
 C    2.968209   -0.216214    0.105529
 C    3.744597    0.867272   -0.319230
 C    5.110649    0.606718   -0.358340
 C    5.699823   -0.609214   -0.025696
 C    4.899129   -1.676963    0.384884
 O    6.069327    1.490711   -0.723744
 N    7.304289    0.872792   -0.640301
 C    7.089121   -0.343094   -0.235650
 C   -6.348993   -1.049006   -0.035627
 O    1.637349    0.024556    0.166932
 C    3.171982    2.212812   -0.679892
 C   -7.678753   -1.432419    0.078154
 C    8.223428   -1.304086   -0.044324
 C    0.756130   -0.953263    0.698731
 C   -8.717913   -0.501666    0.024827
 C    3.189779    3.217026    0.485946
 C   -8.394968    0.848875   -0.125266
 C   -7.076914    1.245602   -0.250090
 C    2.317444    2.804887    1.669864
 N   -2.416015    0.830034   -0.489425
 C   -2.391345    2.250455   -0.190967
 C   -3.554979    0.063992   -0.411265
 N   -4.731568    0.795056   -0.325925
 C   -0.615058   -0.310559    0.787540
 C   -1.150054    0.116109   -0.580752
 O  -10.497508   -2.143251   -0.121790
 C  -10.162051   -0.863031    0.157312
 O   -3.521493   -1.158777   -0.426765
 O  -11.012557   -0.077696    0.490139
 F    9.410032   -0.748181   -0.267845
 F    8.083709   -2.353627   -0.870978
 F    8.209307   -1.786409    1.210078
 C   -6.037109    0.304171   -0.210514
 H    2.891651   -2.283260    0.754909
 H    5.329486   -2.636829    0.647262
 H   -5.554335   -1.779248    0.007718
 H    2.144757    2.081010   -1.033999
 H    3.752090    2.627048   -1.511617
 H   -7.882886   -2.486911    0.251484
 H    1.098352   -1.266540    1.693334
 H    0.734734   -1.835949    0.044015
 H    2.853451    4.188074    0.102649
 H    4.225259    3.356364    0.819145
 H   -9.197117    1.578889   -0.143600
 H   -6.845681    2.300915   -0.376519
 H    1.276011    2.661038    1.359490
 H    2.662892    1.863467    2.109702
 H    2.338023    3.568741    2.453703
 H   -2.831667    2.851867   -0.998438
 H   -2.904226    2.482665    0.750507
 H   -1.352182    2.566996   -0.084080
 H   -4.671060    1.792261   -0.457629
 H   -0.550802    0.558697    1.453653
 H   -1.315726   -1.023959    1.233153
 H   -0.430322    0.766924   -1.084667
 H   -1.303980   -0.764362   -1.208199
 H   -9.751877   -2.601408   -0.530414
