65 
3irx_ligand_xtb.xyz
 C   -2.921784    3.658105   -0.936113
 C    0.258750    4.004389    2.621253
 C   -3.303126    0.261480   -3.123847
 C   -4.880498    1.024860    1.204975
 C    4.746914   -2.669081    1.876077
 C    4.063224    2.053244   -1.974453
 O   -2.112067    2.781338    1.660806
 O    6.564250    1.673617   -0.543270
 C    0.079274   -3.254323   -0.628550
 C   -1.412664   -0.794991   -1.875931
 C    2.612986   -2.261525    0.575260
 C   -0.464157    0.226772    0.053545
 C    2.345142   -0.426343   -0.977602
 C   -1.301731   -3.812647   -0.745125
 C   -1.862284   -4.174914    0.638398
 C   -2.062343   -2.942525    1.517405
 N   -4.565017   -1.014311   -0.181014
 N   -3.788471   -2.119943   -0.098080
 O   -3.089923    2.360829   -1.451571
 O   -3.336809   -0.846279    1.619646
 O    5.627173   -0.174425    0.383247
 S    0.467495    2.864139    1.229724
 C   -1.220643    2.339500    0.977433
 C    0.437545   -1.965060   -0.616280
 C   -2.284465    0.261593   -2.030644
 C   -4.287287   -0.274960    0.839273
 C    3.918009   -1.899626    0.897439
 C   -0.499323   -0.842506   -0.822932
 C    1.830072   -1.558165   -0.341509
 C   -3.070574   -2.004151    0.967504
 C   -1.320464    1.323289   -0.079920
 C   -2.242519    1.350555   -1.135214
 C    5.638954    0.919119   -0.425661
 C    3.631698   -0.050663   -0.659706
 C    4.403032   -0.776895    0.254168
 N    4.425675    0.998685   -1.070765
 H   -3.343020    3.759828    0.067806
 H   -1.866157    3.947527   -0.912161
 H   -3.460481    4.315772   -1.618912
 H    0.879041    3.663840    3.443926
 H    0.556907    4.999501    2.306974
 H   -0.795077    3.982683    2.892418
 H   -3.390852    1.249205   -3.569400
 H   -3.047805   -0.467087   -3.887846
 H   -4.270218   -0.003888   -2.697265
 H   -5.387416    1.438343    0.338909
 H   -5.598033    0.892841    2.014243
 H   -4.098829    1.699941    1.548095
 H    4.154035   -2.951296    2.743372
 H    5.122504   -3.580795    1.412101
 H    5.596350   -2.072242    2.196166
 H    4.914593    2.728519   -2.046797
 H    3.832276    1.646663   -2.960843
 H    3.194102    2.593456   -1.593577
 H    0.851778   -3.996720   -0.471627
 H   -1.426734   -1.590141   -2.605234
 H    2.185509   -3.113939    1.081101
 H    0.224103    0.209315    0.885796
 H    1.754949    0.130630   -1.686531
 H   -1.270707   -4.719284   -1.352623
 H   -1.994379   -3.110966   -1.199716
 H   -1.182275   -4.860598    1.148453
 H   -2.821937   -4.673504    0.502327
 H   -1.119679   -2.399215    1.630567
 H   -2.389196   -3.243444    2.517386
