63 
3is9_ligand_xtb.xyz
 C   -1.552176    0.126524    0.231824
 O   -2.808929    3.318470   -0.892563
 C   -2.327357    1.258304    0.069797
 O    5.893760   -0.361605    0.396013
 C   -1.988507    2.255954   -0.862479
 O   -5.525848   -2.352805   -0.385401
 C   -0.825418    2.059927   -1.628010
 C   -0.068782    0.892463   -1.468597
 O   -3.364111    1.210044    2.152232
 C   -0.422317   -0.086251   -0.556911
 C   -3.595600    1.355701    0.853393
 O    5.263373    1.754970    1.488598
 C    0.381415   -1.320376   -0.441993
 C   -0.159942   -2.539988   -0.533142
 C    4.611791   -0.660150    0.154039
 C    4.142521   -1.786465   -0.551121
 C    2.773036   -1.995197   -0.743123
 C    1.824531   -1.117783   -0.241060
 C    2.289424   -0.005500    0.455895
 C    3.640789    0.236026    0.652991
 C    3.961540    1.484787    1.397286
 C   -1.596264   -2.851842   -0.797174
 C   -2.232848   -3.585500    0.389773
 C   -3.737919   -3.759596    0.196736
 C   -4.486908   -2.464607    0.437900
 C   -6.374400   -1.217533   -0.221136
 C   -2.593229    4.374677   -1.799547
 C    6.942319   -1.179327   -0.069076
 C   -4.503966    1.116054    2.995969
 C    5.597273    2.952952    2.172469
 O   -4.686234    1.500447    0.360141
 O    3.106919    2.199469    1.866445
 O   -4.201974   -1.654005    1.282687
 N    0.169765    3.617155   -3.396597
 N    5.519802   -3.655287   -1.626421
 C   -0.322921    2.960663   -2.593913
 C    4.961303   -2.786057   -1.125939
 H   -1.845193   -0.594851    0.977928
 H    0.807493    0.763399   -2.088225
 H    0.474704   -3.407524   -0.408043
 H    2.469733   -2.859067   -1.316196
 H    1.595424    0.708690    0.874105
 H   -1.656276   -3.498278   -1.678656
 H   -2.156342   -1.940442   -1.008448
 H   -2.065307   -3.015587    1.305709
 H   -1.760965   -4.562333    0.508246
 H   -4.121004   -4.478310    0.926290
 H   -3.976827   -4.126731   -0.801273
 H   -6.972682   -1.330567    0.685072
 H   -5.790058   -0.298488   -0.151076
 H   -7.018557   -1.194705   -1.095860
 H   -1.642034    4.879515   -1.609997
 H   -2.620705    4.028687   -2.836150
 H   -3.413456    5.070616   -1.629364
 H    6.894794   -2.183502    0.360431
 H    6.947027   -1.250419   -1.159878
 H    7.855241   -0.687203    0.263946
 H   -4.155131    1.304140    4.008157
 H   -5.257168    1.849207    2.700859
 H   -4.921574    0.110970    2.914194
 H    5.162726    3.815069    1.661713
 H    5.216765    2.925961    3.195790
 H    6.682424    3.011619    2.167545
