63 
3is9_ligand_dft.xyz
 C   -1.507934    0.166779    0.253153
 O   -2.691893    3.403854   -0.979976
 C   -2.310416    1.295620    0.093453
 O    5.989489   -0.675250    0.387016
 C   -1.984823    2.254764   -0.869255
 O   -5.549256   -2.356722   -0.284342
 C   -0.844605    2.052929   -1.665237
 C   -0.067364    0.903821   -1.514897
 O   -3.300492    1.158136    2.203307
 C   -0.401595   -0.062762   -0.566815
 C   -3.543365    1.443201    0.926034
 O    5.331490    1.729784    1.441428
 C    0.414695   -1.303779   -0.443820
 C   -0.122368   -2.532832   -0.506971
 C    4.659328   -0.757952    0.148893
 C    4.171861   -1.798506   -0.660753
 C    2.802885   -1.965197   -0.873146
 C    1.879717   -1.119361   -0.259483
 C    2.372020   -0.089086    0.543900
 C    3.737084    0.112776    0.746611
 C    4.098165    1.258345    1.641917
 C   -1.559287   -2.880316   -0.759143
 C   -2.208459   -3.603521    0.431801
 C   -3.719138   -3.753709    0.257776
 C   -4.439921   -2.435751    0.451017
 C   -6.321822   -1.160893   -0.119946
 C   -3.680743    3.418665   -2.010944
 C    6.754766   -0.005828   -0.613264
 C   -4.451493    1.088691    3.045939
 C    5.703796    2.830817    2.272281
 O   -4.630834    1.754823    0.491693
 O    3.324074    1.734301    2.440641
 O   -4.072354   -1.560410    1.206231
 N   -0.178669    3.824856   -3.438655
 N    5.834793   -3.434788   -1.795298
 C   -0.479869    3.043110   -2.637791
 C    5.100541   -2.702225   -1.278055
 H   -1.777192   -0.553408    1.018646
 H    0.804193    0.768445   -2.147955
 H    0.541818   -3.384226   -0.356298
 H    2.464893   -2.759436   -1.530988
 H    1.685778    0.586484    1.044937
 H   -1.614312   -3.537037   -1.638897
 H   -2.131436   -1.980120   -1.004377
 H   -2.015951   -3.046986    1.354622
 H   -1.753897   -4.593143    0.553120
 H   -4.121823   -4.442901    1.010809
 H   -3.978723   -4.168391   -0.721014
 H   -6.728524   -1.111658    0.893580
 H   -5.712391   -0.273449   -0.300291
 H   -7.129157   -1.236093   -0.847256
 H   -3.223078    3.255972   -2.993349
 H   -4.443518    2.662927   -1.805736
 H   -4.124858    4.413409   -1.979958
 H    6.689310   -0.528426   -1.573926
 H    6.419715    1.030279   -0.718907
 H    7.785991   -0.026337   -0.261161
 H   -5.005014    2.029674    3.017459
 H   -5.091082    0.267210    2.716585
 H   -4.067373    0.897397    4.047024
 H    5.040924    3.681829    2.099297
 H    5.654569    2.547199    3.325900
 H    6.726545    3.075385    1.988298
