22 
3iu7_ligand_xtb.xyz
 O   -1.253923    0.499894   -0.066008
 C   -2.372731   -0.251962    0.099809
 C   -3.689189    0.343798   -0.165590
 O   -3.653368    1.620194   -0.590932
 C   -2.027776   -1.517040    0.506951
 C   -0.625150   -1.538335    0.584835
 C   -0.190321   -0.283323    0.222385
 O   -4.722800   -0.248864   -0.018868
 C    1.126659    0.328486    0.146725
 C    1.232683    1.712852    0.315659
 C    2.452964    2.353660    0.259251
 C    3.606955    1.621890    0.029505
 C    3.528628    0.253002   -0.151679
 C    2.301901   -0.389018   -0.097071
Cl    2.271936   -2.089616   -0.387314
 H   -2.743783    1.942688   -0.667031
 H   -2.708337   -2.315515    0.717100
 H   -0.020621   -2.365903    0.890044
 H    0.333609    2.278913    0.505677
 H    2.504755    3.422642    0.396794
 H    4.566452    2.113441   -0.013397
 H    4.417998   -0.326653   -0.343064
