24 
3iu9_ligand_dft.xyz
 S  -10.369255   44.002008   -4.627513
 C  -10.269277   49.419478   -4.063028
 N   -7.978088   43.174787   -3.507112
Cl   -8.971095   47.703381   -7.416966
 C   -9.613024   47.921138   -5.799240
 N   -8.089829   44.016105   -1.483755
Cl  -10.471202   51.049410   -3.470707
 C   -9.945998   46.805560   -5.022035
 N   -6.096541   42.793756   -2.042909
 C   -9.744318   45.418528   -5.596515
 N   -9.221757   44.385890   -2.166788
 C   -9.768727   49.223549   -5.343587
 C  -10.440621   47.049912   -3.740884
 C  -10.603831   48.342232   -3.254998
 C   -7.357436   43.299487   -2.303796
 C   -9.153413   43.880901   -3.368602
 H   -7.637495   42.720897   -4.340121
 H   -5.825672   43.016147   -1.092152
 H   -6.005368   41.799176   -2.213283
 H   -8.684671   45.252811   -5.815378
 H  -10.269411   45.333807   -6.553745
 H   -9.504916   50.063420   -5.974970
 H  -10.685207   46.215877   -3.092732
 H  -10.983846   48.505742   -2.253184
