42 
3iuc_ligand_xtb.xyz
 P    0.460700   -2.073027   -0.903129
 O    0.981158   -3.002081   -2.067773
 O    1.103606   -2.721469    0.352685
 O    0.626347   -0.638210   -1.124614
 P   -2.102054   -1.886996    0.201918
 O   -3.431309   -2.717436   -0.061651
 O   -1.644230   -1.917963    1.586471
 O   -1.108123   -2.506278   -0.870542
 O   -2.427450   -0.467166   -0.423322
 C   -3.315245    0.360089    0.324295
 C   -2.744977    1.767975    0.514316
 O   -1.661656    1.743641    1.436828
 C   -2.236066    2.417623   -0.783309
 O   -2.598363    3.769320   -0.815520
 C   -0.712633    2.242916   -0.690014
 O   -0.056376    3.318779   -1.291483
 C   -0.476451    2.174812    0.839672
 N    0.603851    1.264689    1.130173
 C    0.577933    0.111760    1.842695
 N    1.681162   -0.581980    1.752776
 C    2.498504    0.150405    0.923966
 C    3.771810   -0.058692    0.369382
 N    4.537789   -1.125058    0.664333
 N    4.253010    0.862060   -0.471161
 C    3.516796    1.916628   -0.766564
 N    2.305086    2.219272   -0.331919
 C    1.821870    1.307411    0.515014
 H    0.912108   -2.558926   -2.912498
 H    1.320260   -2.043390    1.056301
 H   -3.472120   -3.488142    0.504149
 H   -4.263189    0.417129   -0.217023
 H   -3.479412   -0.077847    1.312315
 H   -3.534100    2.397572    0.945344
 H   -2.639981    1.897739   -1.661387
 H   -1.844226    4.247686   -1.194310
 H   -0.417895    1.283018   -1.130242
 H    0.904272    3.167735   -1.168214
 H   -0.198803    3.175053    1.219851
 H   -0.278277   -0.189857    2.410648
 H    5.381043   -1.260491    0.134749
 H    4.127871   -1.893785    1.163989
 H    3.958398    2.619316   -1.460284
