64 
3iut_ligand_dft.xyz
 C    6.629190   -1.940313   -1.415790
 N    6.577922   -1.042607   -0.461347
 C    5.347296   -0.677210   -0.007475
 C    4.142612   -1.223912   -0.526151
 C    4.248394   -2.192832   -1.557379
 C    5.490135   -2.551121   -2.001981
 C    2.903363   -0.787815   -0.000851
 C    2.863089    0.151915    1.004725
 C    4.067617    0.694115    1.522521
 C    5.279389    0.288822    1.029234
 C    1.538608    0.652928    1.503896
 N    1.065456    1.759005    0.588500
 C   -0.365585    2.258549    0.734964
 C   -1.201819    1.179846    0.097280
 N   -0.640064    0.299869   -0.771889
 N   -1.556643   -0.497631   -1.231178
 N   -2.713505   -0.130805   -0.672738
 C   -2.545823    0.909278    0.174836
 C   -3.923150   -0.886572   -0.973318
 C   -5.040886    0.050202   -1.461332
 O   -5.114975    1.184294   -1.046012
 C   -6.019410   -0.542150   -2.438926
 C   -4.398655   -1.676602    0.259112
 C   -3.351290   -2.655659    0.788281
 C   -3.847779   -3.440822    2.003253
 C   -2.801303   -4.416171    2.537853
 C   -0.484092    3.599069   -0.055807
 C   -0.028862    3.477418   -1.515620
 C    0.216439    4.777747    0.631399
 C   -0.711708    2.430967    2.213360
 H    7.622556   -2.216593   -1.763094
 H    3.348595   -2.634351   -1.977026
 H    5.619434   -3.288439   -2.786619
 H    1.980416   -1.202206   -0.403389
 H    4.027059    1.424555    2.327476
 H    6.213527    0.683048    1.414396
 H    0.766807   -0.116916    1.474301
 H    1.601582    1.068043    2.510773
 H    1.718275    2.544079    0.659133
 H    1.141572    1.381736   -0.367575
 H   -3.370082    1.364606    0.697531
 H   -3.631991   -1.579079   -1.768051
 H   -5.550222   -0.570378   -3.430230
 H   -6.280336   -1.572804   -2.177869
 H   -6.917724    0.074137   -2.488366
 H   -4.689737   -0.964882    1.042328
 H   -5.308963   -2.221909   -0.017195
 H   -2.437600   -2.109186    1.059178
 H   -3.066090   -3.352395   -0.010992
 H   -4.758478   -3.990349    1.733128
 H   -4.136537   -2.737481    2.795234
 H   -1.889408   -3.889721    2.842537
 H   -2.523007   -5.152577    1.776261
 H   -3.178887   -4.960719    3.407891
 H   -1.561156    3.806129   -0.060074
 H   -0.311503    4.381927   -2.059965
 H   -0.483945    2.625013   -2.026557
 H    1.062110    3.391170   -1.604599
 H    1.297448    4.620033    0.751845
 H    0.105764    5.673888    0.015204
 H   -0.204386    5.003863    1.613946
 H   -0.790035    1.468422    2.723855
 H    0.019894    3.052456    2.736886
 H   -1.681931    2.929623    2.291848
