73 
3ivh_ligand_xtb.xyz
 C   -1.050713   -1.620453    1.828755
 C   -0.239502   -2.803993   -1.185633
 C   -1.707644   -0.664555   -1.000467
 C   -4.147441   -0.476325   -1.554309
 C   -4.686833    0.748262    0.849123
 C    1.006254   -1.916341   -1.346013
 C    2.975966   -0.961036   -0.045662
 C    4.065030   -1.764257   -0.764730
 C    5.436853   -1.098709   -0.621291
 C    2.651797    0.387118   -0.672597
 C    1.963809    2.864380   -1.749869
 C    1.858291    1.286963    0.030848
 F   -4.930106    1.329518    2.032311
 C   -3.383221    0.395627    0.544086
 C   -5.739672    0.507943   -0.013880
 C   -5.437540   -0.105200   -1.217250
 F   -6.425837   -0.359736   -2.082728
 C   -3.108335   -0.220695   -0.668807
 C   -1.528501   -2.138314   -0.591072
 N   -1.661887   -2.310745    0.851451
 O   -0.098706   -0.868310    1.625586
 C   -1.606156   -1.848131    3.202802
 O    0.171083   -3.901970   -0.399686
 N    1.687111   -1.753853   -0.054969
 C    5.810503   -0.922728    0.845345
 C    4.726000   -0.130124    1.564750
 C    3.385296   -0.848337    1.430878
 C    3.071705    0.736919   -1.951679
 C    1.508710    2.533571   -0.479567
 C    2.729304    1.969622   -2.475804
 C    0.672105    3.472703    0.373780
 C   -0.646712    2.781623    0.748500
 C    0.338547    4.780422   -0.347092
 C    1.461941    3.809618    1.646768
 H   -0.510731   -3.131128   -2.199353
 H   -1.542659   -0.580200   -2.074759
 H   -0.989986   -0.036114   -0.475061
 H   -3.967496   -0.947455   -2.507793
 H    0.754747   -0.937594   -1.751481
 H    1.680418   -2.422569   -2.039600
 H    4.114905   -2.758885   -0.312342
 H    3.834848   -1.894741   -1.822135
 H    5.425934   -0.120686   -1.102559
 H    6.182400   -1.713983   -1.126094
 H    1.728213    3.818126   -2.189839
 H    1.499639    1.019953    1.010717
 H   -2.600088    0.624236    1.248380
 H   -6.748780    0.790416    0.235241
 H   -2.370342   -2.697129   -1.014100
 H   -2.429821   -2.893853    1.145903
 H   -2.620632   -1.457571    3.263944
 H   -1.633157   -2.910221    3.435741
 H   -0.988901   -1.335067    3.935042
 H   -0.440581   -4.638143   -0.498195
 H    0.992515   -1.285425    0.615376
 H    1.855651   -2.696642    0.314053
 H    5.925661   -1.899896    1.319441
 H    6.764753   -0.402372    0.920048
 H    4.975942   -0.023591    2.620297
 H    4.648871    0.868902    1.132571
 H    3.486021   -1.854619    1.846622
 H    2.623747   -0.327629    2.009236
 H    3.665942    0.069248   -2.552641
 H    3.067913    2.236889   -3.465064
 H   -1.213688    2.538387   -0.148925
 H   -1.249869    3.445892    1.362137
 H   -0.469322    1.870134    1.313902
 H    1.240846    5.335594   -0.590483
 H   -0.225992    4.595500   -1.258270
 H   -0.270257    5.404930    0.302178
 H    2.414810    4.266359    1.389243
 H    0.899469    4.511434    2.257129
 H    1.657911    2.922459    2.243199
