61 
3iw6_ligand_xtb.xyz
 C    8.004595   -0.608735   -0.725615
 C    4.542833    1.812737   -1.934588
 C    1.760131   -2.040106    1.130658
 C    1.796773    3.023833    0.346278
 O    4.371042   -2.382686    0.085350
 O   -0.463561    1.615520    1.864635
 C   -8.180418   -0.438288    0.120465
 C   -7.643838    0.837593    0.161634
 C   -7.457506   -1.476744   -0.444469
 C   -6.382272    1.077436   -0.356058
 C   -6.198981   -1.238820   -0.966674
 C    6.801455   -1.455099   -0.357452
 C    4.456414    1.916096   -0.413870
 C   -1.894885   -0.360539   -1.210600
 C   -3.183169    0.340773    0.727348
 C   -0.899665   -1.073815   -0.280137
 C   -2.182311   -0.388703    1.623276
 C   -4.275215    0.277858   -1.483418
 O    5.684594   -0.584246   -0.153439
 C    4.503289   -1.179484    0.064493
 C   -0.028289    0.654529    1.259001
 C   -5.653922    0.041072   -0.926352
 C    2.131061   -0.661836    0.712889
 C    2.158281    1.585824    0.421559
 C    1.339261    0.513990    0.790874
 C    3.386008   -0.260978    0.276134
 N   -3.242394   -0.331698   -0.594794
 N   -0.877369   -0.434305    1.007477
 N    3.375215    1.109222    0.103884
 H    7.805826   -0.041649   -1.631390
 H    8.238363    0.085381    0.077238
 H    8.861592   -1.253519   -0.893787
 H    4.755416    0.789467   -2.231478
 H    3.608518    2.123388   -2.397658
 H    5.340893    2.451946   -2.300102
 H    0.840843   -2.037349    1.709164
 H    1.650666   -2.694912    0.267134
 H    2.562562   -2.463004    1.730434
 H    1.904501    3.411717   -0.666551
 H    0.771035    3.153889    0.677374
 H    2.432948    3.611763    1.006965
 H   -9.164083   -0.623283    0.521692
 H   -8.206782    1.648684    0.595395
 H   -7.876381   -2.469787   -0.485335
 H   -5.969652    2.075091   -0.328009
 H   -5.649701   -2.049487   -1.426935
 H    6.977195   -2.022208    0.562847
 H    6.551357   -2.167177   -1.151426
 H    4.281299    2.951475   -0.119066
 H    5.391743    1.578043    0.031539
 H   -1.947100   -0.872104   -2.173255
 H   -1.575764    0.671878   -1.371639
 H   -2.848375    1.370048    0.582316
 H   -4.179941    0.344306    1.170498
 H    0.093632   -1.033001   -0.725531
 H   -1.185252   -2.125319   -0.161774
 H   -2.516149   -1.411769    1.825882
 H   -2.091525    0.152452    2.566894
 H   -4.065799    1.345551   -1.568576
 H   -4.182922   -0.179677   -2.471881
 H   -3.531512   -1.303638   -0.421568
