19 
3ixg_ligand_xtb.xyz
 B    2.798671    0.226184    0.000370
 O    3.366967    1.458859   -0.001529
 O    3.497623   -0.934108    0.000190
 C    1.242672    0.147371    0.001155
 C    0.352676    1.176510    0.001848
 C   -1.130458   -0.634574    0.000314
 C   -1.009281    0.769784    0.000798
 C   -2.373469   -1.252869    0.000129
 S    0.429536   -1.402354   -0.000380
 C   -2.168958    1.550111   -0.000145
 C   -3.501112   -0.459586   -0.000545
 C   -3.398389    0.933214   -0.000861
 H    4.324212    1.496112   -0.002418
 H    4.453384   -0.878775   -0.000384
 H    0.667521    2.204757    0.003360
 H   -2.445853   -2.329301    0.001014
 H   -2.086416    2.626915   -0.000473
 H   -4.478068   -0.919457   -0.000984
 H   -4.299510    1.528718   -0.001323
