19 
3ixg_ligand_dft.xyz
 B    2.805517    0.227108   -0.000093
 O    3.354962    1.482360    0.000254
 O    3.519721   -0.940846   -0.000337
 C    1.252484    0.130524   -0.000013
 C    0.372135    1.168833   -0.000054
 C   -1.133585   -0.639408    0.000026
 C   -1.006199    0.765053   -0.000026
 C   -2.389682   -1.255247    0.000025
 S    0.426224   -1.414729    0.000167
 C   -2.166336    1.558095   -0.000065
 C   -3.516639   -0.452269   -0.000031
 C   -3.406509    0.949499   -0.000071
 H    4.316846    1.504490    0.000421
 H    4.476542   -0.839951   -0.000426
 H    0.694083    2.204745   -0.000113
 H   -2.478634   -2.337233    0.000080
 H   -2.080040    2.641074   -0.000125
 H   -4.500517   -0.911807   -0.000020
 H   -4.306935    1.556194   -0.000115
