23 
3jdw_ligand_dft.xyz
 N    2.152298    1.595592   -0.015842
 C    1.109368    0.565327    0.367330
 C   -0.241503    0.891439   -0.286330
 C   -1.402441    0.095044    0.339690
 C   -2.713245    0.403460   -0.382230
 N   -3.838111   -0.448064    0.164166
 C    1.641569   -0.833264    0.007664
 O    0.922290   -1.764662   -0.212970
 O    2.973782   -0.839203    0.013774
 H    3.078808    1.305392    0.327297
 H    2.237115    1.697504   -1.034702
 H    1.941025    2.522022    0.372503
 H    1.039306    0.620538    1.459781
 H   -0.438041    1.964967   -0.172002
 H   -0.180349    0.678377   -1.360217
 H   -1.493034    0.350621    1.402841
 H   -1.176833   -0.972515    0.263931
 H   -2.654439    0.177211   -1.449384
 H   -3.027869    1.442316   -0.259011
 H   -3.999960   -0.278914    1.164005
 H   -3.646128   -1.450877    0.051815
 H   -4.723265   -0.254293   -0.320532
 H    3.313291   -1.736166   -0.167773
