32 
3jq7_ligand_dft.xyz
 C   -2.625619    1.311726   -0.030072
 C    0.836401    0.311788   -0.094332
 C    0.660161   -1.123063   -0.026497
 N   -2.837913   -1.451080    0.065806
 N   -5.104874   -1.135971    0.042462
 N   -3.824715    0.761187    0.006032
 C    2.889597    0.884197    1.196031
 C    4.064664    0.271132    1.369820
 C    4.769386   -0.360079    0.246989
 C    4.304827   -0.252384   -1.002771
 C    3.083694    0.557586   -1.350786
 C    2.195068    0.993458   -0.146462
 N   -0.219794    1.087868   -0.091462
 C   -1.437235    0.509873   -0.035895
 N   -2.511666    2.654662   -0.047083
 C   -3.853894   -0.598155    0.046236
 C   -1.612836   -0.887710    0.018123
 N   -0.528529   -1.695791    0.030049
 N    1.736586   -1.959144   -0.071497
 H   -5.874217   -0.524821    0.261141
 H   -5.181076   -2.113109    0.274106
 H    2.363180    1.322184    2.040395
 H    4.510674    0.212624    2.358677
 H    5.673201   -0.926243    0.453516
 H    4.825068   -0.733948   -1.826986
 H    2.476581    0.000236   -2.073570
 H    3.423750    1.455861   -1.882561
 H    1.936572    2.048254   -0.284439
 H   -3.341712    3.213265   -0.156011
 H   -1.598147    3.060706   -0.171445
 H    2.651562   -1.630782    0.199418
 H    1.525609   -2.926560    0.125306
