29 
3jq9_ligand_dft.xyz
 C    2.107234   -1.044585   -0.000310
 C    3.461024   -0.886923   -0.000202
 O    4.430288   -1.842016   -0.000393
 C    5.674876   -1.157507   -0.000559
 O    5.397756    0.247969    0.000392
 C    4.060424    0.378384    0.000315
 C    3.320620    1.543946    0.000729
 C    1.934103    1.406714    0.000589
 C    1.317568    0.141363    0.000075
 C   -0.111769   -0.017066   -0.000017
 N   -0.657504   -1.225190   -0.000261
 C   -1.993820   -0.995058   -0.000247
 N   -2.948208   -1.866823   -0.000048
 C   -4.359082   -1.451280    0.000370
 N   -5.097065   -2.503530    0.001057
 N   -4.695849   -0.160031    0.000122
 C   -3.794486    0.850504   -0.000529
 O   -4.046044    2.046465   -0.001400
 C   -2.356636    0.426334   -0.000200
 C   -1.171871    1.066659    0.000019
 C   -0.987482    2.477084    0.000211
 N   -0.779987    3.617686    0.000387
 H    1.635018   -2.018503   -0.000672
 H    6.236640   -1.408302   -0.904499
 H    6.237430   -1.409381    0.902572
 H    3.796674    2.516591    0.001146
 H    1.336401    2.308231    0.000881
 H   -2.779239   -2.868785    0.000049
 H   -6.072854   -2.205392    0.001476
