16 
3jqa_ligand_xtb.xyz
 C    0.827966   -1.121211    0.002965
 C    0.757085    0.302048   -0.008864
 C   -0.503111    0.870775   -0.002418
 C    2.819326   -0.395535    0.000552
 N   -1.571435    0.099857    0.004815
 N   -2.534275   -1.972859   -0.049508
 N   -0.249172   -1.892133    0.010088
 C   -1.403049   -1.236038    0.001338
 N    2.136809   -1.500863    0.009952
 N    2.059174    0.729917   -0.010718
 S   -0.762473    2.616758    0.004504
 H    3.891814   -0.360441    0.002424
 H   -3.409990   -1.514543    0.124385
 H   -2.445883   -2.961010    0.104145
 H   -2.085294    2.513517    0.003923
 H    2.371915    1.686678   -0.020793
