31 
3jqb_ligand_xtb.xyz
 C    3.955104   -0.989687   -0.556981
 C    5.257446   -0.609923   -0.283723
 C    5.525896    0.670857    0.168517
 C    4.487601    1.572382    0.343261
 C    3.187091    1.193297    0.069269
 C    2.909660   -0.090383   -0.389793
 C    1.491409   -0.489348   -0.658925
 C    0.792712   -0.868382    0.671439
 C   -0.635275   -1.144708    0.439439
 C   -1.281132   -2.452962    0.336290
 N   -2.555853   -2.390001    0.064348
 C   -2.837158   -1.044750    0.022285
 N   -4.006694   -0.477362   -0.101653
 C   -1.639882   -0.253347    0.166489
 C   -1.723945    1.225034    0.120004
 O   -0.731678    1.917723    0.245878
 N   -2.980088    1.675562   -0.034040
 C   -4.072109    0.952805   -0.176353
 N   -5.266429    1.369717   -0.391947
 H    3.749357   -1.990135   -0.911875
 H    6.064120   -1.315075   -0.422809
 H    6.542011    0.966235    0.384751
 H    4.694276    2.572664    0.694080
 H    2.374191    1.892347    0.202606
 H    1.450783   -1.338630   -1.343812
 H    0.946601    0.348814   -1.095010
 H    0.880950   -0.004950    1.335203
 H    1.291083   -1.728992    1.120616
 H   -0.780889   -3.402363    0.405621
 H   -4.865161   -0.991669   -0.270771
 H   -5.334962    2.379243   -0.449899
