60 
3juk_ligand_dft.xyz
 N    5.455469    0.861572   -0.053426
 C    6.623676    1.122465    0.636631
 N    6.849523    2.444925    0.914701
 C    6.045318    3.553510    0.580207
 C    4.855140    3.174358   -0.163031
 C    4.619246    1.880914   -0.450848
 O    7.401529    0.238513    0.980129
 O    6.379741    4.672194    0.908861
 C    5.214253   -0.555252   -0.430271
 C    5.049437   -1.484718    0.797655
 O    6.194413   -2.212202    1.126367
 C    3.966690   -2.456522    0.310826
 C    3.118361   -1.568330   -0.586078
 O    4.033943   -0.627783   -1.170629
 O    4.552936   -3.455627   -0.480781
 C    2.041060   -0.772897    0.147040
 O    1.061808   -1.648735    0.712163
 P   -0.314509   -1.955785   -0.013931
 O   -1.203679   -2.852623    0.721302
 O    0.119576   -2.318645   -1.500707
 O   -0.920623   -0.417409   -0.180110
 P   -2.032016   -0.046338   -1.269133
 O   -1.707691    1.475344   -1.544238
 O   -2.046010   -0.979648   -2.420438
 O   -3.386936   -0.031876   -0.417741
 C   -4.666252   -0.130704   -1.059583
 C   -5.235902    1.278189   -1.242050
 C   -5.507981    1.908884    0.108841
 C   -6.411645    1.009503    0.937070
 C   -5.783489   -0.390238    1.025452
 C   -6.720626   -1.420924    1.638841
 O   -4.331086    2.075277   -1.995929
 O   -6.084964    3.172181   -0.146880
 O   -6.540450    1.632554    2.191447
 O   -5.508352   -0.898308   -0.282781
 O   -7.119362   -0.933199    2.911091
 H    7.698937    2.642710    1.429169
 H    4.178665    3.954146   -0.483673
 H    3.760486    1.551342   -1.019336
 H    6.063355   -0.881461   -1.040050
 H    4.684580   -0.893026    1.650501
 H    6.913657   -1.559892    1.204310
 H    3.384574   -2.879646    1.139787
 H    2.672668   -2.146448   -1.397095
 H    5.414691   -3.639579   -0.074686
 H    1.578928   -0.059327   -0.541507
 H    2.463239   -0.213905    0.987343
 H   -0.607764   -2.116612   -2.134820
 H   -2.557819    1.934062   -1.748296
 H   -4.552502   -0.650216   -2.013619
 H   -6.180227    1.181817   -1.793239
 H   -4.555677    2.023240    0.647458
 H   -7.387737    0.925832    0.428880
 H   -4.857980   -0.332393    1.610625
 H   -6.197228   -2.380891    1.721680
 H   -7.583985   -1.548940    0.970512
 H   -4.661728    2.983931   -1.925068
 H   -6.310933    3.554420    0.712018
 H   -6.977674    0.994814    2.778512
 H   -7.721655   -1.567105    3.314422
