64 
3jwq_ligand_xtb.xyz
 C   -0.966932    4.524120    0.623311
 C    0.297600    3.677380    0.704395
 C    1.193424    3.891771   -0.518954
 C    2.409606    3.038496   -0.445974
 N    3.632714    3.538984   -0.423867
 N    4.499245    2.534805   -0.344522
 C    5.914955    2.764812   -0.311973
 C    3.861569    1.348572   -0.311703
 C    4.341036   -0.004185   -0.204444
 O    5.482343   -0.403432   -0.113421
 N    3.265028   -0.892550   -0.206661
 C    1.942486   -0.550630   -0.277169
 N    1.520373    0.672453   -0.357894
 C    2.483215    1.628550   -0.375289
 C    0.906561   -1.591017   -0.246566
 C   -0.332268   -1.243801   -0.773851
 C   -1.410404   -2.095255   -0.665065
 C   -1.278766   -3.336094   -0.070506
 C   -0.041960   -3.727102    0.405955
 C    1.063730   -2.873654    0.331826
 O    2.282743   -3.194525    0.791865
 C    2.530895   -4.458564    1.403910
 C    3.998112   -4.482938    1.799811
 S   -2.987864   -1.571885   -1.277474
 O   -2.855933   -0.692588   -2.401506
 O   -3.905643   -2.661072   -1.344236
 N   -3.585864   -0.560294    0.018430
 C   -4.991626   -0.317611   -0.249625
 C   -5.591992    0.552873    0.844932
 N   -4.862836    1.845403    0.891131
 C   -5.454883    2.794125    1.845794
 C   -3.430105    1.582393    1.171622
 C   -2.847886    0.684325    0.085936
 H   -0.707908    5.574971    0.523055
 H   -1.564410    4.241718   -0.242627
 H   -1.564295    4.413754    1.528323
 H    0.042582    2.616721    0.770406
 H    0.854731    3.946248    1.603388
 H    1.507174    4.933695   -0.582238
 H    0.633933    3.637947   -1.423141
 H    6.229380    3.275723   -1.222753
 H    6.168783    3.392285    0.543033
 H    6.418511    1.803318   -0.232032
 H    3.505937   -1.872113   -0.106956
 H   -0.426852   -0.298897   -1.282464
 H   -2.136615   -3.985110   -0.008270
 H    0.061954   -4.705433    0.845375
 H    2.310756   -5.263514    0.692817
 H    1.891973   -4.571903    2.287704
 H    4.630530   -4.385701    0.921533
 H    4.217928   -3.662997    2.478150
 H    4.227013   -5.421747    2.294300
 H   -5.481874   -1.291128   -0.280981
 H   -5.123822    0.160869   -1.233769
 H   -5.483548    0.063638    1.814112
 H   -6.648802    0.736012    0.645825
 H   -4.913316    2.249594   -0.053214
 H   -6.497112    2.982906    1.594648
 H   -5.405850    2.381533    2.851943
 H   -4.912694    3.737997    1.825772
 H   -3.359708    1.086682    2.141199
 H   -2.882994    2.526219    1.204437
 H   -2.860568    1.197362   -0.888997
 H   -1.811907    0.451457    0.334822
