79 
3jzg_ligand_xtb.xyz
 N    6.478658   -1.792989   -0.825262
 C    5.152191   -2.253693   -1.233307
 C    4.230948   -2.211709   -0.005643
 O    4.622666   -2.531466    1.097953
 C    5.141537   -3.694142   -1.760106
 N    2.981148   -1.793826   -0.281830
 C    1.787998   -1.935257    0.531489
 C    0.705462   -1.132520   -0.193051
 O    0.938738   -0.586203   -1.261947
 C    1.940864   -1.569489    2.019550
 C    1.923797   -0.084061    2.397212
 C    3.255738    0.640413    2.192178
 N    3.423037    1.053488    0.816995
 C    4.472879    0.824524    0.038269
 N    4.353042    1.085173   -1.269254
 N    5.632780    0.363669    0.495672
 N   -0.498906   -1.083444    0.391815
 C   -1.644999   -0.442472   -0.235734
 C   -2.940863   -1.050037    0.300708
 C   -4.155542   -0.616501   -0.520913
 C   -5.459154   -1.125329    0.104099
 C   -6.646544   -0.602963   -0.702620
 N   -8.006322   -0.927290   -0.173274
 C   -1.615739    1.088336    0.001859
 O   -2.495878    1.673004    0.597716
 C   -8.211613   -0.326579    1.157718
 C   -8.206070   -2.385446   -0.088442
 C   -9.005484   -0.364364   -1.103898
 N   -0.532883    1.678108   -0.525561
 C   -0.292482    3.100036   -0.444558
 C    0.991212    3.430871   -1.185196
 O    1.880856    2.634339   -1.368002
 C   -0.109503    3.577371    1.011395
 O    1.055499    2.968462    1.533930
 O    1.033001    4.689737   -1.556855
 H    6.195863   -0.275402   -0.115482
 H    6.780302   -2.353027   -0.029787
 H    7.151743   -1.933517   -1.572283
 H    4.782178   -1.575306   -2.010127
 H    5.473209   -4.377950   -0.981287
 H    4.140772   -3.981272   -2.072317
 H    5.808475   -3.786592   -2.614621
 H    2.758285   -1.482557   -1.221584
 H    1.477783   -2.993766    0.501741
 H    2.871928   -2.022106    2.363346
 H    1.131243   -2.065526    2.558412
 H    1.143033    0.455438    1.859022
 H    1.689935   -0.029275    3.461364
 H    4.065910   -0.029035    2.483872
 H    3.289295    1.526040    2.834354
 H    2.636041    1.552898    0.416602
 H    3.522463    1.555274   -1.601516
 H    5.177567    1.096091   -1.844663
 H    5.698726    0.131285    1.474219
 H   -0.640915   -1.498874    1.298870
 H   -1.555955   -0.607773   -1.316967
 H   -3.073574   -0.714562    1.331460
 H   -2.856568   -2.138528    0.291115
 H   -4.060801   -0.992440   -1.541011
 H   -4.175685    0.472519   -0.555096
 H   -5.441795   -2.215563    0.115047
 H   -5.500058   -0.765008    1.131751
 H   -6.585245   -1.002538   -1.717523
 H   -6.570582    0.485115   -0.763869
 H   -8.020330    0.744335    1.121613
 H   -7.547510   -0.779390    1.889760
 H   -9.238095   -0.486285    1.482999
 H   -8.016043   -2.848770   -1.054916
 H   -9.231223   -2.603985    0.205489
 H   -7.538068   -2.820192    0.651128
 H   -8.891499   -0.801515   -2.094254
 H   -8.885123    0.714632   -1.182330
 H  -10.012222   -0.575070   -0.747424
 H    0.159874    1.118606   -1.020236
 H   -1.129157    3.661096   -0.875976
 H   -0.997398    3.287397    1.583395
 H   -0.018254    4.669473    1.010080
 H    1.186148    3.287971    2.433055
 H    1.864586    4.932513   -1.998960
