88 
3jzj_ligand_xtb.xyz
 C   -5.218984   -0.062388   -0.634814
 C   -4.612318    1.259112   -1.182419
 C   -5.723317    2.178893   -1.694613
 C   -6.695430    2.516858   -0.547507
 C   -7.207208    1.257445    0.114157
 C   -8.500630    1.419236    0.863491
 C   -6.519305    0.125231    0.085557
 O   -3.822609    1.853109   -0.181376
 O   -6.370971    1.497158   -2.733895
 O   -6.008714    3.320095    0.394259
 O   -8.391325    2.578757    1.668124
 C   -0.809046   -3.033120   -0.177377
 C   -1.546108   -2.672442   -1.476230
 C   -2.457713   -1.456555   -1.214230
 C   -3.392850   -1.768543   -0.042940
 C   -2.560426   -2.220736    1.182208
 C   -3.428651   -2.666339    2.354354
 N   -4.208641   -0.589977    0.336710
 O   -0.699170   -2.350783   -2.537403
 O   -3.212581   -1.173844   -2.364422
 O   -1.748253   -3.321867    0.829759
 C    4.067973   -1.324752    0.761620
 C    3.715145   -2.355016   -0.324092
 C    2.250047   -2.150441   -0.718964
 C    1.364335   -2.289670    0.522145
 C    1.843763   -1.307607    1.601100
 C    1.111045   -1.529819    2.930562
 O    4.499492   -2.235733   -1.476975
 O    1.851165   -3.097078   -1.689867
 O    0.019323   -1.970854    0.201302
 O    3.227734   -1.472187    1.873056
 O    1.227984   -0.435372    3.791113
 C    6.628461    3.098716   -0.416564
 C    7.250054    1.693086   -0.448581
 C    6.131426    0.660899   -0.649041
 C    5.074719    0.826492    0.450458
 C    4.562436    2.272849    0.429559
 C    3.603081    2.553314    1.592501
 O    6.151650    3.353804   -1.705701
 O    8.215437    1.566720   -1.452528
 O    6.665530   -0.647609   -0.616442
 O    3.973926   -0.031954    0.220706
 O    5.634113    3.200117    0.561504
 O    3.016924    3.817834    1.489931
 H   -5.338473   -0.764165   -1.462946
 H   -3.953503    1.004008   -2.018459
 H   -5.262407    3.114889   -2.040654
 H   -7.550112    3.074054   -0.960556
 H   -8.701510    0.532130    1.476870
 H   -9.317563    1.531976    0.135850
 H   -6.909499   -0.758192    0.575186
 H   -4.365665    2.525454    0.275643
 H   -6.924491    2.107109   -3.234028
 H   -6.627846    3.508530    1.116346
 H   -9.227698    2.737953    2.117289
 H   -0.240245   -3.959218   -0.316718
 H   -2.181138   -3.530570   -1.754198
 H   -1.811942   -0.601429   -0.957075
 H   -4.072878   -2.572939   -0.345237
 H   -1.910508   -1.383850    1.483288
 H   -2.795837   -3.193603    3.062329
 H   -3.876535   -1.823154    2.874252
 H   -4.198107   -3.358083    2.022137
 H   -4.675559   -0.806997    1.222647
 H   -3.608276    0.271825    0.481587
 H    0.219065   -2.604424   -2.320117
 H   -2.629674   -1.315889   -3.123681
 H    5.078611   -1.519600    1.140529
 H    3.833120   -3.361918    0.111067
 H    2.140799   -1.133904   -1.124433
 H    1.430126   -3.317193    0.902390
 H    1.651194   -0.287246    1.241189
 H    0.044949   -1.657952    2.738562
 H    1.507857   -2.444363    3.390773
 H    5.326330   -1.770717   -1.257195
 H    2.588084   -3.176111   -2.312898
 H    2.164924   -0.289845    3.967258
 H    7.386873    3.839053   -0.120532
 H    7.756290    1.496959    0.502713
 H    5.651924    0.836559   -1.624932
 H    5.530897    0.611647    1.426261
 H    4.038588    2.439716   -0.522092
 H    2.789361    1.827722    1.569545
 H    4.158733    2.449915    2.534362
 H    5.790717    4.247093   -1.747635
 H    7.872730    1.989617   -2.252368
 H    7.533320   -0.608675   -1.046416
 H    3.725232    4.472927    1.485942
