47 
3jzk_ligand_xtb.xyz
 C    0.093469    1.775651    0.661985
 N    2.276301    2.766922    0.276727
 O    2.661276   -1.765115    1.734243
Br   -4.412148    1.559945   -0.520835
 C   -0.887291    2.127038    1.577383
 N    3.621647    3.651778   -1.205554
Br   -3.782578   -2.559998   -0.509350
 C   -2.224675    2.076586    1.229520
 N    3.529654    1.248060   -1.016090
 C   -2.573978    1.675244   -0.048149
 N    2.118025    4.098814    0.393338
 C   -1.608312    1.347945   -0.985443
 C   -0.276141    1.403044   -0.624564
 C    1.717430   -0.706633    1.642446
 C    2.936432    4.583174   -0.504891
 C    2.198908    0.439753    0.790001
 C    1.560663    1.784210    1.049131
 C    3.181371    2.523008   -0.690670
 C    3.096218    0.221235   -0.189520
 C    4.420725   -1.497062   -1.471683
 C    4.966342   -2.765318   -1.546623
 C    4.760429   -3.669063   -0.517018
 C    3.981886   -3.319890    0.570776
 C    3.409087   -2.055986    0.640235
 C    3.653054   -1.117699   -0.374931
 C    0.267099   -1.772111   -0.134470
 C    0.375382   -1.208772    1.131495
 C   -0.764824   -1.082764    1.913941
 C   -1.999402   -1.481748    1.436617
 C   -2.087163   -2.026896    0.167459
 C   -0.959036   -2.186370   -0.619100
 H   -0.607786    2.441887    2.571590
 H   -2.988841    2.343670    1.942887
 H    4.343693    1.124817   -1.595448
 H   -1.896624    1.049994   -1.981688
 H    0.482829    1.146116   -1.348841
 H    1.587797   -0.364717    2.678074
 H    3.057509    5.632617   -0.672602
 H    1.641362    2.054054    2.113441
 H    4.583553   -0.805217   -2.284858
 H    5.555764   -3.045170   -2.405822
 H    5.196060   -4.654974   -0.566840
 H    3.797840   -4.012139    1.376404
 H    1.143863   -1.890685   -0.752568
 H   -0.692492   -0.661326    2.905416
 H   -2.884993   -1.371340    2.043266
 H   -1.039738   -2.623274   -1.602375
