42 
3k1j_ligand_xtb.xyz
 P    0.460720   -2.073010   -0.903154
 O    0.981183   -3.002094   -2.067729
 O    1.103645   -2.721467    0.352676
 O    0.626339   -0.638224   -1.124607
 P   -2.102036   -1.887008    0.201896
 O   -3.431279   -2.717454   -0.061627
 O   -1.644184   -1.917974    1.586494
 O   -1.108111   -2.506292   -0.870535
 O   -2.427443   -0.467192   -0.423310
 C   -3.315256    0.360070    0.324290
 C   -2.745005    1.767950    0.514321
 O   -1.661660    1.743622    1.436834
 C   -2.236103    2.417598   -0.783306
 O   -2.598394    3.769300   -0.815516
 C   -0.712654    2.242919   -0.690018
 O   -0.056436    3.318765   -1.291484
 C   -0.476471    2.174811    0.839669
 N    0.603811    1.264675    1.130196
 C    0.577941    0.111799    1.842667
 N    1.681192   -0.581983    1.752768
 C    2.498478    0.150441    0.923967
 C    3.771813   -0.058663    0.369385
 N    4.537805   -1.125017    0.664341
 N    4.253017    0.862116   -0.471172
 C    3.516751    1.916665   -0.766558
 N    2.305080    2.219284   -0.331935
 C    1.821884    1.307419    0.515001
 H    0.912098   -2.558894   -2.912564
 H    1.320277   -2.043388    1.056288
 H   -3.472077   -3.488179    0.504190
 H   -4.263193    0.417085   -0.217006
 H   -3.479406   -0.077878    1.312331
 H   -3.534122    2.397540    0.945351
 H   -2.640006    1.897720   -1.661376
 H   -1.844274    4.247668   -1.194301
 H   -0.417922    1.283002   -1.130236
 H    0.904254    3.167729   -1.168218
 H   -0.198834    3.175043    1.219855
 H   -0.278278   -0.189865    2.410657
 H    5.381072   -1.260422    0.134765
 H    4.127892   -1.893738    1.163971
 H    3.958372    2.619363   -1.460290
