57 
3k22_ligand_xtb.xyz
 C   -9.152764   -0.795679   -0.029524
 F    7.035157   -0.607585   -1.367624
 N   -6.801861   -0.163448    0.018593
 O   -5.019081   -1.354753   -0.676442
 C   -7.718985   -1.289960    0.059279
 F    7.108536   -2.120853    0.156024
 N   -1.162692    1.909956   -0.157383
 O    4.533939   -1.320259    1.043659
 C   -5.516544   -0.278805   -0.367191
 F    5.548572   -2.151123   -1.319374
 N   -0.485550    2.924263    0.414009
 O   -8.254866   -2.074437    2.295987
 C   -4.729473    0.985159   -0.398310
 F    6.883846   -0.381067    2.195445
 N    3.346904    0.887313    0.077652
 C   -5.302028    2.237650   -0.599846
 F    7.111876    1.137979    0.688829
 N   -6.354845   -2.814964    1.320312
 C   -4.497582    3.364792   -0.614424
 F    5.428315    1.187037    2.019532
 C   -3.129157    3.256065   -0.458998
 C   -2.546783    2.000284   -0.295814
 C   -3.352986    0.871271   -0.244720
 C    0.775000    2.590421    0.454821
 C    0.976878    1.311418   -0.124107
 C    2.089211    0.488923   -0.372735
 C    4.556375    0.497717   -0.589283
 C    5.366395   -0.472409    0.328540
 C    6.284826   -1.351397   -0.542842
 C    6.221276    0.361376    1.318037
 C    1.861345   -0.713429   -1.011907
 C    0.581183   -1.095395   -1.446290
 C    0.435960   -2.397370   -2.171897
 C   -0.518123   -0.295465   -1.212853
 C   -0.315852    0.897410   -0.521876
 C   -7.489810   -2.097158    1.359403
 H   -9.827915   -1.644509   -0.084780
 H   -9.403035   -0.227366    0.863479
 H   -9.290547   -0.174175   -0.911162
 H   -7.134040    0.702645    0.411630
 H   -7.470119   -1.936962   -0.790166
 H    3.683949   -0.863480    1.186627
 H    3.359652    1.798800    0.508459
 H   -6.364036    2.339800   -0.766143
 H   -6.071905   -3.326347    2.140629
 H   -5.698096   -2.683000    0.559315
 H   -4.942158    4.337805   -0.759000
 H   -2.493622    4.127053   -0.463709
 H   -2.937209   -0.106414   -0.062945
 H    1.489537    3.260860    0.891159
 H    5.185210    1.358272   -0.836446
 H    4.315802   -0.030513   -1.516542
 H    2.675713   -1.397481   -1.198910
 H    0.973009   -2.363174   -3.119176
 H    0.858350   -3.208926   -1.581859
 H   -0.608856   -2.616642   -2.373153
 H   -1.490192   -0.584503   -1.575475
