84 
3k23_ligand_dft.xyz
 C    1.532186    0.127942   -3.570355
 F    2.858764    4.000880    1.191733
 N    2.622817   -1.957879   -0.003494
 O    2.437786   -0.022748   -2.487848
 C    2.552766    1.038413   -1.618806
 F    7.436595   -1.166079    0.434350
 N   -1.442113    0.151909    0.243628
 O    4.930952   -0.312720    1.105264
 C    1.419080    1.745130   -1.219802
 F    6.376805   -2.479961    1.782316
 N   -1.360833   -0.560949   -0.916808
 O   -6.990180    1.629226   -0.881160
 C    1.503098    2.757903   -0.275116
 F    6.654133   -3.049817   -0.287287
 N   -6.788414   -0.364177    0.174381
 O   -8.518869   -2.543704   -1.688292
 C    2.744547    3.040618    0.259313
 N   -8.137050   -0.463774   -2.527258
 C    3.885607    2.369817   -0.148339
 C    3.829239    1.354393   -1.110499
 C    5.120676    0.676786   -1.611464
 C    6.383220    1.326662   -1.020444
 C    5.208760    0.866402   -3.142992
 C    5.134964   -0.849436   -1.332460
 C    5.067990   -1.338519    0.149376
 C    3.952033   -2.402525    0.332072
 C    1.788267   -1.227806    0.818530
 C    2.089364   -0.798115    2.104332
 C    1.188692   -0.004732    2.856785
 C    1.605000    0.418328    4.243042
 C   -0.024831    0.403837    2.336867
 C   -0.340905   -0.043686    1.042383
 C   -0.204504   -1.183379   -0.876413
 C    0.506655   -0.890285    0.317150
 C   -2.583368    0.946122    0.489435
 C   -2.461455    2.181101    1.123626
 C   -3.597677    2.953975    1.343228
 C   -4.843264    2.511222    0.918326
 C   -4.961511    1.269665    0.289942
 C   -3.830862    0.489822    0.067961
 C   -6.323027    0.855688   -0.190781
 C   -6.192612   -1.266945    1.174057
 C   -7.224799   -2.389551    1.302232
 C   -8.554326   -1.697741    0.994934
 C   -8.189178   -0.720366   -0.118829
 C   -8.300033   -1.354966   -1.520988
 C    6.399105   -2.006614    0.529232
 H    1.774598   -0.665571   -4.279883
 H    1.665515    1.103289   -4.051629
 H    0.490201    0.017013   -3.251401
 H    2.436464   -1.834954   -0.989066
 H    4.103143    0.158205    0.931691
 H    0.447385    1.477987   -1.620258
 H    0.623943    3.302407    0.049509
 H   -7.844942    0.485478   -2.318609
 H   -8.093408   -0.814306   -3.471880
 H    4.826925    2.658014    0.301463
 H    7.265215    0.836134   -1.443403
 H    6.437373    2.388398   -1.284543
 H    6.438879    1.220350    0.063462
 H    4.391231    0.366003   -3.664129
 H    6.154727    0.458379   -3.516450
 H    5.179155    1.932632   -3.391467
 H    4.309606   -1.296437   -1.890176
 H    6.046100   -1.246029   -1.792293
 H    3.960117   -2.744428    1.370117
 H    4.184724   -3.267286   -0.297485
 H    3.053065   -1.031309    2.544036
 H    2.559663    0.955195    4.216038
 H    0.860537    1.073024    4.704350
 H    1.740969   -0.453334    4.892898
 H   -0.702779    1.018647    2.916965
 H    0.080798   -1.828291   -1.696853
 H   -1.482729    2.545096    1.417403
 H   -3.501132    3.919834    1.828770
 H   -5.728290    3.123074    1.056437
 H   -3.890517   -0.456586   -0.457320
 H   -5.222207   -1.643155    0.847935
 H   -6.050250   -0.733545    2.121749
 H   -7.040225   -3.157604    0.545812
 H   -7.194971   -2.857967    2.288802
 H   -8.914671   -1.142190    1.867421
 H   -9.325247   -2.398438    0.672661
 H   -8.787388    0.195749   -0.100739
