114 
3k27_ligand_xtb.xyz
 N   -9.987768   -0.261118    0.602380
 C   -9.685786    0.336768   -0.699467
 C   -8.168898    0.579914   -0.771856
 O   -7.428586   -0.163808   -1.393270
 C  -10.488676    1.630417   -0.978003
 O  -10.346745    2.462920    0.164856
 C  -11.958385    1.334588   -1.265278
 N   -7.736181    1.635451   -0.075914
 C   -6.336987    2.008490   -0.056339
 C   -5.496959    0.798664    0.364663
 O   -5.865603    0.014665    1.228050
 C   -6.112871    3.141212    0.938906
 N   -4.321777    0.691619   -0.257990
 C   -3.331330   -0.307586    0.063699
 C   -1.965323    0.390971    0.008607
 O   -1.823829    1.455345   -0.561578
 C   -3.345174   -1.460201   -0.959290
 C   -4.716511   -2.114748   -1.125330
 C   -5.169883   -2.885921    0.118589
 N   -6.462202   -3.506775   -0.103005
 C   -7.652601   -2.960809    0.158960
 N   -7.811619   -1.916260    0.941790
 N   -8.743438   -3.575217   -0.326881
 N   -0.965333   -0.270996    0.602511
 C    0.397830    0.216921    0.620907
 C    0.568193    1.195565    1.802362
 C    2.004426    1.599376    2.122960
 C    2.669936    2.496908    1.072561
 C    4.125273    2.693678    1.494254
 N    5.066280    3.226255    0.468527
 C    1.295766   -1.019259    0.765336
 O    0.908327   -2.018522    1.333447
 C    5.136935    2.330034   -0.701056
 C    4.678299    4.578234    0.040407
 C    6.403299    3.271983    1.087862
 N    2.518841   -0.875490    0.230476
 C    3.513552   -1.918235    0.135627
 C    4.835273   -1.379045    0.681618
 O    4.959486   -0.215137    1.028671
 C    3.680607   -2.257775   -1.372005
 O    4.019098   -1.110478   -2.096818
 N    5.855409   -2.254400    0.728799
 C    7.205483   -1.746255    0.822207
 C    7.555529   -1.042482   -0.506679
 O    6.737047   -0.942741   -1.405464
 C    8.209812   -2.843320    1.216345
 O    9.393846   -2.164392    1.590636
 C    8.464436   -3.848446    0.094611
 N    8.794908   -0.549157   -0.567087
 C    9.306931    0.095766   -1.749131
 C    9.203147    1.613373   -1.707073
 O   10.123655    2.164486   -2.477331
 O    8.380685    2.237359   -1.085461
 H  -10.959907   -0.555427    0.628048
 H   -9.877102    0.452354    1.319353
 H   -8.723535   -1.423276    0.943625
 H   -9.921386   -0.396167   -1.477857
 H  -10.044114    2.126699   -1.854966
 H  -10.952443    3.207810    0.084960
 H  -12.438390    0.880875   -0.400109
 H  -12.050876    0.666041   -2.116172
 H  -12.485956    2.256962   -1.499222
 H   -8.408755    2.235559    0.384803
 H   -6.031491    2.316806   -1.065327
 H   -5.067584    3.438767    0.937983
 H   -6.718332    4.003615    0.671046
 H   -6.381893    2.814138    1.940730
 H   -3.992456    1.403494   -0.898943
 H   -3.532292   -0.680672    1.072208
 H   -2.609830   -2.207314   -0.655292
 H   -3.038558   -1.056918   -1.926331
 H   -5.466816   -1.358692   -1.363338
 H   -4.661155   -2.805621   -1.969048
 H   -5.241804   -2.217576    0.975194
 H   -4.458263   -3.681081    0.355452
 H   -6.454174   -4.281954   -0.750022
 H   -7.021136   -1.313581    1.169959
 H   -8.683567   -4.433231   -0.845271
 H   -9.655128   -3.238313   -0.073590
 H   -1.100445   -1.147796    1.090218
 H    0.583419    0.730498   -0.327587
 H   -0.034889    2.079020    1.586048
 H    0.149562    0.710574    2.686339
 H    2.606290    0.699342    2.253189
 H    1.996273    2.129515    3.077032
 H    2.134049    3.445254    1.015398
 H    2.615404    2.013876    0.099336
 H    4.160481    3.360063    2.358461
 H    4.514288    1.717538    1.788739
 H    6.023624    2.560034   -1.287151
 H    4.258308    2.439938   -1.330518
 H    5.214927    1.299354   -0.359028
 H    4.653975    5.252437    0.894931
 H    5.396862    4.956740   -0.684307
 H    3.693509    4.560197   -0.421204
 H    6.689212    2.270177    1.400537
 H    7.141416    3.618222    0.368151
 H    6.401756    3.932491    1.952492
 H    2.724340   -0.082755   -0.359413
 H    3.168487   -2.787260    0.701329
 H    2.714745   -2.600348   -1.753801
 H    4.413929   -3.059802   -1.509752
 H    4.976690   -0.958321   -2.017796
 H    5.733832   -3.175125    0.336500
 H    7.218770   -0.980464    1.607966
 H    7.794347   -3.369811    2.089997
 H   10.050699   -2.807405    1.882166
 H    8.856917   -3.349842   -0.788471
 H    7.550997   -4.371519   -0.174259
 H    9.188592   -4.591529    0.421453
 H    9.410447   -0.705261    0.222510
 H    8.699147   -0.230982   -2.603117
 H   10.346866   -0.182045   -1.926234
 H   10.069174    3.134062   -2.503023
