114 
3k27_ligand_dft.xyz
 N   10.083161   -0.498725   -0.519904
 C    9.820511    0.557990    0.474001
 C    8.301438    0.796011    0.550322
 O    7.616502    0.248632    1.406004
 C   10.633034    1.841668    0.217900
 O   10.382057    2.193408   -1.143768
 C   12.122855    1.656826    0.471067
 N    7.773592    1.602236   -0.398550
 C    6.372896    1.958656   -0.381791
 C    5.490709    0.710026   -0.481324
 O    5.773788   -0.235617   -1.219259
 C    6.059679    2.883465   -1.558866
 N    4.351615    0.761554    0.227530
 C    3.335315   -0.264440    0.169086
 C    1.982241    0.449706    0.266147
 O    1.885770    1.539790    0.816079
 C    3.459701   -1.271202    1.333766
 C    4.818358   -1.967853    1.445634
 C    5.080110   -2.973139    0.322229
 N    6.342086   -3.690089    0.499351
 C    7.552178   -3.214550    0.173379
 N    7.716052   -2.153686   -0.591932
 N    8.640183   -3.885059    0.600604
 N    0.926610   -0.227446   -0.232524
 C   -0.420076    0.314758   -0.212883
 C   -0.626165    1.280229   -1.399649
 C   -2.068307    1.704919   -1.683571
 C   -2.771155    2.431801   -0.530596
 C   -4.166229    2.839005   -0.985393
 N   -5.114934    3.290107    0.110864
 C   -1.366971   -0.882218   -0.301958
 O   -1.178805   -1.765504   -1.125301
 C   -5.506255    2.138316    0.988699
 C   -4.497150    4.366949    0.939773
 C   -6.350115    3.824599   -0.547340
 N   -2.393252   -0.888157    0.580795
 C   -3.473921   -1.835547    0.529373
 C   -4.580751   -1.336505   -0.412611
 O   -4.579402   -0.211029   -0.889464
 C   -4.054696   -1.965020    1.952087
 O   -4.572256   -0.730184    2.383013
 N   -5.595865   -2.216200   -0.626301
 C   -6.874820   -1.736254   -1.090205
 C   -7.646872   -1.093967    0.087029
 O   -7.107140   -0.860526    1.168477
 C   -7.628381   -2.842481   -1.851974
 O   -8.703528   -2.181723   -2.509486
 C   -8.121071   -3.986644   -0.972346
 N   -8.930246   -0.781971   -0.156672
 C   -9.752677   -0.159811    0.844522
 C   -9.495859    1.331323    0.987074
 O  -10.362200    1.859896    1.852167
 O   -8.635007    1.963230    0.419208
 H   11.016705   -0.875529   -0.372712
 H   10.101089   -0.066734   -1.443891
 H    8.636401   -1.679494   -0.601869
 H   10.083119    0.168188    1.460098
 H   10.246146    2.626509    0.884258
 H   10.925467    2.955293   -1.379086
 H   12.544372    0.893703   -0.191035
 H   12.309207    1.370807    1.510735
 H   12.662944    2.591584    0.287646
 H    8.405152    2.063046   -1.045073
 H    6.146284    2.466939    0.564295
 H    5.007843    3.180519   -1.540287
 H    6.668536    3.790922   -1.505466
 H    6.259552    2.372438   -2.505325
 H    4.105415    1.579350    0.772853
 H    3.433020   -0.773178   -0.795012
 H    2.657612   -2.014926    1.238186
 H    3.271124   -0.724555    2.264654
 H    5.624039   -1.225465    1.475205
 H    4.849507   -2.500566    2.403375
 H    5.087383   -2.483008   -0.654135
 H    4.295517   -3.734770    0.289840
 H    6.312963   -4.540943    1.040143
 H    6.930515   -1.554705   -0.858777
 H    8.582113   -4.624932    1.280592
 H    9.557666   -3.595613    0.303114
 H    1.049748   -1.070355   -0.779730
 H   -0.542763    0.848023    0.734696
 H    0.011187    2.152481   -1.217689
 H   -0.243247    0.776520   -2.293409
 H   -2.663944    0.825292   -1.948692
 H   -2.055706    2.357538   -2.565434
 H   -2.183692    3.303885   -0.220867
 H   -2.846929    1.756812    0.325081
 H   -4.110525    3.669763   -1.695124
 H   -4.657651    1.990768   -1.464448
 H   -6.204603    2.503783    1.741308
 H   -4.624137    1.714962    1.465440
 H   -5.989705    1.378038    0.379927
 H   -4.158478    5.171515    0.284670
 H   -5.244869    4.744926    1.638292
 H   -3.653330    3.955843    1.492763
 H   -6.768188    3.049628   -1.188768
 H   -7.083335    4.074669    0.218202
 H   -6.084627    4.707503   -1.130845
 H   -2.522808   -0.116394    1.218686
 H   -3.082509   -2.794624    0.174138
 H   -3.246222   -2.247994    2.631544
 H   -4.815587   -2.754482    1.991776
 H   -5.486910   -0.678836    2.046940
 H   -5.599637   -3.062492   -0.074259
 H   -6.673474   -0.935654   -1.808307
 H   -6.921834   -3.229505   -2.597766
 H   -9.208177   -2.829692   -3.016724
 H   -8.813055   -3.626979   -0.204803
 H   -7.291246   -4.508423   -0.483434
 H   -8.642595   -4.733398   -1.579746
 H   -9.310387   -1.029296   -1.065381
 H   -9.573326   -0.618946    1.822157
 H  -10.806751   -0.312209    0.601201
 H  -10.186945    2.811807    1.922597
