51 
3k37_ligand_dft.xyz
 C    1.061116   -0.407641    1.186764
 N    1.174018    0.832936    1.933179
 C    0.116602    1.388708    2.596549
 N   -1.021759    0.784536    2.699481
 N    0.405141    2.652119    3.106999
 C    0.594598   -0.206442   -0.280959
 C   -0.930751   -0.193679   -0.559318
 C   -1.480976    1.245972   -0.735098
 C   -3.011669    1.310597   -0.601786
 C   -3.786604    0.513877   -1.652676
 C   -0.985832    1.820439   -2.074781
 C   -1.372863    3.278909   -2.314939
 N   -1.665066   -0.927022    0.452773
 C   -2.038237   -2.208083    0.285609
 C   -2.761364   -2.842720    1.453244
 O   -1.830831   -2.840553   -0.756525
 C    1.385669   -1.261856   -1.067303
 O    0.950028   -2.576884   -0.844512
 C    2.781569   -1.176077   -0.406260
 C    3.504279    0.073003   -0.845044
 O    4.134057   -0.083857   -2.020426
 O    3.518446    1.131805   -0.249571
 C    2.432450   -1.128136    1.085979
 H    0.360361   -1.037127    1.732624
 H    1.868243    1.470749    1.562203
 H   -1.653656    1.297956    3.307885
 H    1.355900    2.777617    3.428700
 H   -0.269964    3.005026    3.769715
 H    0.992590    0.765586   -0.591138
 H   -1.111731   -0.729039   -1.497753
 H   -1.065023    1.865927    0.071848
 H   -3.288230    0.957066    0.396402
 H   -3.320223    2.362209   -0.642474
 H   -3.501540   -0.543735   -1.653706
 H   -4.862541    0.567380   -1.456774
 H   -3.619578    0.906266   -2.662000
 H   -1.365377    1.199881   -2.897158
 H    0.106882    1.740274   -2.125638
 H   -1.064858    3.910394   -1.473219
 H   -0.890838    3.666154   -3.218429
 H   -2.453609    3.397451   -2.443470
 H   -1.692514   -0.477911    1.374298
 H   -2.294729   -3.806197    1.671703
 H   -3.798686   -3.036134    1.164034
 H   -2.751103   -2.217757    2.350330
 H    1.417159   -1.024473   -2.142676
 H   -0.007042   -2.658634   -1.033944
 H    3.372891   -2.048876   -0.692883
 H    4.537573    0.773084   -2.234082
 H    2.338575   -2.149782    1.457071
 H    3.193193   -0.616659    1.679882
