51 
3k39_ligand_xtb.xyz
 C   -1.071995    0.743888   -0.886810
 N   -1.868604    1.682463   -0.126176
 C   -1.333187    2.605298    0.716714
 N   -2.263346    3.212765    1.543381
 N   -0.080569    2.859350    0.731498
 C   -0.371243   -0.314683    0.005028
 C    1.158321   -0.350664   -0.193391
 C    1.864811   -1.126600    0.939425
 C    1.860735   -0.337957    2.258433
 C    1.964278   -1.242982    3.481485
 C    3.307438   -1.469200    0.545542
 C    3.416411   -2.410433   -0.648603
 N    1.688916    0.986751   -0.306748
 C    2.423695    1.369629   -1.370338
 C    2.758514    2.849015   -1.353929
 O    2.809849    0.609559   -2.239031
 C   -1.040648   -1.677009   -0.301042
 O   -0.198538   -2.481159   -1.080252
 C   -2.340056   -1.328585   -1.086372
 C   -3.509130   -1.194907   -0.147822
 O   -3.944791   -2.391965    0.255709
 O   -4.020700   -0.171340    0.231518
 C   -1.978306   -0.046228   -1.833623
 H   -0.333933    1.327702   -1.440597
 H   -2.786643    1.336673    0.125590
 H   -2.001529    4.103060    1.935390
 H   -3.232819    3.141125    1.279273
 H    0.175643    3.606220    1.368007
 H   -0.584648   -0.057492    1.045440
 H    1.366342   -0.855310   -1.140603
 H    1.316568   -2.062860    1.081337
 H    2.696639    0.363285    2.252752
 H    0.947797    0.253460    2.343223
 H    2.874870   -1.836043    3.453923
 H    1.973674   -0.650460    4.393989
 H    1.116600   -1.924413    3.525458
 H    3.796879   -1.930285    1.406538
 H    3.839085   -0.544118    0.316399
 H    2.740136   -3.255049   -0.537179
 H    3.176519   -1.888529   -1.569820
 H    4.433224   -2.788176   -0.732929
 H    1.219612    1.711081    0.246358
 H    3.134209    3.149056   -2.327832
 H    3.528520    3.033286   -0.607897
 H    1.877148    3.428961   -1.094096
 H   -1.290174   -2.202801    0.633231
 H   -0.602747   -3.347399   -1.198042
 H   -2.575400   -2.151454   -1.767126
 H   -4.689681   -2.298814    0.871569
 H   -1.418275   -0.312452   -2.728352
 H   -2.856775    0.530189   -2.119413
