29 
3k41_ligand_dft.xyz
 C    0.739120    1.327219   -0.623188
 C    2.223788    1.261749   -0.274372
 C    2.734740   -0.176402   -0.453398
 C    1.812046   -1.237165    0.183297
 C    0.392710   -0.977995   -0.299395
 C   -0.724204   -1.848541    0.237307
 O    0.203547    2.541477   -0.256255
 O    2.435137    1.596956    1.080720
 O    4.043916   -0.319931    0.050407
 O    2.217889   -2.529864   -0.190173
 O    0.073682    0.329512    0.129441
 O   -1.974911   -1.417846   -0.313672
 P   -2.602434    0.054542   -0.052209
 O   -2.316242    1.126539   -1.026588
 O   -2.253190    0.385106    1.481011
 O   -4.153468   -0.310782    0.000893
 H    0.580764    1.115536   -1.692860
 H    2.790995    1.933229   -0.935109
 H    2.789649   -0.401525   -1.525838
 H    1.832642   -1.107468    1.276832
 H    0.357660   -1.032038   -1.398966
 H   -0.764037   -1.796001    1.331392
 H   -0.590950   -2.885165   -0.071316
 H   -0.734808    2.499471   -0.524697
 H    1.914781    2.391329    1.264009
 H    4.059693    0.164611    0.889788
 H    3.175008   -2.561634   -0.049874
 H   -1.337609    0.713446    1.510403
 H   -4.317358   -1.154446    0.441575
