93 
3k5g_ligand_xtb.xyz
 N   -0.900306    2.992561    0.203362
 C   -1.567460    3.907366   -0.711658
 C   -3.068641    3.989861   -0.419724
 C   -3.639849    2.583961   -0.199466
 C   -2.617243    1.526509   -0.619352
 C   -1.333319    1.729050    0.151963
 O   -0.769114    0.758101    0.679487
 C    0.276795    3.455921    0.980002
 C    1.540582    3.337058    0.077211
 C    1.664970    1.940295   -0.527388
 C    2.895694    1.792033   -1.435739
 C    4.161256    2.115035   -0.652326
 C    4.047009    3.542303   -0.117596
 C    2.840557    3.679103    0.811237
 C    2.735972    0.400351   -2.009439
 O    1.983669    0.203464   -2.956689
 N    3.304240   -0.615188   -1.336189
 C    3.111082   -2.011750   -1.694563
 C    1.653869   -2.469511   -1.431192
 O    0.809082   -2.101872   -2.494992
 C    1.063270   -1.901804   -0.102659
 N   -0.370900   -1.642478   -0.309370
 C   -1.296444   -2.695321    0.161888
 C   -2.698113   -2.341673   -0.259938
 C   -3.665407   -2.021554    0.681315
 C   -4.957208   -1.679819    0.299243
 C   -5.256554   -1.646256   -1.058365
 C   -4.296557   -1.956157   -2.005034
 C   -3.017596   -2.308026   -1.612396
 C   -6.004796   -1.375468    1.339446
 C   -6.582375    0.028955    1.154230
 C   -7.114764   -2.428243    1.292321
 C    4.172629   -2.879387   -1.000266
 C    4.108669   -2.825529    0.501540
 C    3.368735   -3.762651    1.214250
 C    3.292164   -3.703138    2.594901
 C    3.953638   -2.701288    3.285221
 C    4.712376   -1.776582    2.589175
 C    4.794553   -1.843699    1.208484
 C    0.071094    4.922581    1.392315
 C    0.376880    2.658328    2.285237
 H   -1.417534    3.552823   -1.738098
 H   -1.123839    4.894058   -0.641275
 H   -3.237856    4.606805    0.462564
 H   -3.552735    4.481172   -1.263015
 H   -4.560788    2.442475   -0.763609
 H   -3.872955    2.435215    0.856149
 H   -2.995817    0.524165   -0.411631
 H   -2.423992    1.597785   -1.692554
 H    1.416436    4.049594   -0.747086
 H    1.735506    1.211712    0.282600
 H    0.781099    1.709225   -1.123551
 H    2.799359    2.491507   -2.271636
 H    4.276344    1.439600    0.199835
 H    5.040526    2.021959   -1.291713
 H    3.951263    4.237847   -0.953252
 H    4.953895    3.803117    0.429386
 H    2.973550    3.003603    1.657236
 H    2.799363    4.698916    1.192327
 H    3.926201   -0.427772   -0.565473
 H    3.256008   -2.105523   -2.780591
 H    1.633685   -3.564490   -1.398374
 H    1.160239   -1.265915   -2.897117
 H    1.549530   -0.958702    0.146299
 H    1.218670   -2.597114    0.720313
 H   -0.654541   -0.698763    0.110629
 H   -0.441371   -1.593384   -1.356478
 H   -0.995175   -3.648343   -0.281164
 H   -1.226135   -2.766216    1.248863
 H   -3.412890   -2.049645    1.731835
 H   -6.251517   -1.385407   -1.382804
 H   -4.547890   -1.932698   -3.054125
 H   -2.277693   -2.570336   -2.355340
 H   -5.531250   -1.422285    2.326103
 H   -7.294786    0.243408    1.946535
 H   -7.097825    0.117143    0.201705
 H   -5.791820    0.775324    1.189898
 H   -7.835449   -2.245659    2.085175
 H   -7.637648   -2.397345    0.340087
 H   -6.700325   -3.425073    1.424652
 H    5.152888   -2.536175   -1.336949
 H    4.045504   -3.907639   -1.339923
 H    2.869664   -4.561421    0.683994
 H    2.724837   -4.446769    3.133982
 H    3.896767   -2.655639    4.361519
 H    5.255546   -1.011183    3.122490
 H    5.439777   -1.149954    0.684905
 H    0.285811    5.621786    0.588377
 H   -0.945611    5.079147    1.743383
 H    0.740436    5.162795    2.212553
 H    0.645069    1.621104    2.125798
 H    1.112043    3.113252    2.941187
 H   -0.585725    2.680985    2.791050
