42 
3k5u_ligand_xtb.xyz
 C    2.214781   -3.194586   -0.348243
 C   -1.500017   -0.949497   -0.045978
 C   -2.919548   -0.663425    0.055568
 C   -3.456114    0.546906   -0.386419
 C   -4.811841    0.787097   -0.275822
 C   -5.652687   -0.171674    0.266481
 C   -5.130404   -1.382391    0.691796
 C   -3.775960   -1.630145    0.586969
 C    0.250673    2.038166   -1.187849
 C    0.326424    3.419424   -1.150285
 C   -0.194728    4.115774   -0.072655
 C   -0.799259    3.426046    0.966298
 N    0.920262   -3.416108   -0.227560
 C    0.201211   -2.301068   -0.186482
 O   -1.127246   -2.268219   -0.052573
 C    0.723217   -0.996973   -0.266412
 N    2.776509    0.273970   -0.433678
 C    2.128930   -0.906641   -0.358724
 N    2.843358   -2.033707   -0.404808
 C   -0.880964    2.046582    0.932245
 C   -0.406179   -0.124801   -0.169526
 C   -0.356261    1.338352   -0.146623
 C    4.766074    0.314005    1.031707
 C    4.211662    0.367105   -0.397907
 O    6.144263    0.597336    0.969190
 H    2.844546   -4.072822   -0.393477
 H   -2.812072    1.290234   -0.829651
 H   -5.216563    1.726910   -0.621480
 H   -6.711775    0.021961    0.350537
 H   -5.782610   -2.136422    1.107176
 H   -3.364003   -2.571709    0.916254
 H    0.642661    1.494466   -2.035832
 H    0.792181    3.952471   -1.966036
 H   -0.132893    5.193198   -0.043696
 H   -1.208354    3.966055    1.807288
 H    2.239224    1.106666   -0.243490
 H   -1.353235    1.505999    1.739222
 H    4.580639   -0.683784    1.448949
 H    4.246426    1.058398    1.656751
 H    4.522010    1.305591   -0.861005
 H    4.622685   -0.470289   -0.963376
 H    6.540028    0.441508    1.832411
