69 
3k84_ligand_xtb.xyz
 C   -5.034652    1.477306   -1.343495
 C   -4.248617    1.226345   -2.380179
 C   -2.969718    0.450447   -2.382781
 C   -1.815180    1.231144   -3.019171
 C   -1.274617    2.342356   -2.117575
 C   -0.482340    1.802609   -0.928008
 C    0.224900    2.900859   -0.139674
 C    0.994187    2.324664    1.046854
 C    1.752559    3.397645    1.823141
 C    2.509134    2.802885    3.004531
 O   -1.278283   -3.092913   -0.848116
 C    6.191422    0.941825   -0.187131
 C    6.392753   -0.359513   -0.624911
 C    4.899510    1.339378    0.129015
 C    5.304112   -1.206143   -0.728931
 N    2.855035   -2.802623   -0.846191
 C   -3.854887   -0.376341    2.610001
 C   -2.467201   -0.701695    2.058407
 C   -5.031021   -0.862131    1.758267
 C   -2.188348   -2.195524    1.918860
 C   -4.989792   -0.446719    0.285901
 C   -0.755196   -2.464353    1.459086
 N    3.853286    0.542329    0.038560
 N    1.578247   -3.209912   -0.769637
 O    1.647879   -1.115756   -0.141447
 C   -4.796123    1.061251    0.080569
 C    4.048976   -0.704057   -0.381956
 C    2.882059   -1.558785   -0.469013
 C    0.881997   -2.197975   -0.353576
 C   -0.575589   -2.183342   -0.048862
 H   -5.950264    2.028355   -1.516086
 H   -4.543595    1.593448   -3.356233
 H   -2.697186    0.152675   -1.373466
 H   -3.130963   -0.464356   -2.961922
 H   -2.160560    1.667587   -3.959603
 H   -1.001949    0.540164   -3.255343
 H   -0.618248    2.985843   -2.708886
 H   -2.106224    2.954323   -1.760354
 H    0.265830    1.090395   -1.285234
 H   -1.151377    1.270268   -0.249270
 H   -0.511578    3.626869    0.214996
 H    0.918653    3.429054   -0.798071
 H    0.293421    1.823561    1.719998
 H    1.705247    1.578081    0.687098
 H    1.051920    4.155493    2.182947
 H    2.456883    3.894578    1.151761
 H    3.191564    2.027412    2.663198
 H    1.815552    2.356751    3.714271
 H    3.082826    3.568491    3.522828
 H   -0.803566   -3.933387   -0.848054
 H    7.015059    1.631842   -0.092489
 H    7.382908   -0.707029   -0.880676
 H    4.688384    2.343020    0.472799
 H    5.391185   -2.226591   -1.063229
 H   -3.951556   -0.818437    3.605202
 H   -3.927190    0.706924    2.729639
 H   -1.723778   -0.268335    2.734084
 H   -2.344792   -0.218078    1.090175
 H   -5.947495   -0.473473    2.210237
 H   -5.085633   -1.951838    1.804777
 H   -2.347544   -2.680136    2.884374
 H   -2.872206   -2.643020    1.197164
 H   -4.199751   -0.992451   -0.229764
 H   -5.934743   -0.742203   -0.177144
 H   -0.494235   -3.510741    1.635704
 H   -0.060047   -1.838099    2.022462
 H   -5.493902    1.596127    0.728335
 H   -3.785005    1.346553    0.376860
 H   -0.968742   -1.191669   -0.291927
