24 
3k8c_ligand_xtb.xyz
 O   -3.051227   -0.939986   -0.720101
 P   -1.894172   -0.053577   -0.088632
 O   -1.845878    1.304785   -0.641245
 O   -2.179216   -0.229649    1.454219
 O   -0.610023   -0.913487   -0.505708
 C    0.095040   -1.813912    0.329121
 C    1.589424   -1.580742    0.071834
 O    1.837481   -1.523724   -1.310199
 C    2.145731   -0.277364    0.728463
 O    3.354918    0.063201    0.107815
 C    1.105025    0.842772    0.632909
 O    0.150020    0.886001    1.402847
 N    1.288390    1.663232   -0.391966
 O    0.449317    2.725104   -0.682983
 H   -3.789636   -0.389265   -0.972430
 H   -1.596601    0.360931    1.945083
 H   -0.153985   -1.655686    1.379538
 H   -0.172918   -2.834237    0.037118
 H    2.170116   -2.427541    0.455017
 H    1.077847   -1.083396   -1.720137
 H    2.330374   -0.457007    1.794182
 H    3.382250   -0.418636   -0.737134
 H    2.166595    1.694652   -0.893076
 H   -0.474657    2.368726   -0.626051
