29 
3k8d_ligand_xtb.xyz
 C   -2.474523   -1.072375   -0.231281
 O   -3.760553   -0.722984   -0.136755
 O   -2.064176   -1.812074   -1.083102
 C   -1.651245   -0.415390    0.871791
 C   -1.669390    1.111119    0.709874
 C   -0.830973    1.515521   -0.511275
 O   -0.796791    2.904110   -0.680123
 C    0.588690    0.951472   -0.319378
 O    1.132968    1.612744    0.803025
 C    0.502250   -0.574224   -0.147257
 O   -0.342055   -0.924810    0.947633
 C    1.844383   -1.261877    0.167069
 O    2.386132   -0.783627    1.385577
 C    2.911099   -1.074013   -0.922970
 O    3.434254    0.224367   -0.963446
 H   -4.277432   -1.136912   -0.847507
 H   -2.118516   -0.690418    1.824997
 H   -2.693299    1.466039    0.603994
 H   -1.220966    1.566667    1.594920
 H   -1.269845    1.104118   -1.427262
 H   -0.192344    3.252441   -0.010694
 H    1.193878    1.169498   -1.211386
 H    1.899311    1.099391    1.097522
 H    0.109690   -1.001860   -1.077816
 H    1.630622   -2.337147    0.256182
 H    1.700424   -0.899138    2.055793
 H    3.713255   -1.802132   -0.741586
 H    2.471707   -1.268363   -1.902655
 H    3.813540    0.414611   -0.096402
