22 
3kab_ligand_xtb.xyz
 C   -1.664584    0.033560   -0.000524
 N   -0.745234   -0.986472   -0.001668
 C   -0.999921    1.241383   -0.000659
 C    0.507273   -0.465453   -0.002196
 C   -3.088746   -0.306515    0.000853
 C    0.385097    0.949273   -0.001426
 C    1.749634   -1.089575   -0.002646
 O   -3.481868   -1.446188    0.001167
 C    1.542637    1.732962   -0.000632
 O   -3.949309    0.729606    0.001829
 C    2.881955   -0.298429   -0.000331
 C    2.762001    1.102390    0.000461
 C    4.238348   -0.937319    0.003136
 H   -1.426366    2.227125   -0.000130
 H    1.826815   -2.166869   -0.004364
 H    1.473011    2.810244   -0.000363
 H   -3.489644    1.579025    0.001759
 H    3.665043    1.695441    0.002036
 H    4.360539   -1.563351    0.886170
 H    4.361879   -1.572539   -0.873028
 H    5.024249   -0.186881    0.000066
 H   -1.011637   -1.957896   -0.000666
