24 
3kac_ligand_dft.xyz
 C   49.045594   -4.603250   26.787237
 C   49.009079   -5.344802   27.981979
 C   49.114859   -6.726904   27.977437
 C   49.189377   -5.221832   25.553838
 N   49.447455   -7.547813   24.557566
 C   49.297319   -6.611064   25.560705
 C   49.261591   -7.370363   26.745770
 N   49.384146   -8.721882   26.459704
 C   49.487178   -8.783652   25.159775
 C   49.703366  -10.037664   24.375727
 C   51.205316  -10.349597   24.237414
 C   51.477052  -11.592669   23.426027
 O   52.214951  -11.663649   22.473740
 O   50.790545  -12.656197   23.890410
 H   48.959472   -3.521800   26.830936
 H   48.895171   -4.819468   28.925259
 H   49.086471   -7.305182   28.895005
 H   49.217229   -4.647452   24.632956
 H   49.205352  -10.857156   24.897248
 H   49.246427   -9.946788   23.383112
 H   51.739877   -9.526038   23.758875
 H   51.624858  -10.489546   25.239955
 H   51.027735  -13.404701   23.319776
 H   49.494579   -7.368533   23.567548
