80 
3kdd_ligand_dft.xyz
 F   -4.460543   -3.287812   -0.188817
 S    1.010489    3.893253   -1.794356
 F   -1.229642   -0.156175   -1.465371
 N    0.576607   -2.195074    0.360178
 O   -2.115342   -1.929371    0.337113
 N    1.569974    1.554644   -0.721802
 O    1.688669   -0.433131   -1.746831
 N   -0.617196    2.056218    0.851872
 O    0.616293    3.207523    2.365189
 O    1.790972    0.116601    1.759981
 O   -0.897125   -0.307276    2.260390
 O    0.362279   -3.992835    1.749636
 C   -0.116479   -3.175780    0.982207
 C    2.001712   -1.987421    0.564740
 C    2.287203   -0.471415    0.591589
 C    2.834385   -2.835107   -0.419675
 C    1.822001    0.212928   -0.708757
 C    1.747999    2.524616    0.362153
 C    2.129143    3.860623   -0.328112
 C    1.227243    2.112035   -2.036037
 C    0.532219    2.626283    1.295492
 C   -1.608443   -3.234881    0.643732
 C    4.312475   -2.543751   -0.344857
 C    4.915644   -1.695835   -1.278191
 C    6.269233   -1.385073   -1.186167
 C    7.039908   -1.917111   -0.155933
 C    6.448765   -2.761791    0.780097
 C    5.095272   -3.071197    0.684846
 C    3.598294    3.793801   -0.764576
 C    1.889610    5.110273    0.516133
 C   -1.760478    1.929919    1.719388
 C   -3.023991    1.571941    0.973355
 C   -3.451536    2.016878   -0.270072
 C   -4.659934    1.535190   -0.772493
 C   -1.641263    0.782692    2.769985
 C   -3.786578    0.671117    1.719063
 C   -4.987768    0.189015    1.216057
 C   -5.418750    0.625730   -0.036961
 C   -3.103193    0.373605    3.034339
 C   -4.230550   -1.246579   -3.171008
 C   -4.718280   -2.178522   -2.258874
 C   -4.011591   -2.406101   -1.089974
 C   -2.815586   -1.747239   -0.814271
 C   -2.372935   -0.813259   -1.743765
 C   -3.052178   -0.550944   -2.918732
 H    0.135882   -1.676554   -0.387206
 H   -0.578492    1.460605    0.038531
 H    0.849581   -0.126962    1.891567
 H   -1.379271   -0.696417    1.510123
 H    2.217496   -2.331210    1.580501
 H    3.375914   -0.340356    0.624266
 H    2.466410   -2.656417   -1.430900
 H    2.641116   -3.883543   -0.166162
 H    2.568381    2.215386    1.010715
 H    0.302949    1.670468   -2.414491
 H    2.024684    1.885968   -2.748958
 H   -2.136293   -3.630198    1.512255
 H   -1.762276   -3.908433   -0.205552
 H    4.308966   -1.273973   -2.075720
 H    6.723034   -0.726903   -1.921836
 H    8.096691   -1.677621   -0.082924
 H    7.043304   -3.182716    1.585789
 H    4.638140   -3.734149    1.416097
 H    3.812575    2.891426   -1.346179
 H    4.245999    3.786393    0.120385
 H    3.856268    4.664072   -1.374056
 H    2.243163    5.991600   -0.028847
 H    2.440077    5.036506    1.457988
 H    0.834782    5.246533    0.759853
 H   -1.876786    2.880830    2.252262
 H   -2.846510    2.716422   -0.841279
 H   -5.008177    1.861709   -1.747720
 H   -1.109209    1.112825    3.661958
 H   -5.579233   -0.524948    1.782695
 H   -6.349091    0.245846   -0.448547
 H   -3.533121    0.986929    3.836518
 H   -3.169471   -0.673192    3.345662
 H   -4.776134   -1.059486   -4.089355
 H   -5.640149   -2.721174   -2.433178
 H   -2.658459    0.184127   -3.610742
