47 
3kf7_ligand_xtb.xyz
 C   -1.829047   -1.878080    1.357543
 C   -0.473551   -1.598444    1.606658
 N    0.334613   -1.211758    0.538787
 C   -0.147278   -1.037284   -0.716019
 C   -1.458686   -1.294767   -0.970795
 C   -2.300701   -1.735397    0.088996
 C    1.565327   -1.030430    1.108200
 N    0.249448   -1.636839    2.705635
 N    1.490197   -1.283964    2.392431
 C   -2.042132   -1.021442   -2.325695
 C   -2.494571    0.451084   -2.421583
 C   -3.502202    0.762496   -1.354242
 C   -3.104859    1.246628   -0.111899
 C   -3.994707    1.487074    0.917498
 C   -5.332055    1.226978    0.682658
 C   -5.779504    0.748357   -0.535634
 C   -4.857330    0.519486   -1.540671
 F   -1.799457    1.502377    0.107180
 F   -6.220460    1.447737    1.668008
 C    2.761591   -0.649872    0.356309
 C    3.336540    0.595085    0.565424
 C    4.476154    0.973535   -0.133141
 C    5.023930    0.097565   -1.064385
 C    4.449368   -1.142934   -1.270409
 C    3.323981   -1.543357   -0.562643
 C    5.045348    2.330965    0.115070
 N    6.398524    2.405412    0.024124
 O    4.360129    3.299747    0.360172
 C    2.738348   -2.907926   -0.766364
 H   -2.450908   -2.189404    2.179399
 H    0.546336   -0.674064   -1.460138
 H   -3.337253   -1.942616   -0.131076
 H   -2.901210   -1.672313   -2.496528
 H   -1.300608   -1.210270   -3.103455
 H   -2.930941    0.625625   -3.405963
 H   -1.623064    1.096781   -2.304743
 H   -3.653029    1.860761    1.868525
 H   -6.830641    0.561376   -0.684497
 H   -5.194821    0.144643   -2.495247
 H    2.901168    1.280263    1.276416
 H    5.886304    0.388293   -1.646750
 H    4.886165   -1.819323   -1.991460
 H    6.839062    3.284165    0.241642
 H    6.971494    1.582522   -0.024289
 H    2.437917   -3.338843    0.187377
 H    1.856005   -2.864300   -1.406901
 H    3.462990   -3.568180   -1.236481
