66 
3kfa_ligand_xtb.xyz
 C    5.899219   -0.174600   -0.037846
 F   -5.187056    4.193102    0.877445
 N    4.818596    0.597238   -0.390538
 O   -1.463893    1.157316   -0.869032
 C   11.368928    1.250198    2.104723
 F   -4.837457    4.092736   -1.241765
 N   -2.920930   -0.556650   -0.475474
 C    3.521669    0.200527   -0.667960
 F   -6.842462    3.992721   -0.477557
 N   -7.567419   -0.806423    0.689235
 C    3.120046   -1.072073   -0.619240
 N   -9.669766   -1.470265    0.846557
 C    1.762359   -1.513393   -0.895186
 N    6.540240    2.005654   -0.098091
 C    1.515401   -2.829254   -1.326294
 N    5.990109   -1.498633    0.116781
 C    0.208488   -3.214774   -1.592499
 N    8.281512   -1.157718    0.673647
 C   -0.856992   -2.349519   -1.426010
 N    9.279307    0.941453    0.727681
 C   -0.623981   -1.051932   -0.977493
 C    0.683102   -0.651094   -0.729066
 C    2.635913   -3.799839   -1.528142
 C   -1.686886   -0.030256   -0.782309
 C   -4.115160    0.113019   -0.252868
 C   -5.231253   -0.643872    0.101790
 C   -6.459017   -0.038171    0.337890
 C   -6.582092    1.344249    0.216560
 C   -5.470596    2.084630   -0.150903
 C   -4.238047    1.495594   -0.382987
 C   -5.584252    3.580505   -0.254940
 C   -7.571630   -1.999188    1.378786
 C   -8.876254   -0.547678    0.399738
 C   10.547854    0.450391    1.137429
 C   -8.875696   -2.388726    1.477896
 C    5.287002    1.889502   -0.405772
 C   -9.448956   -3.590643    2.136999
 C   11.790793    1.143051    0.666681
 C    6.963302    0.721383    0.141180
 C    8.202623    0.170842    0.521571
 C    7.201871   -1.889887    0.465028
 H   11.938517    0.722522    2.853096
 H   10.971882    2.194615    2.445078
 H   -2.964795   -1.559345   -0.358259
 H    2.872629    1.020373   -0.944389
 H    3.854616   -1.823497   -0.370641
 H    0.019359   -4.218304   -1.946584
 H   -1.851391   -2.686165   -1.684072
 H    9.157217    1.935704    0.605742
 H    0.837856    0.357362   -0.378659
 H    3.372412   -3.397630   -2.221564
 H    3.143760   -3.999526   -0.585194
 H    2.261876   -4.740744   -1.923646
 H   -5.143642   -1.717727    0.180508
 H   -7.523030    1.831263    0.413839
 H   -3.384709    2.090842   -0.661675
 H   -6.677657   -2.437884    1.770345
 H   -9.193855    0.304059   -0.166753
 H   10.530538   -0.627795    1.214283
 H    4.650669    2.717281   -0.652270
 H  -10.080533   -3.292234    2.971985
 H  -10.069891   -4.139198    1.431818
 H   -8.655678   -4.237583    2.502006
 H   12.652063    0.541772    0.422669
 H   11.677392    2.015616    0.041467
 H    7.330224   -2.955887    0.600885
