124 
3kfn_ligand_xtb.xyz
 N    2.304261    2.072638   -1.213624
 C    2.808103    0.754738   -1.533918
 N    0.283598    3.845210    0.231660
 C    4.247548    0.619567   -1.051677
 C    2.786611    0.542317   -3.058563
 C    1.372460    0.453155   -3.560119
 C    0.665635   -0.736628   -3.422133
 O    4.967442    1.571095   -0.885689
 C   -0.632375   -0.842243   -3.885743
 C   -1.243156    0.250866   -4.481132
 O    2.732764    1.992796    1.011016
 C   -0.553364    1.443558   -4.607146
 C    0.749498    1.544015   -4.149699
 C    1.717240    3.990147    0.110176
 C    2.318100    2.578097    0.020779
 C    2.309294    4.777360    1.283860
 C   -4.160409    0.222329    3.971384
 C   -3.620782   -0.831156    4.689748
 N   -2.244612    3.251701    0.723715
 C   -3.311068   -2.021908    4.053938
 C   -3.544402   -2.158800    2.695442
 C   -4.095067   -1.111121    1.980346
 O   -0.119112    3.717390   -1.992012
 C   -1.964815    3.508705   -0.479768
 C   -0.504781    3.676497   -0.836173
 C   -2.928943    3.715017   -1.592798
 O   -2.894267   -3.123835   -2.510562
 C   -2.837821   -2.876492   -1.335422
 O   -3.627189   -3.414032   -0.391303
 C   -4.783639   -4.123645   -0.850786
 C   -5.904720   -3.133744   -1.032546
 C   -6.167940   -2.590702   -2.283311
 C   -7.132758   -1.608070   -2.426465
 C   -7.833603   -1.155415   -1.321336
 C   -7.570531   -1.689867   -0.070742
 C   -6.609595   -2.674702    0.073783
 N   -1.886318   -2.092955   -0.723860
 C   -1.795751   -0.832218   -0.779184
 C   -2.724953    0.095890   -1.465201
 C   -0.658489   -0.182296   -0.024621
 O   -0.346359    0.984200   -0.198623
 N   -0.094106   -1.002104    0.869611
 C    1.050947   -0.635156    1.662229
 C    0.858311   -0.987992    3.150912
 C    0.464984   -2.452270    3.332292
 C   -0.187969   -0.060469    3.762559
 C    2.293301   -1.323152    1.087297
 O    2.210294   -2.383436    0.482057
 N    3.432480   -0.655196    1.321008
 C    4.733165   -0.998319    0.754731
 C    5.164948   -2.415999    1.160934
 C    6.601484   -2.659234    0.795260
 C    7.622677   -2.217841    1.627027
 C    8.947286   -2.419438    1.282919
 C    9.266166   -3.063138    0.099324
 C    8.254602   -3.503224   -0.737081
 C    6.929888   -3.302047   -0.391349
 C    4.741521   -0.806002   -0.785567
 O    4.043764   -1.792535   -1.488504
 C    1.580309    6.105242    1.469728
 C    3.797244    5.013688    1.032734
 C   -3.425529    2.998704    1.358119
 O   -3.900459    3.704784    2.206126
 O   -3.913956    1.788830    1.000707
 C   -4.960272    1.229387    1.805887
 C   -4.410097    0.084705    2.612692
 H    1.764641    2.550886   -1.925597
 H    2.186442   -0.016076   -1.061614
 H   -0.112673    3.619464    1.133309
 H    3.318088    1.370182   -3.531611
 H    3.315037   -0.387657   -3.274395
 H    1.144581   -1.588553   -2.960576
 H   -1.171812   -1.771456   -3.779620
 H   -2.256272    0.167998   -4.847461
 H   -1.024948    2.300366   -5.065641
 H    1.282479    2.476262   -4.267910
 H    1.903871    4.518779   -0.831507
 H    2.197025    4.168252    2.186702
 H   -4.389999    1.155037    4.465407
 H   -3.437406   -0.719502    5.748049
 H   -2.887018   -2.840236    4.617068
 H   -3.303323   -3.077756    2.182510
 H   -4.286913   -1.224123    0.924444
 H   -2.487741    3.342272   -2.515048
 H   -3.884807    3.238273   -1.392698
 H   -3.087808    4.787282   -1.717269
 H   -4.545943   -4.634072   -1.788790
 H   -5.008723   -4.849722   -0.067356
 H   -5.608884   -2.933807   -3.141431
 H   -7.334717   -1.192512   -3.402645
 H   -8.583361   -0.386161   -1.434055
 H   -8.112510   -1.337982    0.794939
 H   -6.397118   -3.085344    1.050139
 H   -2.135508    0.811143   -2.036258
 H   -3.418288   -0.434469   -2.113207
 H   -3.271635    0.657702   -0.707421
 H   -0.337620   -1.982640    0.813027
 H    1.172074    0.448383    1.563210
 H    1.820665   -0.813942    3.644578
 H   -0.559773   -2.614095    3.006833
 H    1.124465   -3.103208    2.763357
 H    0.533381   -2.727329    4.382076
 H   -0.362744   -0.321134    4.803205
 H    0.143829    0.973893    3.716522
 H   -1.129712   -0.144904    3.224925
 H    3.325719    0.326391    1.568744
 H    5.444968   -0.277434    1.168933
 H    4.523501   -3.150210    0.673962
 H    5.030108   -2.503998    2.241167
 H    7.377591   -1.717638    2.553475
 H    9.732489   -2.074563    1.939745
 H   10.300042   -3.221679   -0.169432
 H    8.497979   -4.005520   -1.661751
 H    6.142149   -3.640909   -1.047938
 H    5.787419   -0.851620   -1.119927
 H    3.347225   -2.169378   -0.917519
 H    1.667778    6.711703    0.570710
 H    0.524744    5.952818    1.679710
 H    2.018890    6.656149    2.297853
 H    3.939022    5.634368    0.150511
 H    4.245790    5.518937    1.884183
 H    4.316034    4.071555    0.878235
 H   -5.363845    2.016995    2.449358
 H   -5.728352    0.883227    1.106818
