53 
3kga_ligand_xtb.xyz
 N   -0.111713    0.460212    0.107911
 N   -0.233131   -0.820565    0.512950
 C    0.986123   -1.320481    0.549535
 C    1.949230   -0.336906    0.166255
 C    1.185054    0.783007   -0.092581
 C    3.390442   -0.473990    0.072665
 C    4.218223    0.623673    0.319460
 C    5.592736    0.517895    0.230970
 C    6.165831   -0.711302   -0.104787
 C    5.347798   -1.808214   -0.353949
 C    3.976158   -1.693943   -0.272501
 C    7.637181   -0.870169   -0.192187
 N    8.336761    0.292189   -0.244633
 C    7.724169    1.591225   -0.394128
 C    6.502528    1.678370    0.515931
 O    8.198986   -1.950315   -0.200011
 N    1.216064   -2.631856    0.886473
 C   -1.247021    1.251531   -0.062354
 C   -2.496849    0.652904    0.057439
 C   -3.660842    1.394226   -0.100097
 C   -3.556425    2.755716   -0.382951
 C   -2.314502    3.350781   -0.500318
 C   -1.155843    2.612939   -0.340235
 C   -4.975696    0.747437    0.020559
 C   -5.184061   -0.509195   -0.526939
 C   -6.442474   -1.076998   -0.399893
 N   -6.922244   -2.275320   -0.844459
 C   -8.233602   -2.394244   -0.474590
 C   -8.625776   -1.284485    0.208575
 C   -7.499957   -0.417763    0.274070
 C   -7.268750    0.842293    0.826611
 C   -6.022985    1.406100    0.690062
 H    1.490678    1.747321   -0.441373
 H    3.774448    1.569412    0.596711
 H    5.815564   -2.745159   -0.616746
 H    3.347242   -2.539530   -0.504793
 H    9.332113    0.204348   -0.384391
 H    7.415501    1.753198   -1.438323
 H    8.456787    2.357677   -0.131078
 H    6.826570    1.630005    1.560395
 H    5.984573    2.625997    0.364392
 H    0.420920   -3.068891    1.328377
 H    2.091586   -2.802271    1.358236
 H   -2.536018   -0.397602    0.295739
 H   -4.450541    3.342396   -0.529637
 H   -2.243708    4.405823   -0.720907
 H   -0.197879    3.100002   -0.427209
 H   -4.393856   -1.019185   -1.057986
 H   -8.795393   -3.272379   -0.730434
 H   -9.597353   -1.096937    0.619874
 H   -8.056869    1.361159    1.352091
 H   -5.825708    2.373811    1.127640
 H   -6.394852   -2.961737   -1.355943
