53 
3kga_ligand_dft.xyz
 N   36.840442    5.516601   13.880160
 N   37.874429    6.033536   13.160990
 C   38.722136    6.495039   14.064396
 C   38.242801    6.296622   15.394842
 C   37.034519    5.661807   15.211322
 C   38.870516    6.682486   16.665081
 C   38.914772    5.785683   17.737599
 C   39.489013    6.140125   18.954003
 C   40.044495    7.417424   19.100757
 C   40.011493    8.318910   18.038615
 C   39.423680    7.959770   16.836126
 C   40.687358    7.844672   20.381701
 N   40.529111    6.978698   21.430170
 C   39.533341    5.918999   21.435679
 C   39.579422    5.171429   20.107690
 O   41.324319    8.881838   20.487412
 N   39.954536    6.995069   13.685315
 C   35.719857    4.966645   13.218221
 C   35.488551    5.295401   11.885006
 C   34.383936    4.774509   11.208097
 C   33.513561    3.918134   11.892557
 C   33.757128    3.584772   13.218989
 C   34.861882    4.096191   13.889657
 C   34.134921    5.137925    9.789738
 C   34.341106    6.442399    9.356259
 C   34.091484    6.738334    8.016005
 N   34.202751    7.928586    7.335463
 C   33.840572    7.733646    6.020510
 C   33.488774    6.429434    5.828637
 C   33.638862    5.767333    7.093166
 C   33.438154    4.455959    7.548821
 C   33.683583    4.157192    8.874862
 H   36.293787    5.362099   15.937453
 H   38.507533    4.785864   17.606943
 H   40.444755    9.302954   18.184920
 H   39.355239    8.686608   16.030694
 H   40.857511    7.343204   22.313451
 H   39.757717    5.239978   22.262634
 H   38.523740    6.324984   21.599882
 H   38.766995    4.439017   20.063622
 H   40.524615    4.616727   20.042133
 H   39.992118    7.306748   12.725389
 H   40.383979    7.637440   14.333281
 H   36.197278    5.939315   11.377987
 H   32.635596    3.527635   11.387278
 H   33.081710    2.913458   13.740656
 H   35.060913    3.799155   14.913861
 H   34.664170    7.212342   10.051390
 H   33.864816    8.556561    5.320411
 H   33.160617    5.988987    4.898148
 H   33.101813    3.681591    6.865412
 H   33.554868    3.137272    9.225093
 H   34.507726    8.800893    7.732514
