21 
3kgp_ligand_dft.xyz
 C   -2.657772    0.152915    0.162093
 O   -3.126415    1.182028    0.563920
 C   -1.171648    0.004005   -0.061901
 N    3.699048    0.197267    0.860712
 C   -0.454548    1.162391   -0.369716
 C    0.919474    1.102987   -0.545296
 C    1.594241   -0.112378   -0.386167
 C    0.880202   -1.267801   -0.065519
 C   -0.500942   -1.209777    0.090199
 C    3.089061   -0.155984   -0.496291
 O   -3.425870   -0.918965   -0.085164
 H    4.724833    0.190540    0.846082
 H    3.388982    1.128389    1.159468
 H    3.383890   -0.465312    1.577483
 H   -0.991127    2.099908   -0.467711
 H    1.464181    2.004299   -0.818483
 H    1.393269   -2.219348    0.052513
 H   -1.039093   -2.113316    0.362381
 H    3.472666   -1.146090   -0.749350
 H    3.487659    0.575630   -1.201911
 H   -2.948716   -1.598235   -0.579904
