38 
3khj_ligand_xtb.xyz
 O   -0.611159   -0.932721   -0.843282
 S   -1.997242    3.301025   -0.462902
Br    6.373823   -0.317296   -0.625776
 C   -4.588951   -2.383597    0.295790
 N   -2.924554   -0.502412    0.560877
 C    2.252696   -0.809369   -0.700618
 N   -0.851089    1.527933    1.001746
 C   -5.831148   -2.636720   -0.247594
 N   -4.094551    1.067852   -0.529940
 C    1.910894   -0.851078    0.648987
 N    0.597504   -1.012426    1.094116
 C    3.573058   -0.649418   -1.075997
 C   -2.982159    0.794409    0.105868
 C   -0.464036    3.646507    0.230837
 C   -1.925901    1.735527    0.301898
 C   -6.070409   -0.366661   -1.062497
 C   -4.086028   -1.099471    0.150339
 C   -4.815485   -0.087847   -0.526527
 C    2.913105   -0.733651    1.612173
 C   -0.548672   -0.982987    0.359966
 C   -6.558894   -1.645163   -0.913042
 C   -0.022406    2.589856    0.966074
 C    4.232989   -0.576192    1.239982
 C   -1.811581   -1.099079    1.234053
 C    4.554154   -0.534792   -0.106473
 H   -4.036444   -3.159266    0.805949
 H    1.484386   -0.895983   -1.449782
 H   -6.254217   -3.626241   -0.158602
 H    0.496340   -0.996185    2.099385
 H    3.836532   -0.615525   -2.121740
 H    0.018659    4.587215    0.062569
 H   -6.625510    0.401646   -1.575450
 H    2.657015   -0.764507    2.661822
 H   -7.527404   -1.896683   -1.318906
 H    0.908503    2.539872    1.502171
 H    5.005393   -0.485363    1.987796
 H   -2.028135   -2.159511    1.393878
 H   -1.652314   -0.607008    2.198850
