22 
3khv_ligand_xtb.xyz
 C   -2.910837    0.392236    0.154473
 N    3.403702   -0.492415    0.803629
 O   -3.471229   -0.892873    0.237485
 C   -1.420818    0.296327   -0.016698
 C   -0.632936    1.441070    0.051548
 C    0.736193    1.359692   -0.111388
 C    1.339816    0.130657   -0.356068
 C    0.552499   -1.014438   -0.426395
 C   -0.815835   -0.931199   -0.258328
 C    2.829765    0.018855   -0.496675
 H   -3.128543    0.976626    1.061994
 H   -3.321672    0.946819   -0.704247
 H    4.420565   -0.629643    0.749523
 H    3.191068    0.174894    1.556558
 H    2.949426   -1.386522    1.034456
 H   -4.428220   -0.819695    0.309029
 H   -1.094595    2.399627    0.231999
 H    1.335681    2.256801   -0.064086
 H    1.006243   -1.973504   -0.633980
 H   -1.433927   -1.811824   -0.313401
 H    3.099623   -0.689613   -1.281099
 H    3.281187    0.986737   -0.714844
