64 
3kmm_ligand_dft.xyz
 N    0.989206    2.956807   -1.287894
 C    0.168272    2.008236   -0.824739
 N   -1.154204    2.394291   -0.794255
 N    0.505884    0.787016   -0.407885
 C    1.801223    0.480241   -0.484505
 C    1.175605   -1.708666    0.415357
 N    2.186992   -0.767809   -0.045895
 C    3.528605   -1.055335    0.274264
 O    3.827683   -2.045530    0.908343
 N    4.455150   -0.132341   -0.150535
 C    4.177419    0.923336   -1.120900
 C    2.757049    1.372262   -0.982816
 C    2.276139    2.612856   -1.354830
 C   -2.301378    1.740949   -0.354657
 C   -3.520694    2.426565   -0.494420
 C   -4.712589    1.859272   -0.082362
 C   -4.711380    0.587727    0.482060
 O   -5.951594    0.093753    0.871775
 C   -3.520197   -0.105098    0.636554
 C   -2.319284    0.465333    0.218304
 C   -6.036307   -1.257849    1.252491
 C   -7.531182   -1.535142    1.405196
 N   -8.285349   -0.877632    0.277023
 C   -9.500424   -0.142856    0.790037
 C  -10.204429    0.683840   -0.272099
 C   -8.604753   -1.801495   -0.866979
 C   -7.382816   -2.480910   -1.461857
 C    5.813521   -0.390736    0.159943
 C    6.588261   -1.269595   -0.603938
Cl    5.863253   -2.095425   -1.954694
 C    7.926003   -1.498510   -0.309728
 C    8.509213   -0.831834    0.761409
 C    7.770167    0.056615    1.533015
 C    6.432170    0.269572    1.225863
Cl    5.504945    1.387405    2.186471
 H   -1.271771    3.337216   -1.137438
 H    1.672407   -2.656636    0.609193
 H    0.700722   -1.352734    1.335345
 H    0.414716   -1.826775   -0.358383
 H    4.381676    0.558907   -2.138741
 H    4.862643    1.753169   -0.922050
 H    2.954687    3.374857   -1.734621
 H   -3.532301    3.420822   -0.932526
 H   -5.646182    2.402805   -0.188708
 H   -3.488133   -1.089178    1.092163
 H   -1.391344   -0.073935    0.340582
 H   -5.542420   -1.443891    2.213617
 H   -5.574402   -1.903130    0.496329
 H   -7.895012   -1.093648    2.333673
 H   -7.756038   -2.602988    1.414280
 H   -7.624608   -0.157259   -0.057358
 H   -9.131314    0.503878    1.589123
 H  -10.160125   -0.895995    1.229885
 H   -9.505009    1.337615   -0.804210
 H  -10.749313    0.075531   -0.997052
 H  -10.935200    1.325940    0.226152
 H   -9.095618   -1.190668   -1.625090
 H   -9.330467   -2.525726   -0.485876
 H   -6.617981   -1.754812   -1.755682
 H   -6.938815   -3.217161   -0.787674
 H   -7.695229   -3.014024   -2.363228
 H    8.498950   -2.190745   -0.915670
 H    9.553782   -1.006157    0.996778
 H    8.220575    0.580318    2.368141
