34 
3kmx_ligand_dft.xyz
 C    1.145533    1.023643   -0.482617
 N   -3.402450   -2.458064   -0.744270
 O    2.468119    1.241177   -0.333856
 S   -3.897741   -0.212493    0.647149
Cl    0.957154    3.382188    0.863828
 C    0.573282   -0.071759   -1.132865
 N   -2.444503   -2.419027    1.359905
 C   -0.808056   -0.187420   -1.248037
 C   -1.658442    0.779601   -0.719418
 C   -1.091356    1.875781   -0.066405
 C    0.282877    1.997305    0.048181
 C    3.393861    0.238745   -0.728721
 C    3.471867   -0.913770    0.265205
 C    4.485926   -1.973446   -0.167563
 C    4.596392   -3.120040    0.835755
 C   -3.150183    0.630380   -0.813014
 C   -3.155865   -1.849756    0.475679
 H   -3.099911   -3.425148   -0.754922
 H   -4.331469   -2.320209   -1.118252
 H    1.201115   -0.849383   -1.551420
 H   -2.258056   -1.786568    2.134807
 H   -1.230079   -1.055505   -1.746000
 H   -1.723445    2.645614    0.366215
 H    4.352693    0.761512   -0.776724
 H    3.165102   -0.116846   -1.742634
 H    2.483755   -1.375052    0.383116
 H    3.745586   -0.505817    1.245581
 H    5.470705   -1.505856   -0.300331
 H    4.199759   -2.372948   -1.149971
 H    4.914751   -2.752165    1.817461
 H    3.631032   -3.621809    0.965711
 H    5.323282   -3.868602    0.505105
 H   -3.647475    1.604207   -0.840041
 H   -3.436408    0.081917   -1.712840
