29 
3kmy_ligand_xtb.xyz
 C   -3.155705    1.929368   -0.213168
 N   -3.606825    0.804190    0.314634
Cl    4.420139    0.100914   -0.686760
 C   -2.957048   -0.328599    0.067021
 N   -3.438376   -1.436936    0.721472
 C   -1.809762   -0.384744   -0.749884
 C   -1.366466    0.806943   -1.292664
 C   -2.042774    1.991308   -1.029003
 C   -1.054437   -1.662913   -0.965227
 C   -0.219994   -2.019464    0.281831
 C    0.770186   -0.925866    0.554320
 C    0.443636    0.135186    1.389856
 C    1.333394    1.176550    1.583158
 C    2.562924    1.178488    0.947624
 C    2.885775    0.119045    0.116665
 C    2.002487   -0.926475   -0.085921
 H   -3.726986    2.814698    0.034244
 H   -4.350455   -1.298507    1.128205
 H   -3.291334   -2.334088    0.289279
 H   -0.485769    0.811610   -1.920053
 H   -1.708014    2.927994   -1.444670
 H   -0.383045   -1.543354   -1.817887
 H   -1.737958   -2.487034   -1.188648
 H    0.298929   -2.963430    0.105195
 H   -0.886768   -2.137168    1.136877
 H   -0.514594    0.146224    1.887516
 H    1.069008    1.997141    2.232786
 H    3.262193    1.986641    1.092936
 H    2.275543   -1.739995   -0.741241
