15 
3kpv_ligand_xtb.xyz
 N   -2.079355    0.567818   -0.000013
 C   -2.271595   -0.786474    0.000400
 N   -1.171415   -1.470362    0.000893
 C   -0.169825   -0.530745   -0.000064
 C    1.235000   -0.598279    0.000782
 N    1.912641   -1.758835   -0.011984
 N    1.923292    0.546130    0.002515
 C    1.266881    1.695426    0.000335
 N   -0.036823    1.897620   -0.000802
 C   -0.729540    0.759367   -0.000525
 H   -3.250413   -1.224541    0.000067
 H    1.408100   -2.624914    0.031376
 H    2.915347   -1.737033    0.029076
 H    1.882996    2.584666   -0.000308
 H   -2.779929    1.289450   -0.000037
