73 
3kqd_ligand_dft.xyz
 C    6.594053   -3.993429   -1.544090
 C    7.706435   -3.738313   -0.747670
 C   -3.838676   -2.229915    2.544312
 C    5.451152   -3.212372   -1.416873
 C    3.415830   -1.262222    0.789648
 C    3.626832   -0.705073   -1.532536
 C   -4.959352   -2.667027    1.852932
 C    7.663331   -2.690941    0.163165
 C   -3.191494   -1.053351    2.177907
 C    2.242984   -0.527148    0.870328
 C    2.444146    0.023769   -1.464633
 C   -4.794472   -0.760121    0.385016
 C    4.135462   -1.356388   -0.407841
 C    5.388450   -2.155311   -0.502858
 C   -5.448764   -1.928343    0.770678
 C   -1.733400    2.502378   -0.029820
 C    6.522881   -1.890859    0.287890
 C   -3.673709   -0.338040    1.090668
 C    1.739388    0.123825   -0.262512
 C   -1.764107    1.183180    0.363130
 C   -3.061774    2.930173    0.086263
 C   -6.633636   -2.400657    0.048694
 C   -0.576608    0.310209    0.416234
 C   -8.463891   -2.395244   -1.275337
 C   -0.462645    3.144263   -0.468971
 C    7.277467    2.380466   -0.831611
 C    7.797985    2.817255    0.560970
 C    0.416405    2.054763   -1.077748
 C    6.510921    1.087146   -0.579172
 C    7.587002    1.602374    1.480496
 C    6.593463   -0.714715    1.223625
 C   -3.596352    4.283804   -0.259156
 N   -3.854316    1.951857    0.504676
 N   -7.067679   -3.624605    0.086142
 N   -3.061877    0.891763    0.686862
 N   -7.419585   -1.618393   -0.766418
 N   -8.173398   -3.620142   -0.715656
 N    0.545308    0.884414   -0.190124
 N    7.272748    0.457474    0.555073
 O   -0.548093   -0.779163    0.956546
 O   -9.370729   -2.067317   -2.008460
 F   -4.831640    4.475149    0.190682
 F   -2.798301    5.237787    0.258769
 F   -3.599968    4.467842   -1.592602
 H    6.609452   -4.813285   -2.254794
 H    8.594493   -4.356187   -0.826709
 H   -3.470723   -2.800660    3.390257
 H    4.575252   -3.432421   -2.019439
 H    3.762488   -1.799297    1.669195
 H    4.151762   -0.778604   -2.481718
 H   -5.473137   -3.576774    2.143963
 H    8.526303   -2.500447    0.799463
 H   -2.322945   -0.703254    2.719888
 H    1.699518   -0.479579    1.804347
 H    2.060345    0.491352   -2.365040
 H   -5.130628   -0.173099   -0.462874
 H    0.043595    3.616645    0.381493
 H   -0.644360    3.922153   -1.215315
 H    8.109330    2.199543   -1.518701
 H    6.634040    3.131003   -1.293032
 H    7.244838    3.674443    0.948563
 H    8.850408    3.103043    0.516698
 H    1.422124    2.442648   -1.252247
 H   -0.002912    1.748691   -2.045883
 H    6.473290    0.390797   -1.416624
 H    5.494380    1.256807   -0.215169
 H    6.714670    1.717873    2.127957
 H    8.447119    1.333570    2.095388
 H    7.192482   -0.943620    2.109190
 H    5.616445   -0.350735    1.542375
 H   -7.385087   -0.618714   -0.882890
 H   -8.705774   -4.463425   -0.850224
 H    8.152729    0.104959    0.164894
