13 
3kqo_ligand_dft.xyz
 C   25.564112   59.098991  -26.391594
Cl   23.783624   60.262689  -24.692502
 C   24.731811   60.189042  -26.141144
 N   24.646978   61.188013  -26.996062
 C   25.384930   61.127328  -28.117831
 N   26.217218   60.161333  -28.493710
 C   26.271739   59.176851  -27.603014
 N   27.011642   58.024626  -27.645393
 C   26.721053   57.334818  -26.491792
 N   25.863339   57.935033  -25.715078
 H   25.282864   61.971319  -28.793130
 H   27.641263   57.750995  -28.383798
 H   27.181428   56.378961  -26.279953
