17 
3kqr_ligand_xtb.xyz
 C    1.199635    1.273170   -0.177272
 C    2.314277    0.375050    0.361459
 O   -1.470176    0.180948   -1.434432
 O   -2.244319   -0.008119    0.922136
 O   -0.250669   -1.437397    0.074755
 O   -0.037605    1.061811    0.482743
 N    2.233022   -0.996246   -0.193489
 P   -0.988244   -0.152100    0.015553
 H    1.081076    1.134521   -1.257224
 H    1.454836    2.317386    0.021211
 H    2.216662    0.316209    1.447008
 H    3.281062    0.819740    0.116978
 H   -2.214893    0.781644   -1.498158
 H   -2.180680   -0.393189    1.796489
 H    2.853596   -1.641254    0.300357
 H    1.176185   -1.333065   -0.082216
 H    2.463340   -1.014033   -1.190062
