17 
3kqr_ligand_dft.xyz
 C    1.234499    1.300224   -0.381896
 C    2.128618    0.357555    0.429378
 O   -2.166543   -0.469303   -0.906365
 O   -1.403496    0.915627    1.137486
 O   -0.322774   -1.391778    0.590047
 O    0.039470    0.689760   -0.871172
 N    2.186672   -1.010744   -0.183426
 P   -0.955859   -0.161616    0.051027
 H    1.751837    1.649388   -1.277406
 H    0.990745    2.166317    0.239743
 H    1.753945    0.210654    1.443607
 H    3.138258    0.769588    0.480678
 H   -2.654045    0.298879   -1.239895
 H   -1.817480    0.535462    1.927757
 H    2.911704   -1.586524    0.251962
 H    1.242331   -1.458504   -0.001070
 H    2.361917   -0.986934   -1.191655
