18 
3kr0_ligand_xtb.xyz
 C   -2.199169   -0.300464   -0.001038
 C   -1.110387   -1.160173   -0.002612
 C    0.154539   -0.595316    0.000279
 C    0.308579    0.811529    0.002211
 C   -0.774810    1.663639    0.002266
 C   -2.033493    1.087219    0.002257
 N    1.390932   -1.196594   -0.005381
 C    2.252492   -0.220320   -0.001275
 N    1.673857    1.022960   -0.007592
 N    3.608764   -0.377743    0.076563
 O   -3.448688   -0.855937   -0.003546
 H   -1.256603   -2.226308   -0.005551
 H   -0.656227    2.736726    0.003799
 H   -2.909484    1.722543    0.004614
 H    3.905603   -1.324233   -0.101082
 H    4.171517    0.328264   -0.371557
 H   -4.111790   -0.155897    0.000624
 H    2.145120    1.909348    0.039865
