17 
3kr2_ligand_xtb.xyz
 N   -3.593659   -0.374308    0.074483
 F    3.441901   -0.792925   -0.002731
 C    2.047572    1.097609    0.002151
 C    0.786891    1.667766    0.002546
 C    1.121979   -1.165717   -0.001961
 N   -1.380216   -1.197388   -0.006574
 N   -1.657214    1.022609   -0.007495
 C    2.184859   -0.286570   -0.000540
 C   -2.241091   -0.219227   -0.002813
 C   -0.145152   -0.599142   -0.000324
 C   -0.294545    0.809627    0.001649
 H   -3.899741   -1.318318   -0.098141
 H   -4.163566    0.342424   -0.345365
 H    2.934120    1.711113    0.004216
 H    0.661000    2.739615    0.004228
 H    1.271510   -2.231670   -0.003631
 H   -2.125882    1.910690    0.036126
