47 
3kr4_ligand_dft.xyz
 N    1.393135    0.302015   -0.763785
 C    1.405820   -0.803708    0.259921
 C    2.704495   -1.601233    0.124952
 C    3.919883   -0.703394    0.187059
 C    4.322729   -0.141458    1.402924
 C    4.613743   -0.365084   -0.978556
 C    5.401185    0.734861    1.451269
 C    5.693633    0.514681   -0.930766
 C    6.086865    1.066491    0.284017
 C    0.129411   -1.624326    0.023691
 O    0.090528   -2.022283   -1.335981
 C   -1.048439   -0.704026    0.377934
 O   -1.103148   -0.212033    1.492265
 N   -1.862393   -0.393523   -0.652952
 C   -2.765566    0.737712   -0.590743
 C   -3.875411    0.610890    0.470025
 C   -4.648881   -0.712155    0.398418
 C   -5.708151   -0.737983    1.503163
 C   -5.286858   -0.944643   -0.973735
 C   -1.942576    2.017653   -0.437300
 O   -0.730163    2.101729   -0.548557
 O   -2.702668    3.075879   -0.217318
 H    1.310442   -0.117848   -1.696199
 H    0.590546    0.967728   -0.639628
 H    2.279153    0.819683   -0.726805
 H    1.335870   -0.318742    1.235430
 H    2.688617   -2.159965   -0.818256
 H    2.720480   -2.336430    0.936887
 H    3.799462   -0.402794    2.320060
 H    4.328513   -0.815030   -1.927727
 H    5.711267    1.156224    2.402042
 H    6.231220    0.758504   -1.841495
 H    6.929645    1.748785    0.323999
 H    0.127887   -2.475167    0.711504
 H    0.116896   -2.982884   -1.408378
 H   -1.700367   -0.867484   -1.529623
 H   -3.238537    0.816157   -1.576540
 H   -4.567193    1.447658    0.323167
 H   -3.430279    0.722313    1.461898
 H   -3.939950   -1.528037    0.593148
 H   -5.257597   -0.586376    2.489587
 H   -6.233048   -1.698198    1.516275
 H   -6.455690    0.049152    1.348235
 H   -4.540689   -1.056374   -1.770051
 H   -5.949632   -0.113494   -1.244448
 H   -5.888371   -1.858880   -0.969727
 H   -2.131519    3.860055   -0.153095
