69 
3krd_ligand_xtb.xyz
 N   -2.285001   -1.072917   -0.268045
 C   -3.483576   -0.253633   -0.406732
 C   -3.736832    0.607555    0.849457
 O   -4.157466   -0.114836    1.967404
 C   -4.651462   -1.186153   -0.722627
 C   -5.964421   -0.486745   -1.092247
 C   -5.823131    0.377401   -2.342906
 C   -7.045568   -1.544581   -1.310693
 N    1.261118   -0.928885   -0.861760
 C    0.081403   -1.609887   -0.376497
 C   -1.053756   -0.579382   -0.391099
 O   -0.818849    0.610520   -0.559717
 C    0.329702   -2.205365    1.020233
 C    0.555730   -1.127344    2.078339
 C   -0.770712   -0.560602    2.549319
 O   -1.764561   -1.264008    2.665834
 N   -0.758992    0.739882    2.866109
 N    3.508764    0.688722   -0.723514
 C    3.535757   -0.518318   -1.519662
 C    2.443979   -1.511984   -1.071398
 O    2.663852   -2.701709   -0.920744
 C    4.918218   -1.176075   -1.422166
 C    5.212099   -1.468069    0.041528
 O    5.464640   -0.577930    0.834553
 N    5.175862   -2.767974    0.383199
 C    0.570037    3.893289   -0.366438
 C    1.552807    3.186697    0.567788
 C   -0.789936    4.111190    0.287629
 C    2.916401    2.947641   -0.128210
 O    1.028037    1.965776    1.050163
 C    2.802878    1.777697   -1.083635
 O    2.090288    1.782207   -2.074142
 H   -2.414171   -2.033572    0.009229
 H   -3.284530    0.435701   -1.234052
 H   -2.820152    1.177217    1.053710
 H   -4.533280    1.321133    0.623155
 H   -3.406092   -0.643123    2.305738
 H   -4.829926   -1.801375    0.162795
 H   -4.359071   -1.841406   -1.547812
 H   -6.271132    0.145123   -0.254440
 H   -5.147293    1.211764   -2.175653
 H   -5.444240   -0.214896   -3.173437
 H   -6.791487    0.782495   -2.627433
 H   -7.168916   -2.157080   -0.420874
 H   -7.999245   -1.073453   -1.535644
 H   -6.780622   -2.193917   -2.142953
 H    1.116016    0.040867   -1.128208
 H   -0.174297   -2.431369   -1.061123
 H    1.201765   -2.854663    0.944040
 H   -0.527444   -2.811725    1.319511
 H    1.032741   -1.576228    2.952881
 H    1.200898   -0.332099    1.707325
 H   -1.615558    1.168622    3.182075
 H   -0.000355    1.337900    2.561342
 H    4.112623    0.686601    0.091824
 H    3.313075   -0.234548   -2.558227
 H    5.670840   -0.483394   -1.800025
 H    4.927658   -2.090318   -2.011994
 H    4.672002   -3.411456   -0.207267
 H    5.258506   -2.997096    1.362006
 H    0.997903    4.854645   -0.655654
 H    0.451782    3.286848   -1.266557
 H    1.727757    3.805316    1.458639
 H   -1.269592    3.158835    0.499645
 H   -0.684919    4.665543    1.218651
 H   -1.437525    4.673867   -0.379344
 H    3.680884    2.742817    0.620691
 H    3.188316    3.842327   -0.687749
 H    0.449596    1.592118    0.356564
