59 
3kry_ligand_xtb.xyz
 S   -2.647413   -0.934063   -1.215627
 C   -0.901924   -1.221641   -1.112105
 C   -0.036997   -0.148278   -1.000833
 C    1.321182   -0.381373   -0.939765
 C    1.806750   -1.693191   -0.986415
 C    0.911163   -2.762232   -1.126608
 C   -0.443088   -2.527379   -1.182049
 C   -3.426249   -0.656346    0.535092
 C   -2.717257   -1.780840    1.374989
 N   -3.657197   -2.269235    2.123214
 O   -4.738601   -2.802165    1.993983
 O   -3.336031   -2.080188   -1.714772
 O   -2.933948    0.348031   -1.807440
 O   -1.513323   -1.752951    1.461374
 C   -2.983426    0.702316    1.041945
 C   -3.909629    1.237406    2.122055
 N   -5.329633    1.312555    1.675647
 C   -5.807224   -0.036816    1.258001
 C   -4.905696   -0.733823    0.238591
 C   -5.653824    2.439368    0.743497
 C   -5.493438    2.248623   -0.785710
 O   -5.563607    3.506033   -1.393503
 C   -6.860415    3.978588   -1.699940
 O    3.112559   -2.011297   -0.973622
 C    4.064542   -1.143595   -0.481694
 C    3.891412   -0.454903    0.715733
 C    4.908349    0.342895    1.197000
 C    6.100417    0.451319    0.490775
 C    6.287942   -0.247052   -0.691111
 C    5.263993   -1.045124   -1.172830
 O    7.049640    1.294642    1.074326
 C    8.218990    1.501912    0.489502
 F    8.120340    2.035272   -0.740198
 F    8.961595    0.393912    0.347111
 F    8.917137    2.350642    1.227796
 H   -0.426607    0.856773   -0.994162
 H    2.010277    0.446778   -0.877797
 H    1.307927   -3.762750   -1.185673
 H   -1.151569   -3.332605   -1.287897
 H   -2.943387    1.383700    0.189997
 H   -1.973134    0.624975    1.451874
 H   -3.585106    2.231648    2.434510
 H   -3.874047    0.572061    2.990111
 H   -5.859459    1.539392    2.522949
 H   -6.813405    0.058776    0.846722
 H   -5.868294   -0.652348    2.159245
 H   -5.223972   -1.782204    0.185161
 H   -5.049597   -0.330737   -0.764537
 H   -5.031047    3.294510    1.017508
 H   -6.696383    2.713144    0.925792
 H   -6.274922    1.584309   -1.177524
 H   -4.513199    1.851384   -1.059275
 H   -7.412916    3.252057   -2.303224
 H   -7.437089    4.219332   -0.800864
 H   -6.713954    4.886479   -2.279453
 H    2.973643   -0.562170    1.274085
 H    4.803077    0.883283    2.123043
 H    7.208273   -0.188217   -1.248733
 H    5.392717   -1.600079   -2.087738
