25 
3kv2_ligand_xtb.xyz
 N    0.709192    1.201042    0.955065
 C    1.589578    0.029492    0.941726
 C    2.554839    0.071978   -0.247201
 O    2.949993   -0.899200   -0.821992
 C    0.790942   -1.279697    0.928457
 C   -0.012495   -1.499776   -0.369859
 N   -1.448318   -1.468402   -0.167478
 C   -2.187965   -0.360145   -0.160229
 N   -1.581103    0.818713   -0.302674
 N   -3.514937   -0.425455   -0.059352
 O   -2.414124    1.944898   -0.214224
 O    2.923929    1.318653   -0.540499
 H    1.211796    2.013270    0.606453
 H    0.405052    1.405514    1.902622
 H   -0.598339    0.978080    0.146354
 H    2.244501    0.017034    1.827530
 H    1.502711   -2.094309    1.051000
 H    0.114997   -1.293361    1.784097
 H    0.232693   -2.474530   -0.788536
 H    0.250093   -0.747358   -1.114967
 H   -1.915167   -2.349500   -0.020442
 H   -4.015186   -1.296232   -0.055027
 H   -4.033021    0.439820   -0.027045
 H   -2.229899    2.503019   -0.985294
 H    3.588137    1.331350   -1.249315
