57 
3kwf_ligand_dft.xyz
 N    3.640564   -0.512723   -0.234882
 C    2.228576   -0.412203   -0.504793
 N   -0.017997   -1.477077   -0.115098
 C   -0.596832   -0.182468    0.429010
 C    4.143031   -0.464186    1.054904
 C   -2.096380   -0.156109    0.200682
 C    1.456783   -1.591870    0.110629
 C    0.146432    0.992188   -0.223082
 C    1.642874    0.898561    0.043288
 C   -2.825193   -1.319449   -0.042018
 C   -2.777776    1.063414    0.300387
 C   -4.147457    1.163121    0.113305
 C    4.679054   -0.685532   -1.253661
 C   -4.205532   -1.229559   -0.244872
 C   -4.880035   -0.013846   -0.197563
 C    5.647577   -0.575042    0.960836
 C   -0.764485   -2.661606    0.456405
 C    5.957566   -0.240265   -0.508983
 O    3.443265   -0.342701    2.042309
 C   -2.166551   -2.678683   -0.119535
 N    2.385241    2.060478   -0.562302
 O   -4.666463    2.398638    0.175382
 O   -6.187129    0.141545   -0.436191
 F    5.131685    2.008851   -0.269233
 C    6.243795    1.236197   -0.713672
 C   -6.979718   -0.997742   -0.744711
 C   -5.957626    2.626663    0.757775
 H    2.097360   -0.434094   -1.595888
 H   -0.200222   -1.481654   -1.125854
 H   -0.352767   -0.210767    1.499431
 H    1.626067   -1.626337    1.189443
 H    1.793709   -2.529577   -0.335462
 H   -0.254264    1.916832    0.198608
 H   -0.071872    1.011769   -1.300334
 H    1.858187    0.943168    1.113989
 H   -2.276759    1.993817    0.545207
 H    4.743059   -1.729074   -1.581028
 H    4.469728   -0.066643   -2.134126
 H   -4.755166   -2.139622   -0.459532
 H    6.124620    0.084674    1.688677
 H    5.934635   -1.602609    1.210486
 H   -0.758148   -2.530963    1.541692
 H   -0.200513   -3.561357    0.202038
 H    6.829580   -0.786950   -0.878071
 H   -2.746554   -3.416750    0.443167
 H   -2.136951   -3.043383   -1.155455
 H    3.418218    1.926774   -0.484225
 H    2.158695    2.196728   -1.553254
 H    2.160445    2.937876   -0.080616
 H    7.095743    1.573422   -0.121143
 H    6.398942    1.487076   -1.765591
 H   -6.630074   -1.478261   -1.664973
 H   -6.975992   -1.715404    0.082817
 H   -7.989429   -0.619095   -0.893628
 H   -6.101203    2.001181    1.643234
 H   -5.955079    3.677275    1.047385
 H   -6.749833    2.438164    0.034091
