56 
3kwj_ligand_dft.xyz
 N    0.040203   -1.313948   -0.116376
 C    2.160906   -0.205807   -0.878985
 C    0.023367    1.124171   -0.597635
 C    1.537375   -1.306837   -0.017351
 C   -2.755963   -1.309488    0.184633
 C    1.541196    1.134055   -0.466526
 C    3.675250   -0.199458   -0.774577
 C   -4.905643   -0.169807    0.003386
 C    4.295069    0.077925    0.449574
 C    4.456994   -0.450868   -1.903622
 C    6.331390    0.370960    1.888494
 C   -6.965038   -1.355148   -0.153978
 F    5.375447    0.766890    2.801411
 C    5.682135    0.094623    0.554163
 C    6.455398   -0.165947   -0.580354
 C    5.847312   -0.436366   -1.799969
 N    2.163170    2.225601   -1.307088
 C   -0.584725    0.013552    0.274411
 C   -2.095957   -0.081461    0.172663
 C   -2.853840    1.095966    0.133398
 C   -2.011016   -2.623451    0.259780
 C   -0.570590   -2.435297    0.691773
 C   -4.150442   -1.334883    0.093678
 O   -6.234805   -0.135046   -0.141292
 C   -4.237834    1.083227    0.052943
 O   -4.836335    2.279973   -0.039761
 C   -6.096206    2.526648    0.600755
 H   -0.218006   -1.487782   -1.095112
 H    1.884703   -0.401121   -1.926494
 H   -0.398264    2.076338   -0.267179
 H   -0.284794    0.979715   -1.642013
 H    1.899124   -2.284745   -0.341297
 H    1.784815   -1.183533    1.040921
 H    1.833567    1.376250    0.560030
 H    3.719033    0.273081    1.350493
 H    3.990619   -0.676732   -2.859824
 H    7.081015    1.164193    1.800627
 H    6.821668   -0.531066    2.270042
 H   -6.662400   -1.983658   -0.998629
 H   -8.009461   -1.071191   -0.270346
 H   -6.835382   -1.897232    0.788985
 H    7.539790   -0.156787   -0.510840
 H    6.454814   -0.639625   -2.675449
 H    1.884734    2.163229   -2.293163
 H    3.190297    2.126845   -1.271161
 H    1.917150    3.164689   -0.974701
 H   -0.263129    0.161219    1.314619
 H   -2.403871    2.081695    0.180996
 H   -2.488509   -3.293903    0.981073
 H   -2.042377   -3.146245   -0.705764
 H    0.032213   -3.329718    0.522013
 H   -0.483034   -2.140513    1.740940
 H   -4.649022   -2.297871    0.076771
 H   -6.139091    3.607328    0.734763
 H   -6.141536    2.033000    1.575352
 H   -6.923006    2.193295   -0.025601
