51 
3kwz_ligand_xtb.xyz
 N   -1.064876    0.543451   -0.121773
 C   -1.477437   -0.716694    0.028850
 C   -0.552559   -1.726982    0.314770
 C    0.784684   -1.365254    0.424719
 N    1.165655   -0.101253    0.290434
 C    0.217169    0.799637    0.024921
 C   -2.916858   -0.951385   -0.112017
 C    1.851975   -2.391923    0.697833
 C    3.228934   -1.778625    0.966370
 C    3.798666   -1.141551   -0.298884
 N    5.132309   -0.520002   -0.090766
 C   -3.776722    0.142937   -0.022969
 C   -5.143191   -0.040691   -0.144509
 C   -5.675865   -1.306146   -0.354903
 C   -4.819957   -2.390162   -0.456793
 C   -3.453143   -2.219376   -0.336549
 C   -6.049195    1.154688   -0.006201
 F   -5.540050    2.247715   -0.593689
 F   -7.259790    0.955138   -0.537597
 F   -6.244221    1.477508    1.286238
 C    5.063722    0.750228    0.677753
 C    6.464054    1.263559    0.985541
 C    7.236576    1.495855   -0.308740
 C    7.258108    0.208190   -1.126246
 C    5.839504   -0.287811   -1.376590
 C    0.684749    2.192134   -0.127848
 N    1.817353    2.599335    0.236648
 H   -0.853892   -2.750610    0.458540
 H    1.901919   -3.077930   -0.151993
 H    1.548011   -2.979057    1.566641
 H    3.899921   -2.562745    1.324772
 H    3.109936   -1.033475    1.752736
 H    3.107103   -0.372603   -0.650227
 H    3.897671   -1.908534   -1.070407
 H    5.706303   -1.172114    0.458160
 H   -3.363422    1.126141    0.139386
 H   -6.742872   -1.436773   -0.445744
 H   -5.224820   -3.374506   -0.632335
 H   -2.806805   -3.077416   -0.438950
 H    4.513509    0.576210    1.602492
 H    4.519755    1.480166    0.074188
 H    6.996120    0.546858    1.615684
 H    6.378179    2.193606    1.545977
 H    8.254107    1.810866   -0.084932
 H    6.761146    2.291645   -0.883402
 H    7.831236   -0.558273   -0.599185
 H    7.743611    0.377424   -2.086607
 H    5.269714    0.452263   -1.942253
 H    5.858929   -1.221237   -1.942598
 H   -0.002754    2.887095   -0.592427
 H    2.361587    1.865267    0.695080
