53 
3l08_ligand_dft.xyz
 C   -4.483847    3.688086    1.455905
 C    2.440479    3.397986    0.303372
 C   -3.848336   -2.536047    1.297092
 C    3.800066    3.249174    0.245158
 C   -3.878816   -1.771932    0.142357
 C    3.332800   -2.608531   -1.095546
 C    5.517054   -0.509107   -0.179877
 C    2.521860   -3.735562   -0.953926
 C    6.266019    0.690307   -0.133428
 C    2.128351    1.016331    0.078845
 C   -1.414468   -2.517127    1.230340
 C   -0.710877    1.727516   -0.660813
 C    2.533740   -2.018018    1.043742
 C   -0.513354    3.254224    1.167598
 C    1.579250    2.272145    0.205867
 C   -2.610218   -2.894074    1.817995
 C    3.340370   -1.695263   -0.057882
 C    4.149183   -0.453176   -0.075506
 C    4.382909    1.964597    0.099011
 C   -2.696965   -1.361380   -0.480334
 C    0.107238    2.431676    0.238464
 C    3.530891    0.828520    0.040032
 C   -2.083084    1.847561   -0.565927
 C   -1.478101   -1.746241    0.080519
 C   -2.595501    2.707692    0.430925
 N    5.740705    1.881962    0.013758
 N    1.768069   -3.976358    0.113845
 N   -1.843315    3.395864    1.259345
 N    1.785859   -3.110472    1.122190
 N   -3.001923    1.211791   -1.420831
 O   -4.139769   -0.658445   -2.542428
 O   -1.614925   -0.469793   -2.708140
 O   -3.939343    2.806710    0.480685
 F   -2.570179   -3.634896    2.925883
 F   -0.322547   -1.386829   -0.485182
 S   -2.846080   -0.365520   -1.954632
 H   -4.194455    3.377579    2.463355
 H   -4.138703    4.711791    1.288616
 H   -5.564905    3.624642    1.331702
 H    2.005456    4.389467    0.390296
 H   -4.757327   -2.865896    1.785509
 H    4.469559    4.101529    0.290541
 H   -4.827154   -1.498606   -0.307493
 H    3.915870   -2.447478   -1.996807
 H    6.028945   -1.462711   -0.264959
 H    2.459312   -4.483914   -1.738150
 H    7.350970    0.644385   -0.207784
 H    1.470042    0.156977    0.007882
 H   -0.453049   -2.829773    1.628271
 H   -0.275251    1.105867   -1.434782
 H    2.487494   -1.360228    1.907485
 H    0.073225    3.813821    1.892322
 H   -3.971539    1.442967   -1.231178
