53 
3l08_ligand_xtb.xyz
 C   -4.250359    4.047470    1.521980
 C    2.523913    3.360188    0.239577
 C   -3.948783   -2.684317    1.075155
 C    3.872955    3.168179    0.163326
 C   -3.918604   -1.830603   -0.011619
 C    3.302540   -2.748175   -0.946023
 C    5.461070   -0.643248   -0.179430
 C    2.451909   -3.836134   -0.767683
 C    6.237986    0.526415   -0.166007
 C    2.133843    0.992217    0.056824
 C   -1.521001   -2.674609    1.139153
 C   -0.690972    1.723493   -0.557300
 C    2.372775   -1.955025    1.076442
 C   -0.380719    3.393413    1.116298
 C    1.631677    2.267951    0.172118
 C   -2.744868   -3.092466    1.631824
 C    3.257721   -1.742377    0.007615
 C    4.093790   -0.538996   -0.063854
 C    4.409318    1.868063    0.045199
 C   -2.712118   -1.388271   -0.527164
 C    0.180711    2.476471    0.240121
 C    3.518859    0.758148    0.021784
 C   -2.053687    1.907775   -0.440205
 C   -1.531089   -1.815460    0.052465
 C   -2.506034    2.870662    0.492719
 N    5.745700    1.726475   -0.043622
 N    1.619601   -3.936296    0.248661
 N   -1.689058    3.582319    1.235340
 N    1.594916   -3.010148    1.163496
 N   -2.981474    1.221952   -1.211259
 O   -4.010752   -0.512632   -2.613728
 O   -1.553861   -0.293813   -2.659445
 O   -3.841538    3.046141    0.607528
 F   -2.768354   -3.919168    2.684537
 F   -0.356259   -1.393546   -0.430878
 S   -2.779018   -0.266731   -1.933084
 H   -3.899468    3.813717    2.529073
 H   -3.850316    5.020040    1.229398
 H   -5.337482    4.056764    1.488272
 H    2.120408    4.358679    0.318562
 H   -4.878896   -3.040366    1.487636
 H    4.564536    3.995659    0.181651
 H   -4.824638   -1.504944   -0.496721
 H    3.950813   -2.676712   -1.806398
 H    5.937980   -1.609837   -0.245567
 H    2.423336   -4.654523   -1.472784
 H    7.315653    0.462289   -0.246876
 H    1.455509    0.156459   -0.006664
 H   -0.583067   -3.010069    1.560729
 H   -0.312759    1.022465   -1.283057
 H    2.295960   -1.246073    1.889485
 H    0.227281    3.995341    1.776525
 H   -3.942614    1.470986   -1.039900
