41 
3l0k_ligand_dft.xyz
 O   -4.448196   -0.985559   -0.908579
 P   -2.969517   -1.356649   -0.415656
 O   -2.945675   -2.306363    0.718982
 O   -2.243360   -1.761105   -1.759839
 O   -2.279700    0.055608   -0.102712
 C   -2.442679    0.664982    1.179382
 C   -1.402919    1.755451    1.333787
 C   -1.264687    2.671584    0.118434
 C   -0.033696    2.106697   -0.604255
 O    0.534134    3.143881   -1.352040
 C    0.813282    1.635367    0.599427
 O   -0.108692    1.172934    1.551065
 N    1.761542    0.530949    0.349983
 C    1.583622   -0.764178    0.979939
 C    0.685482   -1.688362    0.150496
 C    0.223851   -2.966517    0.790885
 O    0.346144   -1.363218   -0.973644
 C    2.948145   -1.402358    1.267501
 C    3.835172   -1.408319    0.043180
 O    4.686416   -2.235887   -0.185399
 N    3.610741   -0.331395   -0.793957
 C    2.706107    0.714283   -0.606982
 O    2.817993    1.727489   -1.288373
 O   -0.987458    3.973415    0.572900
 H   -5.083777   -1.617691   -0.547493
 H   -1.264695   -1.761370   -1.649844
 H   -2.330961   -0.087425    1.966269
 H   -3.443455    1.107502    1.243747
 H   -1.659091    2.357196    2.212079
 H   -2.157154    2.649412   -0.520019
 H   -0.301532    1.237668   -1.216242
 H    1.447935    2.867625   -1.550236
 H    1.386428    2.487859    0.987977
 H    1.064040   -0.605658    1.927048
 H    0.395430   -3.799738    0.103411
 H    0.715921   -3.168505    1.744710
 H   -0.859910   -2.895604    0.960734
 H    3.456640   -0.821757    2.045836
 H    2.856801   -2.427779    1.628373
 H    4.242709   -0.208819   -1.574983
 H   -0.411479    4.358602   -0.108361
