35 
3l0n_ligand_dft.xyz
 O   -4.155662   -3.285612    0.304882
 C   -3.468447   -2.295525    0.172237
 C   -3.904756   -0.998033   -0.299815
 C   -3.042245    0.037611   -0.408804
 S   -3.571155    1.625937   -0.997219
 N   -2.100218   -2.326339    0.483383
 C   -1.198191   -1.306122    0.396813
 O   -0.027830   -1.463431    0.715118
 N   -1.696934   -0.087478   -0.062751
 C   -0.765926    1.032766   -0.145735
 O    0.286619    0.736841   -1.017433
 C   -0.103116    1.487232    1.165365
 O   -0.963107    2.201630    1.998552
 C    1.059817    2.330937    0.597177
 O    0.641110    3.686117    0.472626
 C    1.285983    1.739914   -0.812392
 C    2.655383    1.124193   -1.012459
 O    3.013743    0.363065    0.136521
 P    3.391394   -1.202134    0.018188
 O    2.195171   -1.839135   -0.804186
 O    4.542714   -1.264114   -1.106312
 O    3.772076   -1.747751    1.327075
 H   -4.950717   -0.900755   -0.554941
 H   -4.822961    1.220250   -1.252750
 H   -1.725703   -3.204492    0.821833
 H   -1.336583    1.889668   -0.525192
 H    0.281256    0.625181    1.709379
 H   -1.021891    3.088877    1.609954
 H    1.956898    2.251734    1.214455
 H    1.012641    4.184667    1.208827
 H    1.143328    2.544676   -1.546359
 H    3.398611    1.919468   -1.129578
 H    2.650214    0.511296   -1.918580
 H    1.340734   -1.700829   -0.336474
 H    5.372132   -1.534697   -0.691377
