35 
3l0n_ligand_xtb.xyz
 O   -3.800799   -3.515615    0.144040
 C   -3.220269   -2.461271    0.062872
 C   -3.811744   -1.155822   -0.084419
 C   -3.047521   -0.042507   -0.180948
 S   -3.786480    1.542565   -0.352733
 N   -1.822237   -2.411100    0.112897
 C   -1.021390   -1.313245    0.038699
 O    0.185085   -1.397751    0.120532
 N   -1.674571   -0.098991   -0.130600
 C   -0.861047    1.091316   -0.279823
 O    0.063432    0.939402   -1.316377
 C   -0.040068    1.488578    0.958805
 O   -0.867160    2.123505    1.897744
 C    0.964654    2.452418    0.295371
 O    0.403754    3.729129    0.155244
 C    1.184069    1.796713   -1.080663
 C    2.495229    1.006402   -1.137659
 O    2.731064    0.401122    0.117827
 P    3.354984   -1.065699    0.232283
 O    2.620403   -1.961201   -0.853509
 O    4.796189   -0.896227   -0.439799
 O    3.367704   -1.545883    1.608641
 H   -4.886642   -1.109686   -0.115719
 H   -5.036998    1.076752   -0.358498
 H   -1.343240   -3.297207    0.237891
 H   -1.543377    1.928430   -0.503005
 H    0.479366    0.616073    1.364222
 H   -0.394473    2.193731    2.735033
 H    1.906402    2.512470    0.852510
 H   -0.321795    3.803986    0.795922
 H    1.187629    2.568633   -1.859554
 H    3.322089    1.686830   -1.360564
 H    2.423892    0.249341   -1.921636
 H    1.695945   -2.027179   -0.580228
 H    5.398927   -1.514436   -0.031131
