64 
3l13_ligand_xtb.xyz
 C    0.358207   -0.797939    1.683119
 N   -1.853443   -1.457457    0.915782
 O   -3.934341    4.638028   -0.134129
 S    0.447710    1.669683    0.895992
 C    1.168966    0.287232    1.688737
 N   -3.143775    0.170265   -0.190128
 O    7.142516   -2.211214   -1.183139
 S    7.134867   -0.790077   -1.337818
 C   -0.892494   -0.549875    1.041444
 N   -2.483706    2.288598   -0.700011
 O    6.812815   -0.217867   -2.601327
 C   -1.000534    0.767319    0.555619
 N    3.565216   -0.175284    1.317625
 O   -7.611237   -0.660316   -1.418616
 C   -2.958159   -1.051071    0.302235
 N    5.956597   -0.170182   -0.231483
 C   -2.210517    1.114357   -0.101461
 C   -4.058939   -2.000768    0.159066
 C   -1.800534    3.538711   -0.467351
 C   -2.673476    4.421699    0.441182
 C   -4.610842    3.422128   -0.370668
 C   -3.792260    2.511400   -1.291259
 C    2.541223    0.387677    2.257417
 C    4.896877   -0.315572    1.948927
 C    5.874056   -0.967066    0.972871
 C    4.660191   -0.062920   -0.872582
 C    3.686917    0.624052    0.073473
 C    8.649962   -0.066856   -0.699036
 C   -3.900384   -3.325948    0.559261
 C   -4.949636   -4.214958    0.420822
 C   -6.156652   -3.794350   -0.110296
 C   -6.326846   -2.471926   -0.509309
 C   -5.277305   -1.582305   -0.373479
 C   -7.648788   -2.028054   -1.080319
 H    0.585612   -1.749800    2.126957
 H    3.244754   -1.112764    1.041142
 H   -8.469517   -0.406974   -1.772338
 H   -1.668486    4.039707   -1.432267
 H   -0.822259    3.390930   -0.014845
 H   -2.779055    3.934201    1.424159
 H   -2.219469    5.405027    0.571867
 H   -5.561137    3.686210   -0.834124
 H   -4.800440    2.901961    0.580087
 H   -4.287015    1.552269   -1.427053
 H   -3.646374    3.002413   -2.257604
 H    2.599260   -0.177043    3.191691
 H    2.801326    1.429753    2.452941
 H    4.809731   -0.921291    2.852519
 H    5.249291    0.682696    2.215182
 H    6.864309   -1.007565    1.425672
 H    5.568069   -1.999201    0.743874
 H    4.275850   -1.053119   -1.162949
 H    4.797665    0.524214   -1.780574
 H    4.059248    1.614150    0.341015
 H    2.704051    0.721493   -0.389638
 H    8.979031   -0.624904    0.166731
 H    9.388499   -0.131976   -1.489258
 H    8.443443    0.968153   -0.463768
 H   -2.955019   -3.639149    0.972728
 H   -4.829331   -5.242839    0.728529
 H   -6.973588   -4.493438   -0.215542
 H   -5.408038   -0.557506   -0.676914
 H   -7.872948   -2.639430   -1.968774
 H   -8.437147   -2.220298   -0.335517
