64 
3l13_ligand_dft.xyz
 C    0.348054   -1.021668    1.607477
 N   -1.884508   -1.609064    0.813959
 O   -3.481379    5.044873   -0.606193
 S    0.383255    1.541359    1.228375
 C    1.141501    0.066477    1.769055
 N   -3.242488    0.176368    0.035684
 O    7.591826   -2.029777   -1.227028
 S    7.203706   -0.638633   -1.376231
 C   -0.926732   -0.697767    1.025108
 N   -2.652285    2.394216   -0.053192
 O    6.774934   -0.091856   -2.648716
 C   -1.050943    0.670961    0.744998
 N    3.521438   -0.445198    1.268041
 O   -7.641445   -0.575584   -1.479516
 C   -3.020743   -1.116000    0.328953
 N    5.910276   -0.332415   -0.287381
 C   -2.309437    1.103822    0.222678
 C   -4.139000   -2.056246    0.080868
 C   -1.696249    3.420892   -0.456584
 C   -2.212849    4.800421   -0.057371
 C   -4.411502    4.086122   -0.147533
 C   -4.007543    2.672612   -0.542996
 C    2.532485    0.061103    2.304550
 C    4.869494   -0.730357    1.867725
 C    5.815260   -1.285140    0.813571
 C    4.616895   -0.119174   -0.932732
 C    3.652293    0.470846    0.079294
 C    8.492070    0.389864   -0.702525
 C   -4.005471   -3.406970    0.409433
 C   -5.062839   -4.279100    0.180283
 C   -6.248622   -3.809595   -0.373538
 C   -6.391029   -2.461528   -0.708854
 C   -5.332860   -1.591495   -0.479962
 C   -7.684468   -1.976403   -1.320167
 H    0.600204   -2.034323    1.905526
 H    3.137225   -1.330323    0.917528
 H   -8.463827   -0.299392   -1.897672
 H   -1.559158    3.384341   -1.547335
 H   -0.723439    3.264561    0.008606
 H   -2.244935    4.872079    1.042223
 H   -1.542909    5.573145   -0.442119
 H   -5.372438    4.336808   -0.601301
 H   -4.510709    4.149770    0.947657
 H   -4.695516    1.946579   -0.112781
 H   -4.035841    2.560585   -1.635682
 H    2.617007   -0.617303    3.157662
 H    2.883015    1.049992    2.610807
 H    4.726466   -1.443386    2.682785
 H    5.238181    0.216077    2.270704
 H    6.793502   -1.426437    1.278253
 H    5.478617   -2.276260    0.472115
 H    4.204049   -1.051853   -1.351069
 H    4.734242    0.582224   -1.759464
 H    4.014692    1.427968    0.462697
 H    2.656565    0.599563   -0.347599
 H    8.710531    0.078700    0.320301
 H    9.372615    0.237188   -1.330498
 H    8.168256    1.429828   -0.742447
 H   -3.077777   -3.760857    0.844540
 H   -4.964537   -5.329111    0.437670
 H   -7.072718   -4.498547   -0.545916
 H   -5.436197   -0.546089   -0.739766
 H   -7.830893   -2.480677   -2.288566
 H   -8.520729   -2.277148   -0.669730
