61 
3l16_ligand_dft.xyz
 C   -2.849731   -0.699035    0.313217
 N   -1.867009   -1.372574    0.907434
 O   -1.975765    5.381606   -0.886483
 S    0.838282    1.359151    1.567728
 C   -1.740643    1.349186    0.248111
 N   -2.809758    0.608905   -0.016438
 O    4.065365    0.561111   -2.007183
 S    4.356824   -0.862198   -1.939277
 C   -0.789055   -0.640063    1.211378
 N    3.752141   -0.748560    2.009320
 O    3.294982   -1.853868   -2.000358
 C   -0.645253    0.720497    0.911655
 N   -1.789422    2.677018   -0.076985
 C    1.286051   -0.216308    2.179291
 N    5.190430   -1.118371   -0.470743
 C    0.343708   -1.159737    1.929093
 N   -5.313598   -3.497389    0.030251
 C    2.561660   -0.434616    2.914975
 N   -7.397096   -3.676738   -0.913374
 C   -4.077758   -1.427617   -0.028906
 C    4.194752    0.429359    1.180779
 C    5.424555    0.060199    0.354850
 C    4.770251   -2.269155    0.320991
 C    3.525918   -1.967577    1.153420
 C   -3.038198    3.209812   -0.627415
 C   -3.102167    4.709137   -0.365049
 C   -0.793932    4.897253   -0.300604
 C   -0.621035    3.406477   -0.568547
 C   -4.232981   -2.775319    0.303232
 C   -6.323384   -2.892783   -0.614654
 C   -5.145938   -0.809969   -0.698579
 C   -6.275748   -1.534760   -0.997702
 C    5.586036   -1.259800   -3.161254
 H    4.526434   -0.968916    2.644194
 H    0.398302   -2.194813    2.247975
 H    2.862111    0.433966    3.507669
 H    2.467102   -1.295065    3.582456
 H   -7.432172   -4.580673   -0.467535
 H   -8.275100   -3.253087   -1.164670
 H    4.399957    1.253719    1.868648
 H    3.362526    0.700414    0.528339
 H    5.685318    0.913644   -0.270894
 H    6.284686   -0.150990    1.002912
 H    5.612668   -2.559082    0.961565
 H    4.546419   -3.114653   -0.329827
 H    2.672037   -1.755160    0.507942
 H    3.275253   -2.794330    1.823021
 H   -3.877779    2.706180   -0.148833
 H   -3.091756    3.009006   -1.706830
 H   -3.978581    5.136157   -0.857080
 H   -3.182417    4.889505    0.718793
 H   -0.800096    5.074583    0.787510
 H    0.033727    5.455064   -0.745217
 H   -0.516601    3.240631   -1.651048
 H    0.294886    3.057489   -0.091569
 H   -3.432393   -3.292360    0.825092
 H   -5.067784    0.234776   -0.979473
 H   -7.110895   -1.082394   -1.522910
 H    5.119714   -1.122856   -4.139296
 H    6.431812   -0.581712   -3.042282
 H    5.891814   -2.298203   -3.027630
