50 
3l1n_ligand_xtb.xyz
 C   -7.279286    0.189242   -0.503915
 O   -6.955439    0.949908   -1.567543
 O   -8.219866    0.463606    0.180941
 C   -6.354955   -0.986776   -0.258508
 C   -4.998037   -0.501895    0.268496
 C   -4.044299   -1.672212    0.502250
 C   -2.716219   -1.247852    1.130251
 C   -1.832118   -0.425227    0.194909
 C   -0.480668   -0.106600    0.830470
 C    0.409207    0.719241   -0.095414
 C    1.748579    1.063659    0.551863
 C    2.631188    1.891127   -0.379844
 C    3.906832    2.407073    0.287843
 C    4.871904    1.321463    0.766782
 C    5.419996    0.454202   -0.364279
 C    6.514663   -0.491474    0.124241
 C    7.058621   -1.370621   -0.999347
 C    8.162375   -2.300294   -0.510404
 H   -6.177023    0.616410   -2.032782
 H   -6.216423   -1.546821   -1.187759
 H   -6.822803   -1.641474    0.476952
 H   -5.154708    0.031562    1.208120
 H   -4.551124    0.198442   -0.441109
 H   -3.849291   -2.178690   -0.446428
 H   -4.531379   -2.390182    1.165712
 H   -2.169462   -2.147266    1.423025
 H   -2.914761   -0.674063    2.038037
 H   -2.329241    0.512796   -0.058985
 H   -1.671660   -0.980864   -0.732506
 H    0.028735   -1.039080    1.084802
 H   -0.642336    0.444364    1.759937
 H   -0.109335    1.643109   -0.363657
 H    0.586976    0.161919   -1.018543
 H    2.259600    0.138048    0.821692
 H    1.569494    1.625866    1.471586
 H    2.058092    2.754955   -0.727313
 H    2.887695    1.298534   -1.259547
 H    3.626518    3.024383    1.145265
 H    4.432011    3.050962   -0.422364
 H    4.379281    0.687427    1.505850
 H    5.710347    1.811760    1.268612
 H    5.825145    1.098836   -1.148290
 H    4.613289   -0.135791   -0.802805
 H    6.115435   -1.127238    0.918441
 H    7.333252    0.093127    0.551220
 H    7.448139   -0.734164   -1.797397
 H    6.243532   -1.964731   -1.419436
 H    8.994583   -1.725733   -0.109309
 H    7.790084   -2.954967    0.274755
 H    8.533092   -2.917879   -1.325319
