50 
3l1n_ligand_dft.xyz
 C   -7.239649    0.082356   -0.519549
 O   -6.901381    0.934334   -1.518171
 O   -8.264008    0.245910    0.085423
 C   -6.241004   -1.027403   -0.239360
 C   -4.887218   -0.504011    0.264135
 C   -3.918203   -1.641777    0.590007
 C   -2.589393   -1.175879    1.192180
 C   -1.742571   -0.305284    0.261645
 C   -0.372138    0.033833    0.848006
 C    0.477345    0.911672   -0.070433
 C    1.846816    1.251904    0.516975
 C    2.701647    2.107264   -0.418896
 C    4.031244    2.568584    0.189498
 C    4.950089    1.444137    0.681562
 C    5.319956    0.420158   -0.392237
 C    6.329586   -0.618537    0.095566
 C    6.688875   -1.659482   -0.965008
 C    7.700349   -2.690776   -0.468010
 H   -6.063221    0.665626   -1.916439
 H   -6.092690   -1.620269   -1.152814
 H   -6.695283   -1.681885    0.507766
 H   -5.049513    0.109408    1.159514
 H   -4.435917    0.159853   -0.485060
 H   -3.721578   -2.222130   -0.322808
 H   -4.406994   -2.328963    1.292627
 H   -2.005835   -2.061354    1.476276
 H   -2.785814   -0.627018    2.123801
 H   -2.271429    0.630596    0.036010
 H   -1.608881   -0.823969   -0.699065
 H    0.170312   -0.897295    1.064908
 H   -0.506684    0.541296    1.813773
 H   -0.065728    1.842030   -0.289579
 H    0.613499    0.402546   -1.035446
 H    2.374017    0.317577    0.753554
 H    1.713521    1.778523    1.473098
 H    2.127210    2.995543   -0.714345
 H    2.889118    1.548816   -1.345943
 H    3.821491    3.243950    1.029870
 H    4.570271    3.165989   -0.558038
 H    4.483367    0.924367    1.529213
 H    5.870502    1.894796    1.076390
 H    5.728297    0.942991   -1.269374
 H    4.415888   -0.098782   -0.739687
 H    5.925668   -1.128803    0.981949
 H    7.244986   -0.108604    0.428307
 H    7.089459   -1.148750   -1.850934
 H    5.773972   -2.170620   -1.293734
 H    8.635755   -2.207678   -0.162778
 H    7.310958   -3.236209    0.399478
 H    7.940002   -3.424085   -1.244998
