40 
3l1s_ligand_dft.xyz
 C    4.761953   -3.405140    1.069795
 O    3.418927   -3.249077    0.629243
 C    2.980183   -1.961658    0.546321
 C    1.997051   -1.527056    1.421900
 C    1.476974   -0.236916    1.331568
 C    1.947068    0.632246    0.346683
 C    2.946110    0.203918   -0.536010
 C    3.465437   -1.083723   -0.447107
 O    4.411127   -1.588897   -1.272389
 C    4.921662   -0.751434   -2.289102
 C    1.421248    2.007261    0.233767
 N    2.233625    3.016858    0.132410
 N    1.483965    4.159620    0.061577
 C    0.118718    3.962316    0.174905
 O   -0.742653    4.815032    0.192503
 C    0.029745    2.472942    0.231296
 N   -1.130405    1.902786    0.149841
 N   -1.251074    0.601034    0.073637
 C   -2.511512   -0.004582   -0.025706
 C   -2.567615   -1.396962   -0.094926
 C   -3.794887   -2.039100   -0.193764
 C   -4.960475   -1.282472   -0.221391
Cl   -6.507974   -2.085713   -0.344999
 C   -4.909648    0.106380   -0.151120
 C   -3.684206    0.750883   -0.052781
 H    5.468193   -2.959790    0.363209
 H    4.897441   -2.954754    2.061224
 H    4.935899   -4.480339    1.133493
 H    1.651556   -2.219220    2.182843
 H    0.735907    0.100791    2.051311
 H    3.295368    0.898339   -1.290568
 H    4.131796   -0.441941   -2.984383
 H    5.406944    0.138361   -1.869657
 H    5.659544   -1.349233   -2.824372
 H    1.953117    5.050427    0.076550
 H   -0.428830    0.002431    0.071541
 H   -1.652349   -1.983062   -0.070241
 H   -3.844163   -3.120824   -0.248410
 H   -5.826810    0.684485   -0.173496
 H   -3.626862    1.831487    0.002850
