44 
3l4t_ligand_dft.xyz
 O    2.949234    3.746887   -1.044452
 O   -0.598408   -2.435491   -0.677594
 O    1.982971    2.658864    1.245436
 O   -5.371785    1.290649    0.143701
 O    0.396468   -1.172998    1.536301
 O   -4.677341   -1.521545    0.377340
 O    4.437437   -1.665282   -0.346141
 O    2.665028   -2.417383    1.153882
 O    2.087743   -1.816058   -1.191711
 C    2.862682    2.331077   -0.966656
 C   -1.855356   -1.999621   -1.168510
 C   -3.051418    1.755875   -0.209628
 C   -0.822420    0.945062    1.253800
 O    2.760206   -0.064790    0.435211
 C    1.721833    2.052065    0.002669
 C   -4.085491    0.768971    0.344840
 C    0.531199    0.248555    1.377457
 C   -3.891279   -0.590087   -0.336385
 C   -2.386103   -0.899311   -0.268657
 C    1.474261    0.564030    0.201378
 S   -1.612677    0.728548   -0.654204
 S    3.028909   -1.552880   -0.111057
 H    3.814352    3.981193   -1.396392
 H    0.134495   -2.260768   -1.288214
 H    2.334705    3.535241    1.030816
 H   -5.989057    0.639310    0.503663
 H   -0.055975   -1.569189    0.759329
 H   -4.866156   -2.275560   -0.191872
 H    1.786056   -2.060676    1.497078
 H    3.786779    1.895388   -0.571519
 H    2.649345    1.883111   -1.947922
 H   -2.545860   -2.851893   -1.131154
 H   -1.797416   -1.656409   -2.208344
 H   -3.424665    2.218813   -1.124968
 H   -2.757861    2.506457    0.523981
 H   -0.655291    2.022595    1.372484
 H   -1.461149    0.616638    2.083061
 H    0.802308    2.467934   -0.442036
 H   -3.890991    0.610733    1.417239
 H    1.044082    0.572850    2.287312
 H   -4.218584   -0.511282   -1.380939
 H   -2.143808   -1.143810    0.767651
 H    1.079692    0.158736   -0.733746
 H   -2.324607    0.527384   -2.018960
