52 
3l4v_ligand_dft.xyz
 O   -6.032067   -1.012093    0.829465
 O    2.516587    2.251553    0.691485
 O   -4.605471   -3.042567   -0.003231
 O    4.719332   -3.293812   -0.737337
 O    0.684773    0.626803    1.973011
 O   -2.286977   -2.284876    0.809854
 O    5.220235   -1.084404    1.154200
 O   -3.011400    0.658531   -1.097936
 O   -0.587974    3.233664    1.143462
 O    0.815761    3.365221   -0.909221
 O   -1.605804    3.443821   -1.139423
 C   -5.480213   -0.866939   -0.476768
 C    3.606289    1.428957    0.292004
 C    2.593047   -2.147302   -1.298109
 C    0.710745   -1.300349    0.522393
 O   -0.433086    1.359491   -0.475831
 C   -4.245118   -1.758960   -0.497503
 C    3.751988   -2.363167   -0.305985
 C   -0.161778   -0.302201    1.266442
 C   -3.071538   -1.207353    0.357617
 C    4.379978   -1.004113    0.030736
 C   -2.169296   -0.269772   -0.451332
 C    3.233609   -0.037963    0.324513
 C   -1.170015    0.493922    0.426867
 S    1.955724   -0.477514   -0.936877
 S   -0.554073    2.959507   -0.280269
 H   -6.882704   -0.562577    0.858846
 H    1.907787    1.717704    1.250189
 H   -5.276163   -2.867180    0.678108
 H    5.064721   -2.991995   -1.588562
 H    0.122435    1.280100    2.414366
 H   -2.894930   -3.044963    0.809556
 H    5.807622   -1.838305    1.003513
 H   -2.471692    1.346459   -1.514174
 H    1.566018    2.983863   -0.337209
 H   -6.190613   -1.221134   -1.236128
 H   -5.202184    0.168499   -0.687578
 H    3.908676    1.735806   -0.713980
 H    4.451599    1.578682    0.974181
 H    2.950503   -2.134521   -2.331594
 H    1.801742   -2.886957   -1.174057
 H    1.245692   -1.900703    1.270381
 H    0.039533   -1.985006   -0.005699
 H   -3.906583   -1.900843   -1.528323
 H    3.357346   -2.776991    0.626565
 H   -0.760556   -0.848007    2.008012
 H   -3.494825   -0.654256    1.212287
 H    4.935895   -0.644322   -0.851648
 H   -1.616411   -0.876599   -1.183778
 H    2.815930   -0.284648    1.301628
 H   -1.759155    1.124333    1.103959
 H    3.036450    0.012458   -1.937778
