32 
3l4w_ligand_xtb.xyz
 O   -3.371486    0.083080   -0.256589
 O   -0.921097    2.706521   -0.331574
 O    0.750193   -2.381290   -0.545352
 O    2.666225    0.722375   -0.908036
 O    1.160968   -0.823199    2.001366
 C   -2.828405   -1.188926    0.037419
 C    0.347726    2.318876    0.154804
 C   -1.474981   -0.939999    0.707277
 C   -0.159480   -0.300102   -1.290087
 C    1.107749   -1.134670   -1.082840
 C    2.122351   -0.364306   -0.201908
 C    1.467703    0.192579    1.083665
 C    0.158174    0.941060    0.809612
 N   -0.776349    0.143821   -0.023326
 H   -4.301719    0.004208   -0.487896
 H   -0.921051    3.645692   -0.540275
 H    1.500176   -2.985630   -0.552445
 H    3.350077    0.424108   -1.518488
 H    1.964313   -1.191766    2.384497
 H   -2.716631   -1.780614   -0.880934
 H   -3.464176   -1.750919    0.728227
 H    1.084881    2.271431   -0.654190
 H    0.716911    3.015410    0.914200
 H   -0.856904   -1.835568    0.722991
 H   -1.639506   -0.601405    1.729818
 H   -0.885683   -0.898141   -1.840058
 H    0.096583    0.581668   -1.877575
 H    1.565232   -1.265946   -2.077712
 H    2.912632   -1.064580    0.111515
 H    2.175277    0.918527    1.511164
 H   -0.334800    1.084884    1.776246
 H   -1.534616    0.814934   -0.271969
