52 
3l4x_ligand_xtb.xyz
 O   -5.146955   -3.143041   -0.295461
 O    3.020280    1.700022    0.369834
 O   -2.540592   -2.296116   -0.174229
 O    2.885402   -4.284645   -0.846552
 O    0.873284    1.196750    2.100546
 O   -4.158397    0.855676    0.584897
 O    4.549245   -2.248001    0.660266
 O   -2.514773    1.440634   -1.292689
 O   -0.693372    3.766327   -1.194912
 O    1.691334    3.274447   -1.167879
 O    0.489989    3.637910    0.932797
 C   -4.865468   -1.920451    0.357873
 C    3.457789    0.490255   -0.234014
 C    1.083631   -2.661397   -0.611628
 C    0.129348   -0.918152    1.262027
 O    0.147347    1.626545   -0.380054
 C   -3.592285   -1.358517   -0.278502
 C    2.433473   -3.181321   -0.114943
 C   -0.274761    0.493823    1.666603
 C   -3.130865   -0.072065    0.433274
 C    3.443825   -2.017218   -0.175095
 C   -1.953102    0.535287   -0.372738
 C    2.745823   -0.742389    0.283030
 C   -0.918315    1.261359    0.493471
 S    1.034028   -0.867394   -0.365705
 S    0.362661    3.208047   -0.428514
 H   -5.990597   -3.480743    0.018993
 H    2.384824    1.483519    1.077908
 H   -2.919797   -3.142126   -0.451218
 H    2.940157   -4.028464   -1.777199
 H    0.711811    2.157928    2.016185
 H   -4.150538    1.399040   -0.222003
 H    4.929766   -3.101984    0.420993
 H   -1.888269    2.153366   -1.496443
 H    2.349303    2.707758   -0.652418
 H   -4.691788   -2.087456    1.429486
 H   -5.678169   -1.198196    0.236382
 H    4.528975    0.375423   -0.027552
 H    3.295821    0.550948   -1.312924
 H    0.230423   -3.121294   -0.122382
 H    1.014607   -2.782889   -1.690913
 H    0.734744   -1.369734    2.042642
 H   -0.765086   -1.509426    1.087239
 H   -3.795458   -1.139273   -1.336437
 H    2.361935   -3.533207    0.920842
 H   -0.995964    0.448323    2.498537
 H   -2.804735   -0.355721    1.438507
 H    3.757205   -1.882950   -1.219179
 H   -1.430970   -0.266237   -0.913480
 H    2.695396   -0.723775    1.372096
 H   -1.369269    2.185152    0.880892
 H    2.021772   -0.855792   -2.139728
