52 
3l4x_ligand_dft.xyz
 O   -5.395552   -3.273945   -0.324594
 O    2.870861    1.937651    0.294010
 O   -2.867318   -2.463932   -0.682540
 O    3.572105   -4.122783   -0.418344
 O    0.862467    1.028398    1.967097
 O   -4.016419    0.453865    1.139698
 O    4.817768   -1.831329    0.956852
 O   -2.883017    1.204830   -1.091532
 O   -1.077619    3.953434   -1.135154
 O    1.306430    3.435644   -1.134110
 O    0.118086    3.662600    1.046288
 C   -4.941677   -2.208373    0.499241
 C    3.657491    0.833065   -0.134803
 C    1.675112   -2.608322   -0.930909
 C    0.313915   -1.074904    0.929109
 O   -0.218487    1.720970   -0.457284
 C   -3.845178   -1.516057   -0.293861
 C    2.901503   -2.936595   -0.058352
 C   -0.228282    0.234322    1.479537
 C   -3.124142   -0.456212    0.540332
 C    3.847094   -1.726824   -0.053017
 C   -2.107139    0.302389   -0.324327
 C    2.990632   -0.485371    0.196988
 C   -1.085282    1.070243    0.508576
 S    1.471258   -0.802538   -0.805744
 S   -0.042586    3.322915   -0.356464
 H   -5.979370   -3.837244    0.193747
 H    2.237216    1.628287    0.979077
 H   -3.368349   -3.238206   -0.978391
 H    3.834271   -4.049578   -1.346139
 H    0.516680    1.897244    2.228738
 H   -4.192020    1.122338    0.457624
 H    5.200588   -2.716546    0.879458
 H   -2.299395    1.849729   -1.515927
 H    2.011573    2.886600   -0.649391
 H   -4.520288   -2.591255    1.441157
 H   -5.743684   -1.499779    0.734796
 H    4.628865    0.855469    0.373290
 H    3.824471    0.931220   -1.212099
 H    0.770152   -3.109386   -0.587134
 H    1.862520   -2.835182   -1.984317
 H    0.816146   -1.609823    1.746100
 H   -0.531173   -1.696124    0.608579
 H   -4.295392   -1.042819   -1.179969
 H    2.577978   -3.096495    0.974345
 H   -0.887607    0.024237    2.336793
 H   -2.612748   -0.986821    1.350373
 H    4.320642   -1.643435   -1.046219
 H   -1.581653   -0.404628   -0.976205
 H    2.686726   -0.484935    1.245004
 H   -1.619348    1.837716    1.079625
 H    2.445732   -0.724004   -1.991753
