52 
3l4y_ligand_xtb.xyz
 O   -4.988111   -2.863684    0.561936
 O    2.273659    2.240044    0.922364
 O   -3.682379   -0.468722    1.463919
 O    4.639247   -3.064054   -0.962557
 O    0.220277    0.663972    1.996497
 O   -2.301707   -2.413568    0.045570
 O    5.059031   -0.943898    1.160858
 O   -2.471205    0.549317   -1.972987
 O    0.771244    3.494184   -0.739707
 O   -0.786762    3.046627    1.090334
 O   -1.597545    3.218182   -1.203008
 C   -5.306164   -1.573002    0.059075
 C    3.244237    1.393973    0.324218
 C    2.356118   -2.215505   -1.045017
 C    0.470768   -1.337719    0.710044
 O   -0.212947    1.321711   -0.525527
 C   -4.042685   -0.700660    0.127325
 C    3.663025   -2.347259   -0.261994
 C   -0.495335   -0.274967    1.212448
 C   -2.891402   -1.356508   -0.672378
 C    4.151303   -0.928036    0.088629
 C   -1.824914   -0.326079   -1.085791
 C    2.947638   -0.081870    0.484283
 C   -1.198652    0.473127    0.065726
 S    1.579284   -0.635178   -0.606160
 S   -0.550538    2.867266   -0.311071
 H   -5.781837   -3.407082    0.554297
 H    1.642353    1.687918    1.422268
 H   -3.567366   -1.333690    1.880786
 H    4.796187   -2.616401   -1.804961
 H   -0.282595    1.500439    2.024859
 H   -3.026169   -3.011402    0.290482
 H    5.771636   -1.555382    0.938383
 H   -2.073893    1.434868   -1.935257
 H    1.486095    3.112525   -0.139485
 H   -5.653272   -1.636285   -0.978344
 H   -6.086765   -1.108671    0.673127
 H    3.303533    1.618259   -0.743686
 H    4.213222    1.596901    0.797464
 H    2.569570   -2.122613   -2.108217
 H    1.664585   -3.032852   -0.862308
 H   -0.114668   -2.129923    0.253765
 H    1.048444   -1.732608    1.541104
 H   -4.260816    0.272883   -0.318395
 H    3.507947   -2.906984    0.667840
 H   -1.265666   -0.752375    1.833885
 H   -3.312013   -1.726159   -1.619858
 H    4.605299   -0.485163   -0.808222
 H   -1.008982   -0.852936   -1.607365
 H    2.667553   -0.301752    1.514881
 H   -1.974493    1.112794    0.504591
 H    2.846128    0.068416   -2.036887
