40 
3l4z_ligand_dft.xyz
 C   -3.753349    0.010129    0.084541
 C   -3.310611    1.267873   -0.667248
 C   -2.316256    0.855300   -1.772188
 C   -2.493362   -0.790559    0.413371
 S   -1.458824   -0.605285   -1.101912
 O   -4.480745    1.887065   -1.156030
 O   -4.426565    0.316708    1.279377
 C   -2.725500   -2.240088    0.766194
 O   -1.467778   -2.776123    1.167084
 C   -0.126228    0.645455   -0.133136
 C    0.668427   -0.102875    0.925940
 C    2.030876    0.513437    1.282777
 C    1.969740    1.802900    2.094713
 O    1.358875    2.875510    1.419328
 O    0.951976   -1.462208    0.540054
 O    2.778019    0.867155    0.094342
 S    3.663199   -0.260118   -0.664668
 O    4.251420   -1.116085    0.338383
 O    2.559925   -1.050689   -1.480563
 O    4.456876    0.465304   -1.612751
 H   -4.393167   -0.577632   -0.590881
 H   -2.803031    1.918592    0.057376
 H   -2.853106    0.543533   -2.670421
 H   -1.583813    1.633230   -1.995441
 H   -1.972463   -0.298276    1.236774
 H   -4.281600    2.805213   -1.371615
 H   -5.177983    0.873135    1.032772
 H   -3.449733   -2.284574    1.589134
 H   -3.129714   -2.780238   -0.099463
 H   -1.540198   -3.732655    1.257593
 H    0.541146    0.935328   -0.953756
 H   -0.533856    1.559952    0.310764
 H    0.107706   -0.143837    1.871435
 H    2.604908   -0.230168    1.846093
 H    2.996872    2.054657    2.395270
 H    1.387157    1.626489    3.004120
 H    1.832610    2.981262    0.583307
 H    0.151133   -2.005965    0.663323
 H    1.897570   -1.422892   -0.826927
 H   -2.588885   -1.431242   -1.757731
