40 
3l4z_ligand_xtb.xyz
 C    3.738517    0.017358    0.035657
 C    3.321031   -1.324679   -0.592971
 C    2.235927   -1.009086   -1.622382
 C    2.452564    0.745171    0.401604
 S    1.300983    0.402772   -0.982155
 O    4.465251   -1.910798   -1.154041
 O    4.506745   -0.160632    1.193540
 C    2.631340    2.237917    0.581516
 O    1.395810    2.790064    1.016258
 C    0.083969   -0.623176   -0.008894
 C   -0.713113    0.302250    0.907678
 C   -2.078272   -0.307313    1.298627
 C   -1.943819   -1.417390    2.354418
 O   -1.261084   -2.532202    1.851573
 O   -0.948792    1.550959    0.278308
 O   -2.724519   -0.887120    0.180664
 S   -3.566889    0.125752   -0.736663
 O   -4.101530    1.143348    0.099666
 O   -2.471898    0.710769   -1.681956
 O   -4.426212   -0.687432   -1.509067
 H    4.278923    0.593483   -0.724901
 H    2.919450   -1.973713    0.204288
 H    2.692856   -0.650576   -2.542568
 H    1.556375   -1.837450   -1.809554
 H    2.035122    0.310274    1.308974
 H    4.220295   -2.703280   -1.643698
 H    5.298137   -0.651937    0.942113
 H    3.412305    2.412228    1.331495
 H    2.931173    2.660134   -0.380160
 H    1.441220    3.746923    0.919458
 H   -0.582937   -1.040931   -0.761555
 H    0.553122   -1.420953    0.558421
 H   -0.165021    0.479199    1.841618
 H   -2.715493    0.503648    1.669999
 H   -2.950712   -1.698417    2.687774
 H   -1.371541   -1.057606    3.211380
 H   -1.742916   -2.828713    1.068789
 H   -0.163089    2.117912    0.424380
 H   -1.871619    1.257210   -1.132840
 H    2.639816    1.464216   -2.003398
