84 
3l58_ligand_dft.xyz
 C   -1.356738    2.676086    0.662944
 C   -0.040354    2.970257    0.298805
 C    0.714324    1.959251   -0.286138
 C    0.180561    0.682543   -0.491437
 C   -1.135928    0.407512   -0.124767
 C   -1.910912    1.415282    0.446841
 C   -3.303838    1.104865    0.942283
 N   -4.341189    1.775360    0.374782
 O   -3.454842    0.301108    1.856456
 C   -5.674864    1.548085    0.928883
 C   -6.360498    0.302150    0.368642
 C   -7.773404    0.133289    0.922310
 C   -4.252422    2.540994   -0.865587
 C   -4.400342    4.051386   -0.680633
 C   -4.321377    4.789965   -2.014928
 C    1.001675   -0.424140   -1.053754
 N    2.339753   -0.340240   -0.845514
 O    0.501543   -1.405964   -1.621333
 C    3.343585   -1.201131   -1.443237
 C    3.830982   -2.304900   -0.451693
 C    4.514231   -0.338776   -1.977812
 O    3.809434   -1.877322    0.891430
 C    2.979047   -3.571047   -0.465779
 N    1.608643   -3.259856    0.013403
 C    0.725468   -4.426990    0.361502
 C   -0.660116   -3.890336    0.584621
 C    5.100967    0.583299   -0.933149
 C    6.104528    0.147004   -0.060519
 C    6.553932    1.005514    0.937968
 C    6.034442    2.279182    1.120156
 C    5.051771    2.687616    0.233249
 C    4.582374    1.872012   -0.788622
 C   -0.949480   -3.186503    1.759822
 C   -2.176957   -2.553404    1.884048
 C   -3.124897   -2.626782    0.864383
 C   -2.840171   -3.342840   -0.298949
 C   -1.594142   -3.966959   -0.437738
 O   -3.675873   -3.476328   -1.348565
 C   -4.899421   -2.767032   -1.320745
 C    0.538524    4.344488    0.516091
 F    7.514203    0.583397    1.756910
 F    4.525720    3.906055    0.367851
 H   -1.959168    3.445223    1.139146
 H    1.727515    2.190906   -0.602294
 H   -1.542340   -0.588293   -0.271806
 H   -5.577409    1.458759    2.013325
 H   -6.278971    2.436791    0.718289
 H   -6.392805    0.360900   -0.727426
 H   -5.750044   -0.568291    0.631409
 H   -7.759012    0.043044    2.013767
 H   -8.405606    0.990134    0.664075
 H   -8.249744   -0.765041    0.518845
 H   -5.036678    2.177802   -1.542961
 H   -3.298708    2.318867   -1.350641
 H   -5.355420    4.272864   -0.190340
 H   -3.615324    4.411310   -0.006212
 H   -5.105575    4.453816   -2.702227
 H   -3.354722    4.622388   -2.503530
 H   -4.442956    5.867362   -1.873569
 H    2.675540    0.387919   -0.231193
 H    2.872728   -1.687555   -2.303381
 H    4.840903   -2.615451   -0.754413
 H    5.284073   -1.007550   -2.376798
 H    4.136609    0.253136   -2.816549
 H    4.463186   -1.173545    1.016157
 H    2.898493   -4.000777   -1.466637
 H    3.413876   -4.307903    0.213385
 H    1.698401   -2.654058    0.837336
 H    1.111852   -2.676868   -0.709133
 H    1.154717   -4.904680    1.246201
 H    0.770646   -5.124087   -0.478230
 H    6.580731   -0.822529   -0.174881
 H    6.396874    2.930609    1.905703
 H    3.843554    2.260402   -1.482119
 H   -0.222561   -3.135725    2.567630
 H   -2.411456   -1.969595    2.766400
 H   -4.063221   -2.103137    0.993665
 H   -1.382655   -4.491054   -1.364958
 H   -5.538216   -3.097668   -0.493044
 H   -4.726932   -1.687039   -1.237463
 H   -5.392717   -2.985572   -2.267463
 H    0.140693    5.056218   -0.216012
 H    0.288736    4.724968    1.511149
 H    1.627961    4.339491    0.418993
