31 
3l59_ligand_dft.xyz
 C   -1.451368   -1.475719    0.226668
 N   -2.736868   -1.330518    0.704867
 O   -2.360041    1.527207   -1.268686
 C   -2.286128    0.497016   -0.631783
 N   -1.255280   -0.408495   -0.675832
 C   -3.293610   -0.019080    0.398059
 N   -0.661318   -2.412197    0.561181
 C   -4.689037   -0.112830   -0.217995
 C   -3.275000    0.923394    1.609691
 C   -0.074780   -0.231547   -1.496453
 C    1.105134    0.308962   -0.715917
 C    1.000667    1.540578   -0.065146
 C    2.075200    2.039076    0.659738
 C    3.267952    1.323597    0.743941
 C    3.363203    0.104185    0.087559
 C    2.294201   -0.410605   -0.639960
Cl    4.850492   -0.809836    0.176869
 H   -2.929454   -1.770934    1.592466
 H    0.244536   -2.327333    0.107853
 H   -5.405919   -0.473248    0.526961
 H   -5.009694    0.871938   -0.569109
 H   -4.688352   -0.808301   -1.061464
 H   -3.591978    1.926201    1.310029
 H   -3.960753    0.557148    2.381403
 H   -2.269258    0.986135    2.038234
 H   -0.361577    0.469005   -2.285933
 H    0.172327   -1.189176   -1.966288
 H    0.077054    2.108018   -0.140086
 H    1.992025    2.997352    1.162873
 H    4.111294    1.706445    1.307771
 H    2.397370   -1.367401   -1.143924
