40 
3l5b_ligand_xtb.xyz
 C   -0.492057    1.327253   -0.758816
 N   -1.641027    0.654281   -1.019298
 O   -0.897344   -0.392321    2.213206
 C   -0.969138    0.069906    1.100103
 N   -0.144190    1.010943    0.573146
 C   -1.991000   -0.290405    0.015488
 N    0.081658    2.089289   -1.581124
 C   -3.400049   -0.061643    0.588955
 C   -1.735652   -1.739707   -0.411915
 C    1.011770    1.539041    1.260972
 C    2.288455    1.023600    0.645665
 C    3.290363    1.885444    0.222612
 C    4.439586    1.384238   -0.364888
 C    4.599658    0.022351   -0.545537
 C    3.596360   -0.834343   -0.120101
 C    2.447525   -0.346160    0.475841
 C   -4.701359   -0.043857   -1.597077
 C   -5.865196   -0.372378    0.590191
 C   -4.581984   -0.640196   -0.196403
Cl    3.779162   -2.539442   -0.336177
 H   -1.970592    0.582218   -1.964562
 H    0.919359    2.542744   -1.240841
 H   -3.541123    1.017166    0.695035
 H   -3.402175   -0.497262    1.591314
 H   -1.916504   -2.403238    0.429573
 H   -0.700912   -1.854066   -0.732079
 H   -2.383189   -2.020368   -1.237784
 H    0.925160    1.201136    2.299372
 H    0.983358    2.633273    1.237236
 H    3.174657    2.951559    0.354058
 H    5.214894    2.060090   -0.691615
 H    5.488761   -0.373730   -1.009452
 H    1.679019   -1.025477    0.812679
 H   -5.644049   -0.343502   -2.050118
 H   -4.673837    1.042368   -1.552194
 H   -3.899878   -0.385618   -2.246726
 H   -6.720364   -0.816322    0.085986
 H   -6.038565    0.697656    0.681066
 H   -5.800157   -0.795777    1.589586
 H   -4.459634   -1.724231   -0.280789
