30 
3l5r_ligand_dft.xyz
 C    4.364982   -1.309733   -0.352786
 C    4.831616   -0.037614    0.025044
 C    3.940284    0.987022    0.312088
 C    3.010323   -1.537613   -0.436738
 C    2.081522   -0.522638   -0.154143
 C    2.573603    0.727183    0.216504
 O    1.738301    1.760228    0.511057
 C    0.407374    1.560748    0.420362
 C   -0.201108    0.415326    0.050728
 C    0.631426   -0.770010   -0.245649
 C   -1.677962    0.368401   -0.052138
 C   -2.393281   -0.725493    0.452543
 C   -3.776846   -0.746132    0.392915
 C   -4.467221    0.331980   -0.179684
 C   -3.768909    1.412266   -0.693227
 C   -2.376584    1.427765   -0.634064
 O   -5.831450    0.208461   -0.186402
 O   -4.460452   -1.805234    0.892299
 O    6.173317    0.125176    0.091167
 O    0.173304   -1.864367   -0.542032
 H    5.089231   -2.086889   -0.569398
 H    4.274681    1.977055    0.607548
 H    2.619916   -2.508371   -0.723941
 H   -0.131644    2.459550    0.696829
 H   -1.878982   -1.575535    0.883105
 H   -4.306500    2.238708   -1.152765
 H   -1.834981    2.261857   -1.069759
 H   -6.226178    0.965009   -0.634034
 H   -5.402793   -1.643550    0.743799
 H    6.377774    1.029311    0.359368
