33 
3l7b_ligand_xtb.xyz
 C    0.108852   -0.119522    0.289676
 N   -1.296234    0.075653    0.031740
 C    0.651279   -1.357316   -0.459503
 N   -3.511779   -0.358575    0.725130
 O   -0.078339   -2.510179   -0.183585
 C    2.136403   -1.487847   -0.080284
 F    2.736801   -2.463067   -0.853021
 N   -5.274728    0.581423   -0.341705
 C    2.899431   -0.178033   -0.322528
 O    4.197186   -0.237435    0.202702
 C    2.167156    0.991191    0.347787
 O    0.812294    1.038314   -0.069943
 C    2.796311    2.337544   -0.025454
 O    2.192537    3.399418    0.654450
 C   -1.735505    0.832470   -0.989584
 C   -3.063288    1.024604   -1.186067
 C   -3.947323    0.402799   -0.255001
 C   -2.215801   -0.602886    0.905689
 O   -1.749193   -1.350896    1.742192
 H    0.201216   -0.308796    1.376161
 H    0.587103   -1.188407   -1.543866
 H   -0.487047   -2.448029    0.698553
 H    2.241447   -1.818178    0.961068
 H   -5.857667    0.101144    0.321250
 H   -5.686083    1.102219   -1.093947
 H    2.928566   -0.002710   -1.411318
 H    4.627997   -1.032164   -0.137972
 H    2.216776    0.858897    1.439154
 H    3.848356    2.328404    0.261423
 H    2.715367    2.470873   -1.113680
 H    1.240237    3.339365    0.510714
 H   -0.975203    1.277631   -1.614233
 H   -3.434054    1.626042   -1.997184
