28 
3l7g_ligand_dft.xyz
 P   -0.037882   -0.890578   -0.085658
 C   -2.371965    0.488177    0.278936
 N   -0.967389    0.505601   -0.165866
 O   -0.461058   -2.139357   -0.751861
 C   -3.295799   -0.173212   -0.745670
 N    1.413380   -0.329213   -0.674668
 O    0.039649   -1.090278    1.530844
 C   -2.807288    1.914157    0.607750
 C    2.251428    0.667889   -0.002169
 C    2.997719    1.495803   -1.046686
 C    3.210428    0.028261    1.005432
 H   -2.391728   -0.104832    1.200598
 H   -0.849844    0.973964   -1.059577
 H   -4.324346   -0.214961   -0.371340
 H   -3.300907    0.401625   -1.680521
 H   -2.956515   -1.188504   -0.967383
 H    1.928794   -1.052949   -1.163135
 H    0.061189   -0.235582    1.980993
 H   -2.773193    2.543252   -0.290538
 H   -3.834920    1.927660    0.984884
 H   -2.150494    2.360495    1.360442
 H    1.562817    1.335279    0.530164
 H    3.602005    2.273428   -0.568026
 H    3.672708    0.858484   -1.630848
 H    2.294881    1.969825   -1.737503
 H    3.920557   -0.629295    0.489413
 H    3.786908    0.791895    1.538839
 H    2.662517   -0.575201    1.734724
