57 
3l8s_ligand_xtb.xyz
 N    0.397469    2.114991    0.976029
 O   -1.839951    1.951044    1.213465
 O   -4.095035   -2.253825    0.432759
 F    4.831635   -2.786697   -0.906985
 F    3.407424    1.525133    0.347977
Br    8.502901    0.768337   -0.037940
 C    6.430777   -1.126576   -0.499378
 C    5.683349    1.070510    0.144881
 C   -7.070593   -1.790569    0.051015
 C   -7.695319   -0.729499   -0.862526
 C   -5.461808    3.129278   -0.044049
 C   -4.239017    2.734760   -0.890832
 C   -6.525885   -1.289348    1.389345
 C   -6.696125    0.034948   -1.728875
 C   -6.588847    2.257988   -0.586190
 C   -4.662811    1.458117   -1.629396
 C    2.648130   -1.235103   -0.386129
 N    0.139367   -2.026241   -0.158077
 N   -5.319688   -0.459844    1.240873
 N   -3.038259   -0.330259    0.961255
 O    1.670963   -0.310806    0.066048
 S   -1.452941   -2.369688    0.046970
 C   -0.743664    1.430041    0.954739
 C   -4.131671   -1.130971    0.874554
 C    6.707478    0.184184   -0.139727
 C    5.110338   -1.521414   -0.560674
 C    4.373315    0.629431    0.067506
 C    0.429232   -0.791524    0.150793
 C    4.037559   -0.672705   -0.280875
 C   -1.802216   -0.780944    0.581566
 C   -0.668492    0.014180    0.584291
 N   -5.899447    1.004389   -0.952807
 H    0.382230    3.088846    1.232322
 H    1.277008    1.676662    0.756235
 H    7.215591   -1.829853   -0.726302
 H    5.885272    2.092334    0.423281
 H   -6.279366   -2.324204   -0.475420
 H   -7.842985   -2.520808    0.292850
 H   -8.301169   -0.036996   -0.276079
 H   -8.372270   -1.240145   -1.548211
 H   -5.697756    4.186296   -0.130732
 H   -5.282629    2.915676    1.009056
 H   -3.368789    2.570529   -0.257409
 H   -3.984204    3.515936   -1.602890
 H   -6.300054   -2.161835    2.009454
 H   -7.277935   -0.684861    1.900220
 H   -7.217137    0.572014   -2.525241
 H   -6.006272   -0.677639   -2.186862
 H   -7.023660    2.696011   -1.487426
 H   -7.380057    2.076810    0.138801
 H   -3.907895    0.673429   -1.597627
 H   -4.901178    1.671035   -2.673663
 H    2.436322   -1.508706   -1.429440
 H    2.577701   -2.158548    0.203819
 H   -5.175512    0.160228    2.030626
 H   -2.980199    0.661947    1.265977
 H   -5.627360    0.501867   -0.047187
