57 
3l8s_ligand_dft.xyz
 N    0.674466    0.847414    2.025304
 O   -1.569326    0.885597    2.312000
 O   -4.500925   -1.988832   -0.366942
 F    4.345299   -2.539960    0.822304
 F    3.482204    0.986011   -2.134868
Br    8.049126    1.031601    0.294870
 C    5.977717   -0.889778    0.530559
 C    5.530566    0.940102   -1.003616
 C   -7.421817   -0.879492   -0.199652
 C   -7.648268    0.610525   -0.528619
 C   -3.812214    2.942666    0.567141
 C   -3.018632    2.323369   -0.606630
 C   -6.734763   -1.196972    1.129598
 C   -6.560783    1.261479   -1.382624
 C   -5.271299    2.851474    0.132762
 C   -4.050113    1.538894   -1.434994
 C    2.509399   -1.387877   -0.982902
 N   -0.107974   -1.994943   -1.109843
 N   -5.382929   -0.626082    1.268590
 N   -3.098254   -0.794579    0.972760
 O    1.566517   -0.776647   -0.075322
 S   -1.762569   -2.222932   -0.992599
 C   -0.566441    0.433474    1.728685
 C   -4.331222   -1.239059    0.577255
 C    6.361197    0.290608   -0.096311
 C    4.730273   -1.408561    0.223845
 C    4.296175    0.371628   -1.268430
 C    0.286931   -1.142466   -0.209186
 C    3.855235   -0.812580   -0.681719
 C   -1.930650   -1.122898    0.325337
 C   -0.708667   -0.577091    0.660108
 N   -5.310513    1.553459   -0.613499
 H    0.789409    1.524239    2.764574
 H    1.481862    0.471944    1.545962
 H    6.621644   -1.399024    1.236410
 H    5.826431    1.858340   -1.494941
 H   -6.872893   -1.368105   -1.010768
 H   -8.398186   -1.372873   -0.154659
 H   -7.820094    1.196638    0.384016
 H   -8.570401    0.699348   -1.111381
 H   -3.524235    3.974578    0.773197
 H   -3.639727    2.368926    1.482642
 H   -2.227199    1.672489   -0.233805
 H   -2.552119    3.091629   -1.226049
 H   -6.691649   -2.283750    1.253680
 H   -7.322381   -0.786823    1.955900
 H   -6.895308    2.208106   -1.815347
 H   -6.279600    0.592487   -2.200376
 H   -5.545595    3.642186   -0.571576
 H   -5.997117    2.825948    0.947483
 H   -3.785683    0.498899   -1.638421
 H   -4.286414    2.033191   -2.380743
 H    2.199279   -1.170354   -2.006600
 H    2.490025   -2.468659   -0.832280
 H   -5.148348   -0.366304    2.220747
 H   -2.926091   -0.112816    1.726571
 H   -5.240875    0.813684    0.115254
