66 
3l9h_ligand_xtb.xyz
 N   -1.214149   -2.327883   -1.775553
 C   -1.125814    2.785791   -0.047784
 C   -0.149443    3.685779   -0.468665
 C    1.168374    3.294253   -0.508606
 C   -0.754712    1.513877    0.370224
 C    0.563828    1.118150    0.340770
 C    1.549771    1.991228   -0.148897
 N    2.833239    1.575194   -0.245958
 C    3.183391    0.166495   -0.218428
 C    0.912627   -0.291666    0.727968
 C    2.415753   -0.496899    0.939626
 C    2.709984   -1.995322    1.094222
 C    2.039002   -2.838114    0.005169
 C    0.555742   -2.481672   -0.071396
 O    0.409474   -1.096801   -0.324807
 C    4.673290    0.023372   -0.043625
 C    5.331380    0.770908    0.926036
 C    6.696720    0.640125    1.103365
 C    7.418066   -0.242140    0.316346
 C    6.769267   -0.990087   -0.650880
 C    5.403497   -0.855961   -0.831425
 C   -2.579423    3.105648   -0.097902
 F   -3.245300    2.684152    1.005302
 F   -3.201417    2.434087   -1.115664
 F   -2.872555    4.388409   -0.264044
 C   -0.206856   -3.204461   -1.207049
 C   -2.339430   -2.028767   -1.103535
 N   -2.989964   -0.896179   -1.481952
 O   -2.784796   -2.762503   -0.203464
 C   -4.402627   -0.649770   -1.242125
 C   -4.722278   -0.332305    0.221455
 N   -4.642882   -1.544735    1.066494
 C   -5.891316   -2.313829    1.051895
 C   -4.238934   -1.236285    2.441750
 H   -0.838709   -1.608409   -2.375759
 H   -0.432407    4.680702   -0.774530
 H    1.924079    3.985633   -0.848261
 H   -1.504055    0.815991    0.714723
 H    3.496988    2.192515   -0.687858
 H    2.872117   -0.310337   -1.161622
 H    0.384472   -0.566225    1.659656
 H    2.703072    0.016908    1.862055
 H    3.787700   -2.160795    1.080608
 H    2.334433   -2.318486    2.068213
 H    2.500313   -2.636740   -0.962523
 H    2.157030   -3.898136    0.228548
 H    0.075214   -2.712035    0.895011
 H    4.769874    1.460182    1.539916
 H    7.198397    1.227225    1.857393
 H    8.483189   -0.344457    0.455166
 H    7.326948   -1.676953   -1.269044
 H    4.903370   -1.438128   -1.592558
 H    0.474394   -3.485456   -2.009850
 H   -0.700224   -4.096764   -0.821567
 H   -2.545916   -0.301589   -2.162163
 H   -4.989391   -1.513372   -1.575368
 H   -4.685557    0.211899   -1.845453
 H   -5.720950    0.103091    0.295569
 H   -4.005737    0.402374    0.588359
 H   -3.850281   -2.164051    0.579438
 H   -6.189444   -2.533457    0.029713
 H   -6.688797   -1.753885    1.541376
 H   -5.746994   -3.256141    1.575963
 H   -4.965553   -0.575218    2.914692
 H   -3.265978   -0.749805    2.445578
 H   -4.168432   -2.156314    3.018133
