49 
3lbk_ligand_dft.xyz
 C   19.631631   15.260596    3.247588
Cl   20.272859   13.957384    4.220305
 C   19.689806   16.572239    3.764863
 C   19.200887   17.627049    3.025587
 C   18.652659   17.371541    1.760155
 C   18.600353   16.048195    1.276585
 C   19.092159   14.963823    2.013648
 N   18.040375   16.085792    0.030409
 C   17.748902   17.396217   -0.297232
 C   17.161360   17.738031   -1.590514
 O   16.811132   16.629556   -2.285070
 O   17.004418   18.856306   -2.025648
 C   18.118868   18.225513    0.740488
 C   18.105196   19.685219    0.807791
 C   17.492373   20.565120    1.678756
 C   16.536939   20.284775    2.762951
 C   16.378412   21.223514    3.789025
 C   15.503781   20.980667    4.840812
 C   14.771733   19.796528    4.887151
 C   14.914400   18.862535    3.865217
 C   15.784872   19.105540    2.808456
 N   17.924108   21.847665    1.431466
 C   18.778980   21.744607    0.446356
 N   18.933964   20.464678    0.021443
 C   19.899355   19.986851   -0.956152
 C   20.843148   18.970023   -0.347182
 C   21.001065   17.711349   -0.921184
 C   21.767020   16.731910   -0.298298
 C   22.384067   17.025462    0.911322
Cl   23.301318   15.786673    1.731814
 C   22.269021   18.286403    1.486726
 C   21.498726   19.251433    0.851392
 H   20.123298   16.733768    4.744924
 H   19.235908   18.642086    3.408149
 H   19.061668   13.946347    1.641084
 H   17.838885   15.299173   -0.565216
 H   16.432765   16.940678   -3.122546
 H   16.949613   22.144901    3.743442
 H   15.394120   21.719335    5.629718
 H   14.090307   19.605772    5.711058
 H   14.339310   17.941264    3.884593
 H   15.869415   18.378493    2.007356
 H   19.317063   22.564359   -0.012147
 H   19.362164   19.559756   -1.806856
 H   20.444055   20.866054   -1.315056
 H   20.486328   17.473098   -1.848367
 H   21.867239   15.744294   -0.734664
 H   22.757009   18.499087    2.431306
 H   21.370963   20.224341    1.319199
