25 
3lce_ligand_xtb.xyz
 C   -3.323471   -2.229615   -0.466527
 O   -3.191257    1.507049    0.558484
 O   -1.648452    2.736916   -0.478205
 O    1.204959    2.302453    0.098739
Cl    3.456263   -0.510190   -0.831881
Cl    2.030818   -0.029883    1.615333
 O   -2.545732   -1.062593   -0.617149
 S   -0.238503   -1.975340    0.436891
 C   -1.984178    1.708991    0.053655
 C   -1.689055   -0.814577    0.438137
 C    0.702262   -0.902122   -0.679101
 C   -1.035208    0.549588    0.256144
 C   -0.068715    0.399367   -0.919468
 C    1.891078   -0.074786   -0.138473
 C    1.240995    1.201130   -0.736525
 H   -2.680078   -3.110404   -0.373198
 H   -3.933679   -2.308492   -1.362783
 H   -3.965654   -2.157800    0.417727
 H   -3.761817    2.280494    0.413834
 H    0.456940    2.860631   -0.167555
 H   -2.187992   -0.931538    1.407724
 H    0.978390   -1.463860   -1.569399
 H   -0.453162    0.777633    1.159174
 H   -0.582855    0.503291   -1.873074
 H    1.707205    1.438272   -1.703393
