25 
3lce_ligand_dft.xyz
 C   -3.402038   -2.171993   -0.495601
 O   -3.158210    1.577568    0.650073
 O   -1.635692    2.713869   -0.531073
 O    1.227805    2.333036   -0.035983
Cl    3.480643   -0.558898   -0.828334
Cl    2.077170    0.042953    1.645078
 O   -2.584545   -1.030244   -0.618309
 S   -0.279480   -2.015582    0.455290
 C   -1.971018    1.704302    0.055145
 C   -1.709195   -0.835450    0.444723
 C    0.701033   -0.941801   -0.633991
 C   -1.050766    0.527304    0.255242
 C   -0.070922    0.363039   -0.910932
 C    1.907132   -0.083558   -0.114858
 C    1.242050    1.165752   -0.780515
 H   -2.801507   -3.091221   -0.496691
 H   -4.070128   -2.175169   -1.357971
 H   -3.999527   -2.132454    0.426638
 H   -3.638180    2.408823    0.500539
 H    0.418705    2.811092   -0.285866
 H   -2.222568   -0.932474    1.410101
 H    1.000134   -1.481496   -1.532506
 H   -0.489241    0.758552    1.169382
 H   -0.586322    0.427188   -1.870004
 H    1.704971    1.308148   -1.765841
