47 
3lf0_ligand_xtb.xyz
 P    4.099788   -0.421420   -0.480319
 O    3.902134   -1.779712    0.047926
 O    5.575142    0.096995   -0.329938
 O    3.818285   -0.132628   -1.978593
 P    1.742965    0.828183    0.581379
 O    1.714271    1.569977    1.948071
 O    1.022227    1.415442   -0.534372
 O    3.310465    0.682917    0.385125
 P    1.068835   -1.758584   -0.218820
 O    1.535411   -1.282761   -1.516635
 O    1.686637   -3.066121    0.377936
 O    1.265733   -0.666547    0.958379
 O   -0.482571   -2.046657   -0.221976
 C   -1.080182   -2.915426    0.739640
 C   -2.596046   -2.685827    0.770288
 O   -2.925179   -1.524425    1.524369
 C   -3.208149   -2.477399   -0.623244
 O   -4.527979   -2.939493   -0.639162
 C   -3.139525   -0.949788   -0.782889
 O   -4.162419   -0.474990   -1.600624
 C   -3.263722   -0.463270    0.684090
 N   -2.393563    0.666553    0.909539
 C   -1.517107    0.875058    1.921406
 N   -0.839487    1.983934    1.804865
 C   -1.277616    2.552354    0.632886
 C   -0.897524    3.678210   -0.121223
 N    0.064606    4.538371    0.259840
 N   -1.562846    3.926998   -1.251416
 C   -2.503786    3.096371   -1.654018
 N   -2.907788    1.975783   -1.077925
 C   -2.260473    1.732220    0.064404
 H    6.051377   -0.397737    0.335856
 H    2.927938   -0.452464   -2.209395
 H    0.777148    1.883742    2.112021
 H    2.655386   -2.946527    0.355304
 H   -0.667848   -2.717725    1.731196
 H   -0.863029   -3.948530    0.459563
 H   -3.074335   -3.532432    1.272989
 H   -2.612387   -2.982065   -1.394075
 H   -5.025230   -2.348775   -1.224422
 H   -2.149860   -0.672765   -1.166217
 H   -3.998868    0.482118   -1.719116
 H   -4.302359   -0.150205    0.889097
 H   -1.421373    0.185343    2.735872
 H    0.380478    5.186025   -0.443825
 H    0.729130    4.221218    0.945133
 H   -2.998930    3.355647   -2.579970
