47 
3lf0_ligand_dft.xyz
 P    4.382870   -0.428057   -0.372991
 O    4.180789   -1.825541    0.085863
 O    5.873970    0.095437   -0.286180
 O    3.971731   -0.067210   -1.841505
 P    2.027593    0.982654    0.600227
 O    1.849977    1.557626    2.046888
 O    1.571857    1.795580   -0.535142
 O    3.600449    0.617930    0.602317
 P    1.044303   -1.603396   -0.428489
 O    1.474442   -1.130730   -1.761291
 O    1.732744   -2.895714    0.158085
 O    1.314570   -0.484927    0.722445
 O   -0.502465   -1.916433   -0.307163
 C   -1.026157   -2.977845    0.515892
 C   -2.520753   -2.793008    0.694091
 O   -2.787125   -1.661756    1.533067
 C   -3.330424   -2.566561   -0.583772
 O   -4.629612   -3.055929   -0.368668
 C   -3.355519   -1.041388   -0.696689
 O   -4.501265   -0.629023   -1.380537
 C   -3.338137   -0.615454    0.791217
 N   -2.504479    0.572118    0.976639
 C   -1.428014    0.713090    1.796880
 N   -0.773150    1.833432    1.601681
 C   -1.451369    2.462641    0.572573
 C   -1.198748    3.606768   -0.210926
 N   -0.091221    4.369548   -0.059924
 N   -2.101745    3.951337   -1.141986
 C   -3.143665    3.149102   -1.362409
 N   -3.427563    1.984482   -0.777401
 C   -2.543658    1.697213    0.188965
 H    6.416537   -0.490123    0.259253
 H    3.049345   -0.374399   -2.047281
 H    0.886379    1.851685    2.108601
 H    2.714135   -2.741016    0.196539
 H   -0.539765   -2.962296    1.494326
 H   -0.817539   -3.933833    0.027997
 H   -2.901528   -3.679705    1.210367
 H   -2.860137   -3.033307   -1.459803
 H   -5.218644   -2.485193   -0.886249
 H   -2.437856   -0.690371   -1.181261
 H   -4.455463    0.346994   -1.413406
 H   -4.352233   -0.393478    1.139269
 H   -1.159654   -0.049862    2.511015
 H    0.050857    5.039596   -0.803726
 H    0.744680    3.873130    0.223776
 H   -3.835339    3.475924   -2.134044
