32 
3lgl_ligand_xtb.xyz
 N   -3.671497   -1.489911    0.050963
 C   -2.575478   -0.534564    0.399842
 C   -1.233932   -0.966028   -0.204214
 C   -0.058363   -0.232650    0.456206
 C    1.274044   -0.545739   -0.234714
 C    2.400303    0.247162    0.431065
 N    3.689010    0.200719   -0.309642
 C    4.311143   -1.136647   -0.281461
 C    4.630095    1.213827    0.210303
 C   -2.984666    0.889898   -0.057201
 O   -4.303417    0.972866   -0.184352
 O   -2.205448    1.767605   -0.244481
 H   -3.618897   -2.357955    0.599532
 H   -3.637910   -1.732088   -0.949388
 H   -4.578632   -1.023189    0.228197
 H   -2.491803   -0.495045    1.492640
 H   -1.231242   -0.751372   -1.274663
 H   -1.106691   -2.042017   -0.066914
 H   -0.242655    0.839488    0.405250
 H    0.003408   -0.520397    1.506482
 H    1.464253   -1.618019   -0.175728
 H    1.199785   -0.265494   -1.287835
 H    2.579797   -0.124580    1.442054
 H    2.093491    1.293432    0.502478
 H    3.492943    0.433389   -1.290986
 H    4.519400   -1.422968    0.748109
 H    3.657374   -1.878072   -0.733727
 H    5.249531   -1.125724   -0.832787
 H    4.202869    2.211666    0.131800
 H    5.559731    1.190677   -0.355215
 H    4.854038    1.007429    1.255469
 H   -4.599344    1.869868   -0.422321
