28 
3lgs_ligand_xtb.xyz
 C    3.463639   -1.206391    0.218700
 O    2.146348   -1.641140   -0.090822
 C    3.401219    0.292546    0.572909
 O    4.138795    1.033171   -0.355669
 C    1.894037    0.620463    0.483403
 O    1.707585    1.897410   -0.032209
 C    1.385771   -0.518661   -0.433914
 N   -0.007447   -0.809269   -0.239463
 C   -0.608847   -2.036198   -0.147009
 N   -1.896484   -1.980854   -0.008415
 C   -2.197718   -0.642392   -0.010228
 C   -3.393116    0.092142    0.095246
 N   -4.594855   -0.485476    0.233028
 N   -3.322089    1.427641    0.057149
 C   -2.146485    2.010154   -0.076202
 N   -0.957742    1.440424   -0.186955
 C   -1.016912    0.104329   -0.152643
 H    3.826254   -1.828070    1.037549
 H    4.115613   -1.327474   -0.653825
 H    3.783775    0.483347    1.585108
 H    3.638294    1.846020   -0.527850
 H    1.422322    0.504955    1.471496
 H    0.737785    2.027617   -0.152301
 H    1.554065   -0.225938   -1.489249
 H   -0.032474   -2.937735   -0.183123
 H   -4.660246   -1.486805    0.254444
 H   -5.412582    0.093897    0.294829
 H   -2.153855    3.091446   -0.096447
