44 
3lhg_ligand_dft.xyz
 C   -0.454588   -2.219480   -2.105241
 F   -6.428857    0.271441   -1.154724
 N    1.692094    4.281025   -0.248953
 O    3.558894   -0.272852   -1.825135
 C   -1.682150   -1.860772   -1.566064
 F   -2.259095   -0.505415    2.220083
 N    2.109215   -0.528944    1.353259
 C    0.720836   -1.634167   -1.641229
 N    3.893778   -1.254698    0.231308
 C   -5.589050    0.252127    1.041910
 N    3.461941   -2.088582    2.462538
 C   -4.508378    0.053407    1.893272
 C    1.604496    2.116084   -1.296363
 C    1.998236    2.278729    1.052615
 C   -0.574772   -0.304599   -0.108558
 C   -4.169515   -0.285081   -0.848116
 C    1.548163    3.503356   -1.326504
 C    1.912537    3.662158    0.910423
 C   -1.756422   -0.892564   -0.558704
 C   -3.072086   -0.487167   -0.004871
 C    0.663831   -0.676160   -0.631952
 C    1.834249    1.483483   -0.075163
 C   -5.396999    0.077399   -0.319670
 C   -3.280135   -0.308784    1.364653
 C    3.208463   -0.508027   -0.690472
 C    3.196907   -1.375565    1.446579
 C    1.907249   -0.040035   -0.005107
 C    5.165202   -1.884548   -0.035593
 H   -0.407977   -2.968184   -2.889815
 H   -2.590380   -2.341279   -1.918057
 H    1.305402   -0.784997    1.909288
 H    1.670591   -1.914224   -2.083429
 H   -6.563062    0.539464    1.420768
 H    4.310016   -2.634594    2.331328
 H   -4.608031    0.171638    2.966221
 H    1.479233    1.540401   -2.206781
 H    2.189689    1.829974    2.020691
 H   -0.620881    0.468557    0.652388
 H   -4.062575   -0.389037   -1.922407
 H    1.374927    4.019802   -2.267909
 H    2.028420    4.305074    1.780576
 H    5.911466   -1.559609    0.695217
 H    5.476445   -1.579886   -1.035544
 H    5.071502   -2.974896   -0.001826
