57 
3li2_ligand_dft.xyz
 C   -5.149543   -1.402854    0.373355
 C   -4.554807   -0.534209   -0.706539
 C   -3.169264    0.009216   -0.311700
 C   -2.655207    0.933271   -1.429171
 C   -1.256719    1.486171   -1.186423
 N   -1.172602    2.498190   -0.301683
 C    0.067394    3.205328   -0.073406
 C    1.064561    2.428849    0.822561
 C    2.541346    2.768117    0.590823
 C    3.023157    2.498213   -0.844428
 N    2.633182    1.179510   -1.307171
 C    3.338774    0.087405   -0.955785
 C    2.652529   -1.249064   -1.184194
 C    3.106985   -2.255182   -0.107744
 C    2.327795   -3.591354   -0.204483
 C    0.847795   -3.360291   -0.091073
 O   -4.655602   -1.597700    1.462591
 O   -6.313204   -1.946079   -0.002276
 O   -3.240059    0.775117    0.858196
 C   -2.180232   -1.154107   -0.137879
 O   -2.140661   -1.938331   -1.191565
 O   -1.513717   -1.296663    0.872712
 O   -0.285577    1.052664   -1.807463
 C   -0.282842    4.544017    0.541641
 O    0.741969    5.406574    0.481148
 O   -1.341358    4.808619    1.059831
 O    4.466042    0.144859   -0.455364
 C    2.920946   -1.698325    1.322882
 O    4.449341   -2.598581   -0.293550
 O    1.997957   -0.714065    1.387615
 O    3.506214   -2.104461    2.290251
 O    0.444881   -3.137387    1.145364
 O    0.108826   -3.310538   -1.067221
 H   -4.510217   -1.106102   -1.637726
 H   -5.233121    0.310238   -0.872575
 H   -2.619979    0.385550   -2.371937
 H   -3.368073    1.759694   -1.522357
 H   -1.964249    2.718523    0.289899
 H    0.527669    3.384971   -1.049818
 H    0.802706    2.586646    1.875657
 H    0.908807    1.366119    0.620297
 H    3.137715    2.145464    1.266346
 H    2.746832    3.813815    0.843579
 H    2.624013    3.236093   -1.547688
 H    4.111966    2.566909   -0.883207
 H    1.659442    1.061396   -1.580554
 H    1.567203   -1.121342   -1.208016
 H    2.959977   -1.658103   -2.152694
 H    2.550871   -4.041835   -1.172612
 H    2.685460   -4.240922    0.598485
 H   -6.631406   -2.477741    0.745834
 H   -3.346748    0.153169    1.595245
 H   -1.367469   -2.569796   -1.114419
 H    0.454827    6.215789    0.934991
 H    4.926222   -1.746737   -0.277615
 H    1.910401   -0.485935    2.326810
 H   -0.413328   -2.643182    1.123266
