60 
3ljo_ligand_dft.xyz
 N   -1.693286   -1.752287    0.192553
 C   -0.627601   -1.144280   -0.326600
 O   -0.553306   -0.707126   -1.479802
 C    0.601916   -0.997572    0.586368
 C   -1.772070   -2.332192    1.544414
 C   -3.208988   -2.860557    1.637662
 C   -3.615828   -3.104714    0.178806
 C   -2.928935   -1.976811   -0.589577
 C   -3.729145   -0.660869   -0.559868
 N   -3.419914    0.209038   -1.558850
 C   -3.640687    1.640755   -1.361170
 C   -2.422575    2.198616   -0.655988
 C   -2.217294    1.908152    0.696719
 C   -0.988936    2.159013    1.291607
 C    0.059265    2.715243    0.547244
 C    1.445367    2.723378    1.101927
 N    2.503795    2.464496    0.398261
 N    1.562077    2.839684    2.455119
 C   -0.176866    3.088998   -0.777487
 C   -1.407128    2.833873   -1.370062
 O   -4.513011   -0.412701    0.341933
 N    1.658162   -0.348097   -0.227777
 C    2.955297   -1.095404   -0.398064
 C    3.738288   -1.075584    0.912802
 C    5.095446   -1.767186    0.732613
 C    5.894044   -1.135512   -0.410295
 C    5.092600   -1.145314   -1.714238
 C    3.739326   -0.446893   -1.537052
 H    0.955645   -1.970431    0.935990
 H    0.373675   -0.378694    1.456311
 H   -1.038977   -3.142350    1.639367
 H   -1.559255   -1.574591    2.305154
 H   -3.860582   -2.100908    2.071338
 H   -3.262866   -3.763588    2.248477
 H   -3.240332   -4.068321   -0.179702
 H   -4.697976   -3.078891    0.044056
 H   -2.658204   -2.250532   -1.612728
 H   -2.605729   -0.030999   -2.113066
 H   -4.548969    1.754270   -0.767699
 H   -3.796772    2.116120   -2.332360
 H   -3.012008    1.434954    1.265659
 H   -0.830410    1.878157    2.329334
 H    2.260102    2.445646   -0.592159
 H    2.507621    2.948724    2.797422
 H    0.861511    3.369388    2.952248
 H    0.604064    3.576985   -1.354997
 H   -1.564968    3.099786   -2.411649
 H    1.896514    0.591200    0.144663
 H    1.195697   -0.204432   -1.150273
 H    2.679178   -2.120951   -0.671963
 H    3.892014   -0.027273    1.204173
 H    3.169872   -1.561930    1.714995
 H    4.935664   -2.833894    0.525837
 H    5.653560   -1.709281    1.671583
 H    6.839024   -1.669550   -0.547256
 H    6.148569   -0.100070   -0.148272
 H    5.649895   -0.649506   -2.514215
 H    4.927127   -2.181008   -2.039473
 H    3.161207   -0.491043   -2.468380
 H    3.907833    0.610960   -1.293168
