61 
3ljz_ligand_xtb.xyz
 C   -0.482702   -1.561670    1.141255
 C    0.598200   -1.840601   -1.380339
 C   -1.336521   -1.622703    0.042802
 C    0.889476   -1.595686    0.978765
 C    1.452397   -1.720142   -0.285540
 C   -0.772339   -1.778421   -1.221963
 C   -2.791383   -1.506862    0.211797
 C    2.941912   -1.688028   -0.472336
 C   -5.512113   -1.255965    0.577879
 C   -3.529191   -0.752161   -0.711596
 C   -3.433426   -2.118892    1.282875
 C   -4.805800   -2.009297    1.483357
 C   -4.878213   -0.637486   -0.500931
 O   -5.806200    0.056381   -1.234604
 O   -6.851464   -0.971937    0.543125
 C   -7.044758   -0.157972   -0.592849
 C    3.413341   -0.493263   -1.330185
 C    3.112322    0.825029   -0.621278
 C    4.900321   -0.633825   -1.696429
 C    5.758746   -1.105183   -0.535970
 O    6.181232   -2.244798   -0.406998
 N    6.070193   -0.142005    0.338081
 O    6.776361   -0.504245    1.490482
 O    3.969334    1.553136   -0.134768
 N    1.811512    1.146039   -0.614049
 C    1.280818    2.330874    0.035921
 C   -0.175292    2.449663   -0.306344
 C    1.287679    2.229020    1.599634
 O    2.172720    1.266976    2.097964
 C   -0.151657    1.863877    2.004603
 C   -2.915721    2.438684   -0.565548
 C   -0.733030    2.730506   -1.538701
 C   -0.976183    2.153666    0.791961
 C   -2.352332    2.144634    0.667305
 C   -2.114959    2.729394   -1.658312
 H   -0.900959   -1.459971    2.131681
 H    1.012186   -1.981383   -2.369347
 H    1.532680   -1.503493    1.840884
 H   -1.415129   -1.871835   -2.084438
 H    3.274053   -2.603710   -0.968623
 H    3.428827   -1.645128    0.503329
 H   -3.052836   -0.253359   -1.538319
 H   -2.856456   -2.717169    1.970794
 H   -5.297260   -2.491777    2.311267
 H   -7.740404   -0.654627   -1.288576
 H   -7.472550    0.809484   -0.284145
 H    2.839925   -0.485685   -2.263954
 H    5.001772   -1.377085   -2.488323
 H    5.277416    0.324784   -2.055522
 H    5.581381    0.747662    0.392292
 H    6.985422   -1.447641    1.330470
 H    1.133097    0.460033   -0.912528
 H    1.884625    3.182585   -0.295933
 H    1.544495    3.224045    1.995015
 H    3.065193    1.491867    1.801517
 H   -0.482349    2.425486    2.877395
 H   -0.184887    0.801654    2.251098
 H   -3.989262    2.435154   -0.678966
 H   -0.105213    2.951649   -2.389271
 H   -2.978650    1.908633    1.514419
 H   -2.570478    2.954320   -2.611058
