128 
3lkj_ligand_xtb.xyz
 C   -4.218277   -2.824601   -1.229365
 N   -5.499956   -2.610420   -1.576136
 O   -3.784412   -3.927826   -0.937832
 C   -6.486794   -3.653617   -1.365013
 N   -6.006098   -3.333261    1.036461
 O    2.449275   -3.900621    1.498334
 C   -7.563539   -3.413708   -2.435135
 N    4.151718   -3.698529    0.011068
 O    2.973807    2.130431   -1.498131
 C   -7.046520   -2.225588   -3.256896
 N    3.131948   -1.255520   -0.609885
 O   -8.025093    3.581322   -1.118709
 C   -6.093758   -1.509821   -2.296829
 N    4.786190    0.803681   -1.680970
 O   -7.637717    1.386135   -1.078597
 C   -7.050989   -3.518285    0.073902
 N    4.681164    3.925706   -0.989967
 O   -3.103583    2.954647   -0.318472
 C   -5.264534   -4.308818    1.622698
 N   -5.060310    1.796999   -0.406521
 C   -4.272082   -3.722992    2.357782
 N   -3.858432   -0.436821   -0.952680
 C   -4.408249   -2.329839    2.201005
 C   -5.477444   -2.124654    1.374373
 C   -3.316963   -1.630920   -1.129524
 C   -1.941338   -1.847126   -1.071070
 C   -1.097797   -0.767529   -0.834531
 C    0.356948   -0.941882   -0.754161
 C    0.924706   -2.079628   -0.185569
 C    2.310218   -2.191274   -0.148669
 C    2.961065   -3.358506    0.544039
 C    5.106355   -4.540200    0.692284
 C    6.361388   -3.775574    1.031708
 C    7.583683   -4.428258    1.127270
 C    8.731259   -3.714551    1.425716
 C    8.677993   -2.344497    1.604603
 C    7.461903   -1.671620    1.511473
 C    7.391553   -0.213496    1.694379
 C    8.403643    0.612912    1.206420
 C    8.356719    1.980975    1.403978
 C    7.293055    2.549799    2.086719
 C    6.272324    1.740492    2.561730
 C    6.319403    0.372017    2.366050
 C    6.309684   -2.404892    1.240357
 C    2.596254   -0.144563   -1.109852
 C    3.484124    0.991329   -1.463071
 C    5.691267    1.903522   -2.049260
 C    7.040375    1.212834   -2.275823
 C    6.652453   -0.196731   -2.702278
 C    5.453258   -0.483602   -1.806784
 C    5.813322    2.987146   -0.972254
 C    4.418377    4.610982    0.288653
 C    3.406830    5.702532   -0.070254
 C    3.568511    5.907200   -1.589346
 C    4.752400    5.021713   -1.970923
 C    1.222731    0.051191   -1.210666
 C   -1.678509    0.486470   -0.648964
 C   -3.060457    0.595166   -0.708746
 C   -3.726688    1.918732   -0.459219
 C   -5.990463    2.862412   -0.137597
 C   -6.187170    3.039340    1.392158
 C   -7.165274    4.159720    1.732545
 C   -7.074035    4.487459    3.228171
 C   -6.799222    3.229845    4.063982
 C   -7.372638    1.996625    3.375521
 C   -6.633782    1.728006    2.058529
 C   -7.294802    2.513936   -0.826319
 H   -5.987231   -4.621871   -1.462119
 H   -8.513446   -3.165665   -1.962141
 H   -7.716638   -4.294186   -3.055257
 H    4.498594   -3.142490   -0.755291
 H   -7.848409   -1.574903   -3.596835
 H   -6.493562   -2.581485   -4.126728
 H   -8.867356    3.330901   -1.533583
 H   -5.336998   -0.919162   -2.809264
 H   -6.655220   -0.856308   -1.620836
 H   -7.712682   -2.647753    0.117016
 H   -7.626956   -4.414413    0.318726
 H    3.820955    3.278535   -1.243269
 H   -5.495749   -5.344767    1.475326
 H   -5.440279    0.867942   -0.547284
 H   -3.530959   -4.229696    2.943255
 H   -3.791971   -1.571503    2.645060
 H   -5.913970   -1.211307    1.019477
 H   -1.571583   -2.850743   -1.209029
 H    0.322262   -2.862546    0.247101
 H    4.614265   -4.897446    1.603580
 H    5.352278   -5.408703    0.072430
 H    7.634102   -5.495683    0.974850
 H    9.675463   -4.229722    1.513899
 H    9.577334   -1.799296    1.847243
 H    9.235626    0.177847    0.672351
 H    9.157943    2.604599    1.035047
 H    7.269582    3.615299    2.264221
 H    5.447281    2.175330    3.107523
 H    5.537148   -0.251748    2.771115
 H    5.356185   -1.898063    1.185311
 H    5.326091    2.350662   -2.983545
 H    7.591251    1.175165   -1.334682
 H    7.641716    1.730921   -3.018553
 H    7.453534   -0.915122   -2.552583
 H    6.358311   -0.211698   -3.752004
 H    4.774668   -1.220563   -2.232157
 H    5.777516   -0.823117   -0.819503
 H    6.744647    3.540213   -1.123483
 H    5.858111    2.507376    0.010006
 H    4.040235    3.904332    1.025803
 H    5.353953    5.041779    0.654184
 H    2.393858    5.383491    0.165200
 H    3.606965    6.614939    0.485953
 H    2.671124    5.582127   -2.112933
 H    3.750854    6.946716   -1.848652
 H    4.687874    4.645629   -2.990364
 H    5.700645    5.551541   -1.843144
 H    0.847936    0.966893   -1.639536
 H   -1.098199    1.367123   -0.422489
 H   -5.597468    3.798480   -0.548875
 H   -5.201932    3.321341    1.776505
 H   -8.179302    3.845069    1.483099
 H   -6.944656    5.050143    1.142482
 H   -6.278331    5.214375    3.397875
 H   -8.010482    4.948457    3.545209
 H   -7.235928    3.342655    5.056869
 H   -5.724407    3.090931    4.193705
 H   -7.283983    1.124918    4.025067
 H   -8.435427    2.157787    3.187797
 H   -5.757339    1.106330    2.251355
 H   -7.292507    1.171080    1.389619
