52 
3lkz_ligand_xtb.xyz
 N    0.734295    3.364883    1.012540
 C    1.743048    2.887685    0.062657
 C    0.956797    2.367350   -1.141266
 O    0.262089    1.376587   -1.117653
 O    1.104884    3.138676   -2.195261
 C    2.523673    1.751937    0.734085
 C    3.514937    1.058527   -0.202765
 C    4.145125   -0.187263    0.440703
 N    4.652378   -1.103171   -0.639481
 C    3.280676   -1.006823    1.405549
 C    1.948619   -1.602958    0.923340
 O    0.839562   -0.928170    1.517079
 C    1.571377   -1.561952   -0.574059
 O    2.382211   -2.358391   -1.389290
 C    0.097093   -1.998305   -0.494775
 O    0.067789   -3.388998   -0.536538
 C   -0.316068   -1.427903    0.905875
 N   -1.319429   -0.397679    0.788855
 C   -1.278491    0.898395    1.089932
 N   -2.454457    1.461933    0.837411
 C   -3.315204    0.506257    0.340285
 C   -4.663217    0.423360   -0.105293
 N   -5.534186    1.428264   -0.138893
 N   -5.074859   -0.771608   -0.533102
 C   -4.279818   -1.816026   -0.532600
 N   -3.013635   -1.859445   -0.128302
 C   -2.578285   -0.686680    0.302951
 H   -2.660301    2.439062    0.991717
 H    1.191726    3.669076    1.867339
 H    0.260843    4.180210    0.634590
 H    2.423538    3.674381   -0.294371
 H    0.583339    2.855975   -2.966803
 H    1.789230    1.033987    1.093387
 H    3.057558    2.161995    1.592105
 H    3.008304    0.787148   -1.129224
 H    4.308430    1.760714   -0.466346
 H    5.014744    0.138757    1.021290
 H    3.846887   -1.654259   -1.059842
 H    5.120432   -0.572800   -1.382188
 H    5.322227   -1.780005   -0.258145
 H    3.049259   -0.393928    2.276289
 H    3.901530   -1.827008    1.769902
 H    1.910869   -2.658250    1.235270
 H    1.591323   -0.539330   -0.951370
 H    2.019802   -3.260487   -1.385456
 H   -0.508134   -1.548409   -1.287413
 H   -0.838261   -3.707066   -0.633745
 H   -0.756416   -2.246739    1.499759
 H   -0.421427    1.441743    1.454308
 H   -6.465591    1.218631   -0.465445
 H   -5.334336    2.353526    0.197517
 H   -4.700159   -2.740391   -0.900724
