42 
3llm_ligand_dft.xyz
 P   -2.940717    0.221839   -0.682066
 O   -4.415330   -0.022691   -0.144473
 O   -2.422315   -0.715435   -1.697885
 O   -2.941232    1.760916   -0.988586
 P   -1.717388   -1.294401    1.346054
 O   -2.891404   -2.184665    1.247457
 O   -1.186339   -0.895213    2.794922
 O   -2.009712    0.152160    0.687413
 O   -0.349071   -1.789527    0.726493
 C   -0.274057   -2.817732   -0.281642
 C    1.132780   -2.820080   -0.854055
 O    1.331088   -1.694838   -1.720394
 C    2.268333   -2.745930    0.170585
 O    3.406292   -3.350215   -0.391135
 C    2.488755   -1.237010    0.311194
 O    3.809393   -0.968215    0.684470
 C    2.140594   -0.738737   -1.111084
 N    1.404924    0.527300   -1.058508
 C    0.221400    0.816139   -1.665791
 N   -0.252132    1.999495   -1.338954
 C    0.684942    2.515789   -0.463597
 C    0.771403    3.712141    0.273004
 N   -0.159885    4.683305    0.199393
 N    1.831389    3.898988    1.074470
 C    2.758428    2.940547    1.148534
 N    2.791736    1.768080    0.515947
 C    1.722848    1.611681   -0.280519
 H   -4.475130   -0.935550    0.193062
 H   -2.011744    2.033227   -1.254963
 H   -1.892484   -0.536221    3.349511
 H   -0.495976   -3.781212    0.186052
 H   -0.998867   -2.608289   -1.072126
 H    1.245521   -3.719788   -1.465825
 H    1.993663   -3.209268    1.127669
 H    4.169732   -2.876448   -0.027282
 H    1.772221   -0.825150    1.027931
 H    3.858761    0.000770    0.793060
 H    3.054326   -0.586614   -1.695114
 H   -0.280545    0.099209   -2.298295
 H   -1.027578    4.525782   -0.286295
 H   -0.086346    5.463166    0.833280
 H    3.590285    3.145578    1.817063
