59 
3lmp_ligand_xtb.xyz
 C   -7.138032    1.412774    1.028152
 C   -6.830000    0.048067    0.499434
 O   -7.746322   -0.774672    0.378922
 C   -5.462931   -0.286397    0.120308
 C   -4.403240    0.683036    0.187828
 C   -3.104571    0.250250   -0.476254
 C   -2.846781   -1.220472   -0.465088
 C   -3.864551   -2.105591   -0.481190
 C   -5.191400   -1.621137   -0.271146
 O   -1.543550   -1.492657   -0.389777
 C   -0.887001   -0.317477   -0.103293
 C   -1.770486    0.756453   -0.005356
 C    0.473673   -0.207444    0.118691
 C    0.945527    1.082614    0.451286
 C    0.070580    2.151560    0.569913
 C   -1.304783    2.013830    0.348539
 C   -3.292998    0.690506   -1.958874
 O   -4.492111    1.830913    0.612678
 O   -6.140131   -2.516407   -0.351108
 O   -2.096286    3.080433    0.498126
 O    2.287275    1.190980    0.647137
 C    2.863966    2.470588    0.774652
 C    1.382709   -1.362845   -0.150722
 O    1.234880   -2.085772   -1.116830
 N    2.366888   -1.529291    0.757928
 C    3.511498   -2.386980    0.515031
 C    4.781575   -1.583257    0.613375
 C    5.047872   -0.528404   -0.302033
 C    6.191465    0.289082   -0.088398
 C    7.056286    0.009116    0.990355
 C    6.799308   -1.034287    1.831998
 C    5.650609   -1.816618    1.648794
 C    6.441072    1.369756   -0.960654
 C    5.606432    1.631235   -2.009872
 C    4.497947    0.804701   -2.243665
 C    4.227238   -0.250103   -1.416933
 H   -6.846160    2.173402    0.307507
 H   -8.203958    1.479225    1.232507
 H   -6.570806    1.600181    1.936943
 H   -3.716981   -3.169071   -0.559924
 H    0.420550    3.132702    0.842786
 H   -4.173199    0.214679   -2.384604
 H   -3.410842    1.770980   -2.002710
 H   -2.417884    0.407105   -2.539405
 H   -7.016182   -2.056003   -0.098358
 H   -3.044201    2.791877    0.501017
 H    2.609231    3.108569   -0.075351
 H    2.558036    2.957950    1.705240
 H    3.939609    2.300682    0.789107
 H    2.478493   -0.835033    1.479646
 H    3.526594   -3.194876    1.255134
 H    3.374572   -2.829737   -0.475577
 H    7.924946    0.635433    1.135356
 H    7.465397   -1.255521    2.652791
 H    5.449029   -2.619181    2.344435
 H    7.310828    1.986342   -0.781738
 H    5.801363    2.463377   -2.670715
 H    3.856988    1.003766   -3.090023
 H    3.380420   -0.879710   -1.632016
