32 
3lp1_ligand_dft.xyz
 C   -0.157397    1.589364    0.019491
 N   -1.512994    1.551312    0.044586
 O   -2.187793    2.624002    0.069749
 C    0.045066   -0.797425    0.007647
 C    0.662937    0.434225    0.039421
 O    0.309123    2.844738    0.006668
 C   -2.140279    0.298675    0.026437
 C   -1.368831   -0.886362   -0.027282
 C   -2.090062   -2.100694   -0.120976
 C   -3.459419   -2.079916   -0.115081
 C   -4.109739   -0.829839   -0.019081
 N   -3.480149    0.320830    0.041079
 O    0.825485   -1.918025   -0.022358
 C    2.173017    0.548701    0.085047
 C    2.864438   -0.220066    1.258760
 C    3.967453   -1.072736    0.605846
 C    4.273050   -0.357377   -0.715416
 C    2.885300    0.065205   -1.202749
 H    1.262441    2.824317   -0.134391
 H   -1.565730   -3.046922   -0.226025
 H   -4.038155   -2.993789   -0.190946
 H   -5.196642   -0.783141   -0.000565
 H    0.352464   -2.654412    0.381854
 H    2.449232    1.600982    0.222539
 H    2.156414   -0.828807    1.823322
 H    3.295965    0.502849    1.958434
 H    3.578037   -2.073661    0.391132
 H    4.846921   -1.185346    1.246800
 H    4.801283   -0.989777   -1.435194
 H    4.896586    0.527777   -0.531993
 H    2.906045    0.840291   -1.975426
 H    2.359402   -0.801625   -1.614052
