26 
3lp4_ligand_xtb.xyz
 N   -2.740732   -1.539527   -0.056212
 C   -1.670311   -0.581737    0.357677
 C   -2.120299    0.860329    0.003143
 O   -1.363946    1.766823   -0.133454
 C   -0.319050   -0.930603   -0.277722
 C    0.837090   -0.212178    0.431934
 C    2.178726   -0.445728   -0.272090
 C    3.280317    0.345680    0.427840
 N    4.595308    0.183563   -0.261218
 O   -3.441697    0.917721   -0.102385
 H   -3.659364   -1.112894    0.159824
 H   -2.708080   -1.706116   -1.072011
 H   -2.661000   -2.444084    0.426171
 H   -1.584590   -0.617399    1.450408
 H   -0.160773   -2.009493   -0.217725
 H   -0.326764   -0.639988   -1.329952
 H    0.627357    0.856296    0.447604
 H    0.903135   -0.564106    1.462064
 H    2.094617   -0.120591   -1.310574
 H    2.417175   -1.511010   -0.262218
 H    3.026474    1.407164    0.436236
 H    3.390757    0.008925    1.459967
 H    4.539748    0.518641   -1.233244
 H    5.329534    0.720514    0.221064
 H    4.879882   -0.805769   -0.277997
 H   -3.763823    1.820724   -0.275596
