89 
3lpi_ligand_dft.xyz
 C   -4.713012   -1.607616    1.334403
 F    5.457889   -4.479976   -2.536104
 N    0.292218   -1.447954    0.439854
 O    2.713196    4.533482    1.115292
 S    2.510246    3.192144    0.607779
 C   -3.922644   -0.616646    0.755062
 F    6.562420    0.063598   -2.386354
 N   -5.531298    0.657781   -0.635148
 O    3.560019    2.562478   -0.199778
 C   -2.536425   -0.763704    0.746797
 N    2.183692    2.236126    1.979269
 O   -4.016667    1.736684    0.658077
 C   -1.960558   -1.918377    1.278634
 N    4.022272    0.097936    2.460886
 O    0.008014   -3.019678    2.035883
 C   -2.770124   -2.899920    1.856259
 O    2.403333   -1.965364    2.508037
 C   -4.153502   -2.756038    1.897882
 C   -0.491904   -2.174674    1.290982
 C   -4.498529    0.682799    0.247367
 C   -6.111517    1.947567   -1.025008
 C   -6.034622   -0.536789   -1.310810
 C   -7.440245   -0.960235   -0.878880
 C   -7.844744   -2.280295   -1.532177
 C   -5.246570    2.775290   -1.979840
 C   -4.841428    2.040090   -3.255463
 C   -5.025839   -3.794044    2.554832
 C    1.659909   -1.866272    0.130612
 C    2.706759   -1.516206    1.211439
 C    3.014411   -0.022795    1.337334
 C    2.029282   -1.288408   -1.249606
 C    3.437315   -1.608701   -1.695673
 C    4.375682   -0.588055   -1.855857
 C    5.669708   -0.917319   -2.243146
 C    6.069451   -2.222622   -2.476126
 C    5.110302   -3.212706   -2.314986
 C    3.806884   -2.935169   -1.930075
 C    1.819741    0.849324    1.712159
 C    3.164233    2.354829    3.053285
 C    4.414096    1.512249    2.793931
 C    0.974944    2.991313   -0.254320
 C   -0.216383    3.314105    0.392570
 C   -1.418714    3.022210   -0.239606
 C   -1.412515    2.428990   -1.502830
 C   -0.213447    2.147446   -2.153357
 C    0.998044    2.424646   -1.526344
 H   -5.790346   -1.476448    1.369727
 H   -0.181555   -0.910837   -0.273887
 H   -1.938199    0.057895    0.359703
 H    4.858950   -0.439443    2.214972
 H    3.599177   -0.395824    3.261348
 H   -2.296083   -3.779474    2.280229
 H    1.591914   -2.523857    2.483163
 H   -7.076942    1.733876   -1.492849
 H   -6.303143    2.523940   -0.116217
 H   -6.034920   -0.341957   -2.390093
 H   -5.330315   -1.354886   -1.145552
 H   -8.161985   -0.179598   -1.145282
 H   -7.481798   -1.051171    0.212489
 H   -7.811060   -2.207881   -2.624934
 H   -7.172379   -3.091560   -1.229948
 H   -8.862174   -2.563386   -1.249199
 H   -5.816682    3.675115   -2.239170
 H   -4.360090    3.115838   -1.437483
 H   -5.718007    1.724211   -3.832757
 H   -4.251253    1.142915   -3.030429
 H   -4.236282    2.683792   -3.901807
 H   -5.223861   -3.526905    3.599033
 H   -5.991494   -3.882211    2.048425
 H   -4.546997   -4.776748    2.550454
 H    1.666025   -2.962504    0.074575
 H    3.632080   -2.007654    0.868561
 H    3.510320    0.366219    0.448469
 H    1.313366   -1.690500   -1.976564
 H    1.885278   -0.200696   -1.238254
 H    4.122409    0.457741   -1.704733
 H    7.081148   -2.459821   -2.781244
 H    3.099012   -3.751955   -1.832725
 H    1.080326    0.815246    0.914845
 H    1.329488    0.448894    2.606493
 H    3.450024    3.402104    3.171165
 H    2.672816    2.039867    3.981129
 H    5.068346    1.477199    3.667607
 H    4.970329    1.889769    1.933638
 H   -0.201215    3.757528    1.382522
 H   -2.362290    3.211409    0.258188
 H   -2.356596    2.191174   -1.982066
 H   -0.217855    1.711424   -3.147296
 H    1.946192    2.208598   -2.007349
