90 
3lpj_ligand_dft.xyz
 C    2.256573   -1.999991   -0.552903
 F   -3.309921   -4.076414   -1.224485
 N    4.995953   -0.384222   -0.344997
 O    3.479963    1.010104    0.618621
 C    2.566900   -0.655370   -0.740974
 F   -6.052968   -1.653610    1.691559
 N   -1.906854    0.430395   -1.732132
 O   -0.292533    1.877048   -2.382282
 C    1.630519    0.179213   -1.342839
 N   -1.322639    3.698021   -0.795288
 O   -4.032650    3.333777   -0.899657
 C    0.382682   -0.308948   -1.709973
 N   -0.025559    2.611202    1.567080
 C    0.088295   -1.667340   -1.534816
 C    1.026857   -2.530412   -0.973811
 C    3.747669    0.042557   -0.112609
 C    6.085800    0.285440    0.383864
 C    5.341813   -1.333662   -1.415801
 C    5.255552   -0.723079   -2.815618
 C    6.136579    0.509005   -3.008696
 C    6.272381   -0.283333    1.790400
 C    6.612426   -1.771954    1.805499
 C    0.722047   -3.995685   -0.804702
 C   -0.629264    0.728229   -2.035341
 C   -3.017896    1.350623   -1.858111
 C   -3.279172    2.184899   -0.569407
 C   -4.283942    0.552967   -2.277152
 C   -4.508596   -0.671208   -1.417690
 C   -3.873022   -1.870842   -1.761626
 C   -3.965474   -2.960348   -0.904160
 C   -4.689510   -2.919913    0.276493
 C   -5.339603   -1.731126    0.573201
 C   -5.255834   -0.605902   -0.240648
 C   -2.071175    2.813262    0.154468
 C   -1.127753    1.860494    0.881319
 C    0.706998    3.483091    0.591905
 C   -0.228551    4.450034   -0.117883
 C    0.975438    1.679002    2.297577
 C    0.273868    0.558920    2.995992
 C   -0.323078    0.753660    4.244907
 C   -1.009797   -0.288141    4.860017
 C   -1.100537   -1.528072    4.230212
 C   -0.499745   -1.729868    2.989117
 C    0.186994   -0.690045    2.372640
 H    2.961355   -2.650537   -0.041384
 H   -2.124203   -0.501343   -1.397297
 H    1.861885    1.226674   -1.494928
 H   -2.005434    4.338013   -1.219351
 H   -0.924798    3.077859   -1.573861
 H   -4.939291    3.106648   -1.141151
 H   -0.451380    3.202872    2.287989
 H   -0.869433   -2.080851   -1.843627
 H    6.996912    0.158240   -0.205724
 H    5.862295    1.353627    0.430418
 H    6.359360   -1.674007   -1.210738
 H    4.706651   -2.219428   -1.352124
 H    4.208850   -0.473083   -3.033019
 H    5.540813   -1.502148   -3.531629
 H    6.051098    0.888326   -4.030504
 H    5.849079    1.318680   -2.328618
 H    7.191833    0.276435   -2.829391
 H    5.359643   -0.094414    2.366880
 H    7.073389    0.286603    2.274706
 H    5.811633   -2.370289    1.354896
 H    7.537482   -1.975276    1.254389
 H    6.753908   -2.129874    2.828890
 H    1.099482   -4.374576    0.149745
 H   -0.352517   -4.191216   -0.855747
 H    1.202218   -4.578829   -1.598117
 H   -2.777427    2.059046   -2.656657
 H   -3.789603    1.556899    0.174108
 H   -5.157281    1.212915   -2.250576
 H   -4.155188    0.259606   -3.322675
 H   -3.345451   -1.983363   -2.704505
 H   -4.767814   -3.783811    0.925337
 H   -5.810332    0.284103    0.040590
 H   -2.518927    3.489674    0.892188
 H   -1.683899    1.313403    1.644063
 H   -0.638390    1.128908    0.243545
 H    1.203099    2.808984   -0.110064
 H    1.478511    4.031110    1.136431
 H   -0.683797    5.165821    0.573406
 H    0.328741    5.006272   -0.874062
 H    1.689102    1.330767    1.538708
 H    1.508781    2.341184    2.984872
 H   -0.229333    1.711001    4.754078
 H   -1.460644   -0.138960    5.835397
 H   -1.626629   -2.342919    4.716826
 H   -0.555613   -2.701238    2.508219
 H    0.674048   -0.849450    1.413198
