91 
3lpk_ligand_dft.xyz
 C    3.026239   -1.119907    1.482247
 F   -7.157581    0.811999    0.487314
 N    5.298253   -0.864476   -0.485716
 O    3.670541   -0.015234   -1.814248
 S   -1.893498    2.474385   -0.758155
 C    2.941456   -1.203538    0.094441
 F   -3.557801    1.163194    3.458339
 N   -1.670799   -2.437651    0.271978
 O   -0.458612   -3.090137   -1.520616
 C    1.783453   -1.704340   -0.491866
 N   -3.782641   -0.160633   -2.929995
 O   -2.810743   -2.610401   -2.746749
 C    0.732569   -2.136610    0.310834
 N   -1.571473    1.340238   -1.979203
 C    0.836842   -2.061993    1.704025
 O    6.559968    1.487828    0.319774
 C    1.981456   -1.548154    2.305933
 O   -3.135304    2.108086   -0.074661
 C    4.005501   -0.657237   -0.820023
 O   -1.789365    3.767241   -1.409000
 C    6.366293   -0.255028   -1.293540
 C    5.831985   -1.862476    0.445152
 C    7.117506   -2.311543   -0.247571
 C    7.635749   -1.006092   -0.854689
 C    6.453522    1.248301   -1.064267
 C    2.087255   -1.425645    3.803368
 C   -0.491931   -2.620269   -0.379887
 C   -2.941554   -2.857794   -0.293802
 C   -3.376009   -2.084757   -1.566232
 C   -4.028913   -2.891023    0.801552
 C   -4.518045   -1.535657    1.255402
 C   -5.667626   -0.982693    0.684692
 C   -6.067001    0.294646    1.056005
 C   -5.373785    1.053086    1.985163
 C   -4.254134    0.469489    2.550226
 C   -3.809627   -0.800027    2.207638
 C   -1.721534   -0.053645   -1.587646
 C   -2.138244    1.644872   -3.284030
 C   -3.614743    1.271360   -3.347530
 C   -3.175490   -0.549285   -1.591946
 C    3.242204    2.441046    0.294569
 C    6.840486    2.834588    0.610507
 C   -0.822566    1.870282    1.674266
 C    0.248368    1.716258    2.548466
 C    1.551638    1.884202    2.094915
 C    1.831930    2.203205    0.761397
 C    0.761128    2.343151   -0.119222
 C   -0.541571    2.182722    0.348717
 H    3.917435   -0.697082    1.938683
 H   -1.678499   -1.875830    1.110151
 H    1.699889   -1.747427   -1.571954
 H   -3.350959   -0.817918   -3.601609
 H   -4.779897   -0.391293   -2.913974
 H   -1.904298   -2.922288   -2.518723
 H    0.036496   -2.439433    2.337239
 H    6.141346   -0.423668   -2.352505
 H    5.115665   -2.670973    0.602988
 H    6.061622   -1.397398    1.411981
 H    6.880239   -3.038320   -1.031887
 H    7.824162   -2.772914    0.446310
 H    8.322257   -1.162297   -1.689806
 H    8.153613   -0.419335   -0.089242
 H    5.566290    1.747040   -1.476939
 H    7.339510    1.633486   -1.595242
 H    1.840658   -0.406621    4.124883
 H    3.101290   -1.641970    4.151457
 H    1.402182   -2.108518    4.313486
 H   -2.811088   -3.888844   -0.641358
 H   -4.459751   -2.255450   -1.654295
 H   -3.625082   -3.455062    1.648820
 H   -4.870909   -3.471935    0.413299
 H   -6.273686   -1.541688   -0.021721
 H   -5.691976    2.051523    2.256556
 H   -2.952431   -1.210859    2.732866
 H   -1.308904   -0.172333   -0.586994
 H   -1.110059   -0.658297   -2.265604
 H   -2.019203    2.709554   -3.490386
 H   -1.563757    1.088504   -4.034324
 H   -4.203833    1.875110   -2.653597
 H   -4.023980    1.369461   -4.355469
 H   -3.752328   -0.034676   -0.822722
 H    3.518798    3.488769    0.461582
 H    3.966836    1.818879    0.829686
 H    3.343209    2.222378   -0.770480
 H    6.056752    3.503688    0.224282
 H    6.887507    2.930491    1.697267
 H    7.804174    3.146394    0.181398
 H   -1.845626    1.777102    2.015945
 H    0.058909    1.482400    3.591458
 H    2.378057    1.773678    2.792547
 H    0.941673    2.578699   -1.163479
