52 
3lpp_ligand_xtb.xyz
 O    5.060846   -3.063512   -0.400462
 O   -2.126399   -3.113382    0.203212
 O    4.144484   -0.644356   -1.158074
 O   -5.967905    1.130918   -0.535568
 O    0.126588   -1.554163   -0.467907
 O    3.838121   -1.635945    1.611183
 O   -5.090692   -0.216238    1.916829
 O    3.396326    0.936313    0.851861
 O    2.230483    2.657374   -1.234312
 O    2.545375    3.428501    1.068611
 O    0.602306    4.149406   -0.169251
 C    3.764439   -3.004741   -0.940485
 C   -3.060227   -2.487643    1.048531
 C   -3.855659    0.393562   -1.530819
 C   -1.256668    0.432755   -0.619618
 O    0.742570    1.842147    0.542328
 C    3.178077   -1.594328   -0.749923
 C   -4.641039    0.763190   -0.272112
 C   -0.143451   -0.313989    0.127229
 C    2.765567   -1.375528    0.728407
 C   -4.664427   -0.497547    0.612829
 C    2.284154    0.067732    0.985465
 C   -3.232533   -1.011007    0.660791
 C    1.129692    0.554432    0.095305
 S   -2.584159   -0.792258   -1.032487
 S    1.535322    3.092187   -0.070568
 H    4.976351   -2.924679    0.556824
 H   -2.597318   -3.252634   -0.637648
 H    5.005702   -1.091674   -1.086138
 H   -5.986679    1.880857   -1.140000
 H   -0.581055   -2.191928   -0.234053
 H    4.364044   -0.823221    1.666679
 H   -5.989677    0.129615    1.859476
 H    3.754901    0.787877   -0.051482
 H    3.101973    2.629138    1.161854
 H    3.869996   -3.214461   -2.007143
 H    3.098780   -3.749421   -0.492081
 H   -4.026320   -2.994165    0.987584
 H   -2.677442   -2.568843    2.067913
 H   -3.383468    1.241571   -2.020824
 H   -4.497694   -0.157929   -2.215869
 H   -1.619203    1.277332   -0.044318
 H   -0.873300    0.777197   -1.578207
 H    2.287503   -1.476931   -1.370564
 H   -4.127170    1.568875    0.279318
 H   -0.426408   -0.446209    1.182063
 H    1.975390   -2.088761    0.970447
 H   -5.306744   -1.241023    0.125307
 H    1.971206    0.152330    2.034126
 H   -2.658690   -0.359883    1.318936
 H    1.488001    0.648652   -0.935794
 H   -3.985660   -2.208390   -1.448708
