45 
3lpu_ligand_dft.xyz
 N   -0.720647   -2.780704   -0.293001
Cl   -5.423501    0.768868   -0.252157
 C   -4.003535   -0.253011   -0.254133
 O    4.160255   -1.533842    1.046643
 C   -4.175263   -1.643064   -0.440307
 O    2.397617   -1.284133    2.403694
 C   -3.074735   -2.458146   -0.448357
 C   -1.774325   -1.922732   -0.269011
 C   -1.619280   -0.529425   -0.079475
 C   -2.765826    0.305667   -0.079103
 C    0.493171   -2.308906   -0.124734
 C    0.765830   -0.915701    0.086495
 C   -0.293887   -0.032479    0.097139
 C   -0.083141    1.433682    0.278705
 C    2.182700   -0.378448    0.222738
 C    3.034396   -1.135550    1.224484
 C    2.897955   -0.203485   -1.128905
 C    3.966493    0.889975   -1.098479
 C    4.651317    1.066101   -2.451600
 C    1.593094   -3.339747   -0.143479
 C    0.255185    2.238932   -0.811894
 C    0.470504    3.602802   -0.639766
 C    0.343144    4.175719    0.622800
 C   -0.002460    3.380649    1.712248
 C   -0.215776    2.015996    1.541559
 H   -5.172589   -2.046743   -0.576058
 H    3.019450   -1.743791    2.990528
 H   -3.165635   -3.529484   -0.591493
 H   -2.659164    1.375525    0.059607
 H    2.088231    0.617620    0.672488
 H    3.352424   -1.150906   -1.438419
 H    2.145208    0.049652   -1.884325
 H    3.495494    1.835892   -0.797196
 H    4.712109    0.643174   -0.335055
 H    3.925845    1.333589   -3.228886
 H    5.408333    1.855720   -2.413621
 H    5.148335    0.140580   -2.763122
 H    1.190865   -4.267774   -0.552090
 H    2.456307   -3.028297   -0.737023
 H    1.949169   -3.542347    0.872955
 H    0.351445    1.790317   -1.796605
 H    0.736170    4.218445   -1.493902
 H    0.511318    5.239780    0.757575
 H   -0.106337    3.823356    2.698205
 H   -0.479273    1.390686    2.389876
