53 
3ls4_ligand_xtb.xyz
 C    1.226835    0.597473   -0.864141
 O   -0.699457    1.873111   -0.612540
 C    1.965959   -0.557397   -0.698568
 O   -0.502959   -2.644380    1.013909
 C    1.371634   -1.636965   -0.061182
 C    0.049855   -1.580733    0.355398
 C   -0.728632   -0.442074    0.129617
 C   -0.097975    0.667294   -0.437571
 C   -2.184670   -0.355772    0.520675
 C   -3.015058   -1.545868    0.118230
 C   -4.308077   -1.463311   -0.160373
 C   -5.068952   -0.164198   -0.148106
 C   -4.251243    0.997348    0.417438
 C   -2.822830    0.888428   -0.105518
 C   -1.926878    2.119813    0.082768
 C   -2.511632    3.359638   -0.597510
 C   -1.620977    2.429745    1.551485
 C   -5.120828   -2.664974   -0.541084
 C    3.404630   -0.616938   -1.123034
 C    4.324151   -0.155694    0.013645
 C    5.795201   -0.192945   -0.390751
 C    6.712893    0.264880    0.740389
 C    8.180127    0.231800    0.330353
 H    1.659267    1.474218   -1.319686
 H    0.164679   -3.334251    1.108623
 H    1.943413   -2.539153    0.116642
 H   -2.236046   -0.285077    1.618028
 H   -2.517785   -2.501030    0.096754
 H   -5.366876    0.066365   -1.177197
 H   -5.990481   -0.288214    0.427684
 H   -4.247599    0.947377    1.507990
 H   -4.710382    1.941573    0.122730
 H   -2.871055    0.719851   -1.189489
 H   -3.330978    3.769116   -0.015180
 H   -1.731965    4.111760   -0.685764
 H   -2.864369    3.113401   -1.595598
 H   -2.543225    2.555253    2.111440
 H   -1.034770    1.631092    1.998979
 H   -1.042910    3.349016    1.613720
 H   -5.912086   -2.833952    0.189498
 H   -4.499739   -3.555032   -0.591830
 H   -5.594509   -2.511569   -1.510699
 H    3.559541    0.027071   -1.990557
 H    3.668440   -1.638659   -1.404736
 H    4.167745   -0.797567    0.883788
 H    4.048994    0.861094    0.301895
 H    5.946900    0.451170   -1.260229
 H    6.065035   -1.210723   -0.683631
 H    6.564051   -0.380969    1.608927
 H    6.441041    1.281087    1.034833
 H    8.475745   -0.777197    0.050595
 H    8.815186    0.560455    1.149850
 H    8.352861    0.886346   -0.521285
