39 
3lvp_ligand_dft.xyz
Cl  -31.826438   57.828553  -29.674024
 C  -32.510271   63.648617  -31.937985
 C  -32.725136   64.968969  -32.359745
 C  -32.345820   65.366549  -33.646549
 C  -31.780313   64.404839  -34.453792
 C  -31.615163   63.078684  -33.940679
 N  -31.956675   62.708949  -32.730052
 C  -32.987027   63.545773  -30.585787
 C  -33.460991   64.798468  -30.267467
 N  -33.309000   65.660434  -31.324347
 C  -32.715683   60.288615  -28.908646
 C  -33.269398   61.120166  -27.900182
 N  -33.409308   62.369374  -28.443795
 C  -32.962071   62.358325  -29.755442
 C  -32.529979   61.093187  -30.071828
 C  -32.829309   58.563641  -27.248895
 C  -33.369141   59.504939  -26.361085
 N  -33.598560   60.783311  -26.659368
 C  -32.500659   58.963988  -28.534932
 C  -33.693126   67.051852  -31.360554
 O  -31.075878   62.182601  -34.789788
 C  -30.925845   60.858490  -34.297760
 O  -31.444200   64.715418  -35.737802
 C  -30.049764   64.709205  -36.013538
 H  -32.483514   66.372605  -34.029292
 H  -33.910487   65.158871  -29.351656
 H  -33.766944   63.159722  -27.933863
 H  -32.131021   60.797096  -31.029411
 H  -32.672669   57.539600  -26.931257
 H  -33.627961   59.195924  -25.351492
 H  -34.140844   67.322921  -30.402845
 H  -32.820722   67.690943  -31.532783
 H  -34.427258   67.229784  -32.153187
 H  -30.487919   60.292519  -35.120451
 H  -30.266593   60.835205  -33.424720
 H  -31.894062   60.433854  -34.016638
 H  -29.945861   65.014809  -37.055884
 H  -29.525293   65.426666  -35.369099
 H  -29.622101   63.711533  -35.878378
