43 
3lxe_ligand_xtb.xyz
 C   -1.538747    3.578723   -1.161833
 C   -0.937595    2.677368   -0.086431
 C   -1.222732    3.194037    1.322124
 O   -1.473246    1.358851   -0.261254
 O    0.472123    2.560061   -0.253802
 C    0.769851    1.260144   -0.695247
 C    2.130945    0.816590   -0.180928
 O    2.630751   -0.226043   -0.984607
 C    3.595677   -0.922554   -0.209339
 C    3.486801   -2.415593   -0.512140
 C    5.009018   -0.405105   -0.493820
 O    3.282917   -0.656725    1.160553
 C    2.158134    0.186197    1.221360
 C    0.880256   -0.626974    1.487407
 O   -0.282813    0.114319    1.189777
 C   -0.427005    0.440497   -0.177422
 C   -0.727612   -0.804142   -1.040612
 O   -1.327318   -1.816793   -0.282334
 S   -2.937897   -1.684515   -0.103681
 O   -3.355746   -2.945161    0.392247
 O   -3.473943   -1.172147   -1.317704
 N   -3.169302   -0.569524    1.076614
 H   -1.159393    4.588219   -1.039654
 H   -2.619938    3.574397   -1.070459
 H   -1.265143    3.208462   -2.145755
 H   -0.700515    4.134644    1.467462
 H   -0.866756    2.467994    2.048142
 H   -2.290779    3.339722    1.449760
 H    0.789453    1.215266   -1.796291
 H    2.800592    1.690611   -0.214669
 H    2.475127   -2.763911   -0.324387
 H    3.733881   -2.590896   -1.554391
 H    4.174396   -2.959797    0.127054
 H    5.714956   -0.926269    0.144641
 H    5.065188    0.659457   -0.283490
 H    5.256220   -0.577232   -1.536694
 H    2.313123    0.930602    2.006826
 H    0.805767   -0.878165    2.546587
 H    0.904982   -1.554296    0.905648
 H   -1.407228   -0.510609   -1.847407
 H    0.202925   -1.204744   -1.452635
 H   -2.724089   -0.853697    1.932684
 H   -2.855040    0.343133    0.777908
