39 
3lxl_ligand_xtb.xyz
 O    3.785047    1.770955   -0.766113
 C    2.752432    1.983394   -0.176184
 N    2.527845    3.209700    0.454465
 C    1.370563    3.706113    0.514132
 C    0.167068    3.058012   -0.078474
 C    0.364457    1.572031   -0.061000
 C   -0.738512    0.703188   -0.048892
 C    1.628541    1.017944   -0.050061
 C    1.836447   -0.398528   -0.006769
 C    3.126080   -0.956768    0.031083
 C    3.274278   -2.316824    0.082698
 F    4.514631   -2.844820    0.121190
 C    2.189110   -3.196164    0.103224
 C    0.924165   -2.674162    0.072321
 C    0.721220   -1.284239    0.019417
 C   -0.554873   -0.685434   -0.010846
 N   -1.817922   -1.206289    0.000949
 C   -2.692985   -0.151179   -0.027593
 N   -2.075514    0.994666   -0.056937
 C   -4.178471   -0.341140   -0.020469
 C   -4.854464    1.029797   -0.055180
 C   -4.585259   -1.087305    1.257587
 C   -4.591162   -1.154084   -1.254972
 H    1.256235    4.645806    1.043536
 H    0.034341    3.394416   -1.113121
 H   -0.744117    3.323807    0.459203
 H    3.996074   -0.321794    0.004944
 H    2.366447   -4.259118    0.144208
 H    0.069990   -3.335350    0.092183
 H   -4.558298    1.615366    0.809993
 H   -4.554994    1.572586   -0.946691
 H   -5.935507    0.915193   -0.054183
 H   -4.154614   -2.086123    1.290868
 H   -4.254075   -0.539357    2.136785
 H   -5.667505   -1.183173    1.298964
 H   -4.278824   -0.645524   -2.164094
 H   -4.147125   -2.147574   -1.245556
 H   -5.672437   -1.266114   -1.276929
 H   -2.060309   -2.181757    0.028605
