36 
3lxo_ligand_xtb.xyz
 P    3.594081   -0.176881   -0.729023
 O    2.975564    0.691863   -1.744767
 O    4.453034    0.532070    0.385287
 O    4.620107   -1.249693   -1.241061
 O    2.316700    2.345285    0.360033
 C    1.063173    1.925108    0.834996
 C    1.061871    0.456009    1.297249
 O   -0.154796    0.161627    1.981576
 C    1.195188   -0.575470    0.160280
 O    2.503991   -1.080487    0.040878
 C    0.247907   -1.691036    0.596734
 C   -0.794315   -0.947901    1.435112
 N   -1.955706   -0.547269    0.614446
 C   -2.732540   -1.571130    0.107729
 O   -2.481050   -2.740299    0.293153
 N   -3.805047   -1.153438   -0.635654
 C   -4.226246    0.150767   -0.890874
 O   -5.199471    0.355777   -1.578603
 C   -3.397095    1.157388   -0.240009
 C   -3.795933    2.588691   -0.397033
 C   -2.330553    0.760925    0.478011
 H    4.048312    1.370234    0.644939
 H    4.407862   -1.528061   -2.131115
 H    2.418557    2.061443   -0.566931
 H    0.288253    2.072630    0.073792
 H    0.830975    2.549603    1.703078
 H    1.891769    0.310304    2.003880
 H    0.894400   -0.130013   -0.796339
 H    0.802589   -2.385889    1.226310
 H   -0.193495   -2.240155   -0.228300
 H   -1.188719   -1.570004    2.249142
 H   -4.376027   -1.894327   -1.029014
 H   -3.147484    3.240653    0.180779
 H   -3.751986    2.870621   -1.447930
 H   -4.826946    2.719996   -0.073779
 H   -1.705367    1.461891    1.010168
