85 
3lxs_ligand_dft.xyz
 O    1.676291    0.408917   -1.508302
 S    1.882395    0.932308   -0.152124
 O    0.718333    1.483882    0.572290
 C    3.134215    2.190726   -0.240979
 C    4.102797    2.089670   -1.236784
 C    5.118893    3.037208   -1.277764
 C    5.157260    4.060666   -0.333102
 C    4.179837    4.148549    0.655866
 C    3.157492    3.207251    0.709836
 C    2.671965   -0.318299    0.862637
 C    1.904000   -1.614497    1.132161
 C    1.636683   -2.598610   -0.027721
 C    2.799654   -2.897720   -0.983140
 C    4.059378   -3.513741   -0.340563
 C    5.011806   -2.500594    0.253924
 C    5.648476   -1.572736   -0.579214
 C    6.448898   -0.566209   -0.049027
 C    6.636024   -0.476137    1.329057
 C    6.037664   -1.413417    2.165112
 C    5.235980   -2.419598    1.628605
 N    0.487602   -2.184160   -0.828247
 C   -0.773263   -2.376260   -0.391036
 O   -1.032027   -3.014075    0.626854
 C   -1.907207   -1.706105   -1.202529
 C   -1.528538   -0.237897   -1.475012
 C   -2.612770    0.684978   -2.022955
 C   -2.143389    2.144790   -2.019826
 N   -1.796211    2.617127   -0.680412
 C   -2.695898    2.597121    0.340848
 N   -3.987057    2.774206    0.222871
 N   -2.177804    2.328360    1.580926
 N   -3.070838   -1.827585   -0.347075
 C   -4.343277   -1.742639   -0.832798
 O   -4.607889   -1.557347   -2.010829
 N   -5.361334   -1.776313    0.143430
 C   -6.553870   -1.035921   -0.250964
 C   -6.268300    0.464982   -0.191094
 C   -5.041508   -1.476934    1.532939
 C   -4.661541   -0.010308    1.685227
 N   -5.706918    0.919573    1.132418
 C   -6.766607    1.234130    2.117601
 H    4.051159    1.292464   -1.970655
 H    5.877920    2.980592   -2.050955
 H    5.951836    4.798948   -0.370236
 H    4.211977    4.951165    1.385080
 H    2.383566    3.263918    1.468078
 H    2.886576    0.190901    1.807123
 H    3.626600   -0.503201    0.365291
 H    2.510203   -2.135944    1.880738
 H    0.946617   -1.396056    1.615916
 H    1.337094   -3.535669    0.450825
 H    2.407987   -3.601007   -1.725776
 H    3.070083   -1.987765   -1.535412
 H    3.764368   -4.246671    0.419847
 H    4.587073   -4.076857   -1.118717
 H    5.505544   -1.636987   -1.655889
 H    6.930003    0.147804   -0.710842
 H    7.258119    0.310077    1.745089
 H    6.195607   -1.364321    3.238333
 H    4.772572   -3.148027    2.290257
 H    0.668771   -1.490201   -1.541215
 H   -2.064475   -2.244443   -2.145390
 H   -0.685366   -0.208100   -2.173217
 H   -1.159355    0.176896   -0.530449
 H   -2.913890    0.388718   -3.031944
 H   -3.507443    0.619761   -1.401400
 H   -2.905978    2.797349   -2.457949
 H   -1.245403    2.268195   -2.631671
 H   -0.834402    2.442566   -0.406021
 H   -4.223872    3.082155   -0.715824
 H   -2.637475    2.772067    2.360964
 H   -1.179056    2.194379    1.666554
 H   -2.862819   -2.384649    0.477369
 H   -6.819822   -1.295531   -1.274914
 H   -7.381032   -1.324974    0.404990
 H   -5.518389    0.710036   -0.945699
 H   -7.160698    1.063212   -0.387263
 H   -4.227372   -2.098699    1.907347
 H   -5.916814   -1.734583    2.138766
 H   -3.743753    0.187976    1.129095
 H   -4.495040    0.270200    2.727323
 H   -5.124701    1.810466    0.894495
 H   -6.304821    1.642654    3.017498
 H   -7.328058    0.331945    2.369893
 H   -7.440819    1.978132    1.691237
