85 
3lxs_ligand_xtb.xyz
 O    1.562271    0.396416   -1.507759
 S    1.789850    0.892415   -0.172780
 O    0.601695    1.452142    0.474839
 C    3.065496    2.141309   -0.229334
 C    4.015284    2.055377   -1.229342
 C    5.057217    2.967067   -1.248510
 C    5.136352    3.944163   -0.267889
 C    4.175481    4.020941    0.728807
 C    3.131869    3.110410    0.752975
 C    2.548583   -0.365771    0.889138
 C    1.841033   -1.696685    1.082430
 C    1.635514   -2.597473   -0.153059
 C    2.823974   -2.733493   -1.105764
 C    4.078510   -3.372326   -0.488857
 C    4.961495   -2.391798    0.231194
 C    5.568059   -1.355818   -0.475973
 C    6.353063   -0.419194    0.172566
 C    6.553468   -0.510630    1.540304
 C    5.978558   -1.551482    2.248761
 C    5.188467   -2.484520    1.598117
 N    0.489653   -2.157135   -0.935061
 C   -0.758353   -2.323939   -0.479127
 O   -1.010631   -2.931703    0.548358
 C   -1.893509   -1.657207   -1.281187
 C   -1.475477   -0.214954   -1.621748
 C   -2.598579    0.687539   -2.129304
 C   -2.153796    2.155193   -2.116207
 N   -1.748285    2.557734   -0.774416
 C   -2.564330    2.518956    0.278806
 N   -3.875192    2.726446    0.167721
 N   -2.016974    2.346552    1.482983
 N   -3.029848   -1.677876   -0.384409
 C   -4.324913   -1.669878   -0.829640
 O   -4.618608   -1.543004   -2.001930
 N   -5.291404   -1.721780    0.166294
 C   -6.503461   -0.980829   -0.146515
 C   -6.207825    0.517100    0.024861
 C   -4.951148   -1.510710    1.559677
 C   -4.587236   -0.034372    1.762298
 N   -5.634029    0.897007    1.324569
 C   -6.660557    1.099220    2.339046
 H    3.916342    1.291192   -1.983640
 H    5.803795    2.916101   -2.025497
 H    5.949651    4.653085   -0.282415
 H    4.239749    4.786644    1.485903
 H    2.367488    3.149425    1.513481
 H    2.650154    0.142645    1.845789
 H    3.535572   -0.499827    0.453655
 H    2.435398   -2.256390    1.807624
 H    0.857361   -1.530774    1.526764
 H    1.368245   -3.586597    0.240081
 H    2.487018   -3.367633   -1.928492
 H    3.062841   -1.754580   -1.525196
 H    3.782064   -4.176108    0.186233
 H    4.659564   -3.819608   -1.298708
 H    5.430684   -1.291524   -1.546267
 H    6.817070    0.377533   -0.389839
 H    7.169394    0.216582    2.046750
 H    6.149926   -1.641229    3.310808
 H    4.753727   -3.300420    2.157605
 H    0.686420   -1.501283   -1.675755
 H   -2.111976   -2.220484   -2.197414
 H   -0.688716   -0.231902   -2.375164
 H   -1.055651    0.211609   -0.709118
 H   -2.891586    0.394812   -3.136255
 H   -3.473883    0.574323   -1.493087
 H   -2.953117    2.806401   -2.478714
 H   -1.287590    2.293934   -2.762515
 H   -0.773167    2.364593   -0.549527
 H   -4.242838    2.897111   -0.754240
 H   -2.563634    2.436415    2.320963
 H   -1.033856    2.115207    1.539880
 H   -2.804482   -2.207974    0.453644
 H   -6.777737   -1.180916   -1.182026
 H   -7.305457   -1.320560    0.510562
 H   -5.484685    0.783481   -0.752434
 H   -7.111829    1.105027   -0.135256
 H   -4.129407   -2.153897    1.873719
 H   -5.827120   -1.781719    2.154719
 H   -3.687835    0.159647    1.168433
 H   -4.364865    0.164202    2.812326
 H   -4.550781    2.325932    0.839481
 H   -6.188903    1.442263    3.259200
 H   -7.240739    0.199009    2.562519
 H   -7.344910    1.872994    1.994919
