15 
3m1k_ligand_dft.xyz
 C    2.355787   -0.070858    0.065981
 C    1.832688   -1.302467    0.081607
 C    0.401480   -1.486278   -0.112534
 N    0.131476    0.844750    0.312631
 O   -0.703907    1.922547   -0.049483
 C    1.460383    1.101309   -0.242437
 C   -0.413835   -0.415398   -0.012633
 S   -2.169789   -0.609758    0.023650
 H    3.417061    0.109032    0.201034
 H    2.457022   -2.175479    0.247783
 H   -0.018065   -2.471679   -0.272377
 H   -1.000517    2.270399    0.802352
 H    1.391724    1.274868   -1.333650
 H    1.826954    2.023461    0.215232
 H   -2.465647    0.474049   -0.711231
