40 
3m2u_ligand_xtb.xyz
 C   -3.832264   -0.872645   -0.468133
 N   -1.490697   -1.283872   -0.220229
 O   -4.894533   -0.588405    0.276614
 P    0.255493    1.544660    0.291945
 C   -0.429929   -1.581024    0.554958
 O   -0.301337   -1.125977    1.680886
 C    0.512625   -2.585702   -0.071853
 C    1.806162   -2.778516    0.721023
 C    2.802257   -1.627405    0.580401
 C    3.335083   -1.461229   -0.840707
 C    4.427266   -0.409061   -0.936728
 S    3.832809    1.271493   -0.511935
 C   -2.537884   -0.361577    0.143390
 C   -2.219984    1.074934   -0.363017
 C   -3.448568    1.967197   -0.450967
 O    0.668585    3.061474    0.088169
 O    0.874861    1.220673    1.701705
 O    0.603105    0.661252   -0.835656
 O   -1.313581    1.670544    0.542283
 O   -3.889640   -1.470534   -1.508271
 H   -1.536954   -1.629995   -1.168163
 H   -5.711144   -0.912925   -0.138801
 H    0.726854   -2.267611   -1.091258
 H   -0.025821   -3.536515   -0.123848
 H    1.547465   -2.888527    1.775889
 H    2.282780   -3.704734    0.390625
 H    2.329511   -0.697571    0.893583
 H    3.642713   -1.816152    1.253149
 H    2.520973   -1.172225   -1.508143
 H    3.748095   -2.411227   -1.193795
 H    5.242570   -0.613129   -0.242543
 H    4.828203   -0.360593   -1.950595
 H    2.609119    1.099872   -1.001171
 H   -2.620908   -0.324558    1.234350
 H   -1.737668    0.980390   -1.343561
 H   -3.992936    1.951019    0.489400
 H   -3.125832    2.985527   -0.649642
 H   -4.100251    1.639209   -1.256316
 H    1.609947    3.187123    0.209710
 H    0.572571    0.343895    1.998471
