40 
3m2u_ligand_dft.xyz
 C   -3.858166   -0.782413   -0.529492
 N   -1.543895   -1.274792   -0.263029
 O   -4.919105   -0.546898    0.250740
 P    0.297619    1.542569    0.364110
 C   -0.546155   -1.676327    0.555078
 O   -0.469742   -1.293896    1.726140
 C    0.427707   -2.669647   -0.052167
 C    1.736493   -2.807804    0.730002
 C    2.725357   -1.644182    0.585943
 C    3.253370   -1.457820   -0.835921
 C    4.426711   -0.484863   -0.960844
 S    4.043069    1.274874   -0.612636
 C   -2.555706   -0.302933    0.090328
 C   -2.213149    1.128756   -0.417894
 C   -3.410640    2.062350   -0.488474
 O    0.812816    3.056359    0.348192
 O    0.761439    1.076152    1.809460
 O    0.686786    0.702314   -0.791570
 O   -1.289179    1.735486    0.490559
 O   -3.930019   -1.299901   -1.618802
 H   -1.523701   -1.554742   -1.234058
 H   -5.702733   -0.850469   -0.237146
 H    0.614494   -2.393600   -1.095721
 H   -0.088045   -3.639009   -0.074558
 H    1.489122   -2.940808    1.787955
 H    2.226454   -3.732778    0.400265
 H    2.270165   -0.712354    0.929121
 H    3.572066   -1.839971    1.257386
 H    2.444551   -1.120298   -1.494275
 H    3.600538   -2.427088   -1.223926
 H    5.221131   -0.748762   -0.255009
 H    4.852204   -0.542928   -1.966446
 H    2.890702    1.309103   -1.305895
 H   -2.642887   -0.270266    1.178101
 H   -1.743297    1.030667   -1.401840
 H   -3.920997    2.120116    0.476912
 H   -3.062118    3.061601   -0.758885
 H   -4.123716    1.728763   -1.247876
 H    1.725305    3.111182    0.669141
 H    0.415746    0.171041    2.001362
