58 
3m35_ligand_xtb.xyz
 C    2.965189    4.242190    0.491720
 F    6.632377   -2.398661    1.708118
 N    4.072108    0.269321   -0.022156
 S   -4.857588    0.577235    1.491141
 C    3.697698    3.608502    1.486350
 F    5.593891   -3.851581    0.504589
 C    4.106510    2.295756    1.329791
 F    7.072540   -2.570318   -0.392999
 N    0.649742    3.206613   -1.827707
 O    1.404479    0.591707   -1.548550
 C    3.856155    1.651322    0.124247
 F   -0.699363    1.266817   -0.339075
 O   -4.584290    1.889354    0.955711
 C    3.281969    2.337911   -0.931002
 N    0.836735   -1.152221   -0.216540
 O   -3.733776   -0.149368    2.023094
 C    2.753394    3.604587   -0.720698
 N    5.184038   -0.314351    0.365260
 C   -0.564473   -1.119974   -0.358672
 C    1.727168   -0.319154   -0.789844
 C   -6.091058    0.738884    2.810504
 C    5.004812   -1.613672    0.199482
 C    6.082924   -2.601475    0.507769
 C    3.713728   -1.885057   -0.275658
 C    3.124778   -0.638147   -0.412050
 C   -2.680072    0.045656   -0.563797
 C   -5.463462   -1.984235   -1.615985
 C   -3.365451   -1.163400   -0.575606
 C   -4.832888   -1.184270   -0.663702
 C   -2.638516   -2.348175   -0.494536
 C    1.831210    4.122370   -1.789559
 C   -5.622717   -0.410890    0.183111
 C   -1.263518   -2.324639   -0.386418
 C   -6.840904   -1.987302   -1.736577
 C   -6.998671   -0.406331    0.057605
 C   -7.612222   -1.189990   -0.906756
 C   -1.309372    0.053207   -0.429300
 H    2.568575    5.230842    0.663167
 H    3.898456    4.122189    2.412622
 H    4.601337    1.763326    2.125975
 H    0.070997    3.350670   -2.659076
 H    0.962477    2.193753   -1.795154
 H    0.062944    3.328723   -0.994015
 H    3.213650    1.866855   -1.897763
 H    1.195652   -1.950343    0.291192
 H   -5.544284    1.080565    3.681506
 H   -6.833471    1.472332    2.525229
 H   -6.526498   -0.233228    3.002246
 H    3.310371   -2.848303   -0.511660
 H   -3.207983    0.984678   -0.602567
 H   -4.859301   -2.587599   -2.276609
 H   -3.157010   -3.293928   -0.486392
 H    1.499722    5.140118   -1.582085
 H    2.317656    4.094480   -2.766227
 H   -0.713469   -3.250634   -0.311661
 H   -7.313320   -2.607383   -2.482492
 H   -7.596699    0.210977    0.707483
 H   -8.686328   -1.181284   -1.004233
