58 
3m35_ligand_dft.xyz
 C    4.172537    4.225241    0.472894
 F    6.745303   -2.907316   -1.162836
 N    4.190547    0.063581    0.103793
 S   -5.676284   -1.742908    0.927380
 C    5.345755    3.577932    0.083596
 F    6.521514   -3.169077    0.970203
 C    5.387462    2.191584   -0.018788
 F    5.189830   -4.206576   -0.394008
 N    0.943647    3.658542   -0.244056
 O    1.568885    1.043079   -1.093949
 C    4.271508    1.453512    0.369358
 F   -0.390482    1.460023    0.922500
 O   -4.761503   -2.681159    0.283122
 C    3.169478    2.080623    0.920801
 N    0.723720   -0.853991   -0.173087
 O   -7.005123   -2.176834    1.336361
 C    3.076883    3.467929    0.880535
 N    5.277542   -0.704333    0.201602
 C   -0.647921   -0.530657   -0.342646
 C    1.744253   -0.059182   -0.572395
 C   -4.856509   -1.074387    2.371519
 C    4.878506   -1.917786   -0.143283
 C    5.853897   -3.060616   -0.179148
 C    3.511497   -1.950247   -0.466567
 C    3.088928   -0.647082   -0.306573
 C   -2.536769    0.924889    0.109019
 C   -5.139681    1.526934   -1.493779
 C   -3.388839    0.048483   -0.570151
 C   -4.830856    0.404904   -0.720566
 C   -2.854659   -1.108178   -1.144614
 C    1.695256    4.033339    1.025566
 C   -5.896461   -0.302639   -0.137634
 C   -1.500189   -1.388335   -1.034272
 C   -6.456728    1.924455   -1.702404
 C   -7.214807    0.095708   -0.340218
 C   -7.497738    1.205607   -1.129156
 C   -1.194601    0.615040    0.223347
 H    4.116355    5.310100    0.449465
 H    6.213082    4.160667   -0.206527
 H    6.258347    1.680559   -0.413467
 H   -0.051990    3.884738   -0.186339
 H    1.343120    4.148475   -1.049357
 H    1.034595    2.634716   -0.452759
 H    2.336076    1.497233    1.296645
 H    0.946604   -1.740264    0.260041
 H   -4.730100   -1.910321    3.063461
 H   -3.884493   -0.668686    2.086395
 H   -5.493855   -0.309277    2.817762
 H    2.940454   -2.797768   -0.815622
 H   -2.921986    1.825047    0.577546
 H   -4.328506    2.079204   -1.959584
 H   -3.506150   -1.796267   -1.667059
 H    1.133901    3.585777    1.847906
 H    1.666375    5.120838    1.112274
 H   -1.090500   -2.284693   -1.488899
 H   -6.665697    2.792768   -2.319056
 H   -8.010081   -0.474337    0.127550
 H   -8.527967    1.504827   -1.289869
