58 
3m36_ligand_xtb.xyz
 C    4.422290    3.836838    0.742194
 F    6.411636   -3.022067   -0.680427
 N    3.636204   -0.190341   -0.012354
 S   -5.879248   -1.320413    0.782697
 C    3.200597    3.304297    1.123265
 F    5.475016   -3.777388    1.100923
 C    2.899612    1.973595    0.891955
 F    4.760020   -4.402073   -0.831434
 N    7.752716    2.719977    0.401935
 O    1.186977    0.891451   -1.091049
 C    3.824048    1.177678    0.225072
 F   -0.613022    1.468952    0.865125
 O   -4.679541   -1.135316    1.557554
 C    5.041719    1.709754   -0.177896
 N    0.126465   -0.951144   -0.272170
 O   -5.889192   -2.395802   -0.173043
 C    5.350819    3.035160    0.093219
 N    4.702418   -0.977231    0.062422
 C   -1.193912   -0.461290   -0.375835
 C    1.214797   -0.213188   -0.592549
 C   -7.247262   -1.585418    1.950469
 C    4.270275   -2.205101   -0.169195
 C    5.223738   -3.352370   -0.148742
 C    2.886710   -2.217770   -0.400380
 C    2.505031   -0.892146   -0.290119
 C   -2.828332    1.255888    0.102285
 C   -5.487560    2.220614   -1.163115
 C   -3.812087    0.497323   -0.520182
 C   -5.198299    0.987999   -0.581393
 C   -3.476666   -0.730961   -1.084194
 C    6.711102    3.542077   -0.303428
 C   -6.247732    0.226429   -0.077795
 C   -2.182781   -1.203238   -1.010502
 C   -6.794739    2.659803   -1.268885
 C   -7.555201    0.657753   -0.191941
 C   -7.832987    1.873445   -0.796392
 C   -1.541982    0.764487    0.182410
 H    4.645817    4.873034    0.943237
 H    2.477589    3.927943    1.623144
 H    1.955692    1.575002    1.222244
 H    8.702786    2.934634    0.075846
 H    7.699702    2.880736    1.415916
 H    7.544289    1.723667    0.229801
 H    5.721372    1.062153   -0.713803
 H    0.234099   -1.922631   -0.020750
 H   -6.905694   -2.356165    2.631144
 H   -7.430087   -0.664849    2.489418
 H   -8.121070   -1.926370    1.411440
 H    2.289240   -3.072508   -0.640332
 H   -3.063918    2.200323    0.566953
 H   -4.677098    2.820330   -1.549435
 H   -4.236104   -1.324892   -1.565971
 H    6.865995    3.430961   -1.378702
 H    6.837067    4.590435   -0.032792
 H   -1.931435   -2.161086   -1.439108
 H   -7.005855    3.613516   -1.727840
 H   -8.360278    0.047546    0.183355
 H   -8.854730    2.206555   -0.891084
