57 
3m37_ligand_dft.xyz
 C   -3.497470    4.226080   -1.165135
 F   -5.541674   -3.725700    0.948666
 N   -3.732239    0.170456   -0.069575
 S    6.098275   -1.497682   -0.810636
 C   -2.569530    3.310841   -1.648428
 F   -6.925448   -2.158773    0.345945
 N    5.000222   -1.096934   -2.011254
 C   -2.655720    1.971829   -1.287352
 F   -5.864302   -3.310520   -1.148755
 N   -6.800770    1.347847    0.316599
 O   -1.231206    0.898354    1.233599
 C   -3.658264    1.554650   -0.422157
 F    0.628596    1.271064   -1.073175
 O    5.468390   -2.524801    0.005529
 C   -4.599329    2.463281    0.085271
 N   -0.353895   -0.952351    0.210337
 O    7.393026   -1.719304   -1.431439
 C   -4.505057    3.799158   -0.307426
 N   -4.897481   -0.488092   -0.208872
 C    1.012424   -0.575854    0.338696
 C   -1.364591   -0.151675    0.639155
 C   -5.682141    2.056094    1.047243
 C   -4.639478   -1.749219    0.103939
 C   -5.751255   -2.756203    0.058851
 C   -3.289236   -1.931411    0.426312
 C   -2.733073   -0.672570    0.308348
 C    2.801006    0.957950   -0.224014
 C    5.320204    1.847939    1.390189
 C    3.696055    0.193782    0.528754
 C    5.103171    0.666552    0.678456
 C    3.239941   -0.952136    1.185105
 C    6.223346    0.014362    0.139940
 C    1.905551   -1.327894    1.093855
 C    6.602633    2.354126    1.580443
 C    7.507868    0.517158    0.322735
 C    7.699305    1.686940    1.050297
 C    1.482328    0.557813   -0.319083
 H   -3.434502    5.271381   -1.446769
 H   -1.774593    3.632917   -2.311861
 H    4.252598   -1.783058   -2.032640
 H    5.471846   -1.023106   -2.907853
 H   -1.932976    1.257787   -1.665242
 H   -7.569859    1.084712    0.938047
 H   -7.173865    1.921394   -0.443741
 H   -6.356586    0.475291   -0.084186
 H   -0.577152   -1.778887   -0.326129
 H   -5.216842    4.521097    0.084230
 H   -5.326293    1.351533    1.802409
 H   -6.110640    2.924872    1.548403
 H   -2.803911   -2.838914    0.752483
 H    3.130196    1.844403   -0.754468
 H    4.464024    2.366547    1.811423
 H    3.931553   -1.549782    1.765303
 H    1.545432   -2.206353    1.619856
 H    6.740265    3.270551    2.145446
 H    8.347235   -0.008550   -0.118094
 H    8.702449    2.074408    1.193290
