57 
3m37_ligand_xtb.xyz
 C   -4.897758    4.286629   -0.383936
 F   -4.459827   -4.167442   -0.445180
 N   -3.924607    0.222284   -0.118302
 S    5.055785   -1.170469    1.278721
 C   -4.730171    3.530084   -1.531250
 F   -5.757757   -3.274636    1.023258
 N    5.045245   -2.525566    0.274674
 C   -4.394399    2.190722   -1.434124
 F   -6.195672   -3.057438   -1.075164
 N   -2.676390    1.927789    2.642019
 O   -1.315917    1.356113    0.531543
 C   -4.215456    1.613134   -0.185801
 F    1.320598   -2.029609   -1.726820
 O    3.683084   -0.819303    1.516850
 C   -4.381361    2.365102    0.977045
 N   -0.440146   -0.237319   -0.840304
 O    5.903931   -1.414298    2.405855
 C   -4.719897    3.706802    0.860338
 N   -4.915961   -0.644536   -0.118421
 C    0.918882    0.117892   -0.856445
 C   -1.435499    0.323414   -0.156484
 C   -4.122285    1.754370    2.327365
 C   -4.368319   -1.845519   -0.212036
 C   -5.204260   -3.085486   -0.184705
 C   -2.972726   -1.756679   -0.294687
 C   -2.713926   -0.394973   -0.233115
 C    3.182043   -0.642133   -1.291769
 C    5.792475    1.743286   -1.444536
 C    3.671632    0.573183   -0.822077
 C    5.123198    0.782265   -0.691973
 C    2.781268    1.569824   -0.440381
 C    5.852076    0.030899    0.220470
 C    1.417259    1.347617   -0.446255
 C    7.157716    1.922300   -1.298099
 C    7.210563    0.215931    0.382033
 C    7.871895    1.159309   -0.387339
 C    1.824140   -0.847848   -1.302568
 H   -5.170227    5.327295   -0.456755
 H   -4.870682    3.976694   -2.502447
 H    4.218489   -3.083980    0.422644
 H    5.872374   -3.085198    0.418101
 H   -4.280204    1.586851   -2.321000
 H   -2.380220    1.364979    3.442090
 H   -2.088519    1.651854    1.737647
 H   -2.466493    2.910588    2.832985
 H   -0.643936   -1.097880   -1.338315
 H   -4.861785    4.298703    1.752184
 H   -4.731985    2.238430    3.092113
 H   -4.355270    0.688518    2.321171
 H   -2.281879   -2.571816   -0.357733
 H    3.849776   -1.425450   -1.610531
 H    5.236854    2.338679   -2.153336
 H    3.164180    2.517702   -0.096142
 H    0.739686    2.117263   -0.117757
 H    7.665359    2.665229   -1.893962
 H    7.723435   -0.373187    1.125279
 H    8.934100    1.304950   -0.270297
