147 
3m3r_ligand_xtb.xyz
 C   -1.104713   -3.805938   -0.142934
 C   -2.116214   -4.918029   -0.487672
 O   -1.553255   -5.922810   -1.287661
 C   -3.329727   -4.334493   -1.240047
 O   -4.500090   -5.045004   -0.923079
 C   -3.500450   -2.849638   -0.891545
 O   -4.591080   -2.257142   -1.575943
 C   -2.253597   -2.088576   -1.365377
 O   -1.053438   -2.815203   -1.158208
 C   -2.180712   -0.692420   -0.716617
 O   -1.925401   -0.740128    0.661087
 C   -5.847144   -2.378959   -0.930408
 C   -6.836323   -1.728601   -1.903901
 O   -6.688505   -2.247559   -3.196666
 C   -6.574882   -0.214257   -1.904518
 O   -7.431854    0.438475   -2.804713
 C   -6.772125    0.380276   -0.506904
 O   -5.836423    1.443911   -0.398551
 C   -6.622456   -0.659242    0.620540
 O   -5.799207   -1.772507    0.331818
 C   -7.998906   -1.116179    1.141708
 O   -8.671111    0.021874    1.628476
 C   -6.010017    2.324523    0.677804
 C   -5.496947    3.693285    0.194921
 O   -6.148996    4.104102   -0.974360
 C   -3.981760    3.599794   -0.035705
 O   -3.451242    4.866492   -0.358864
 C   -3.281415    3.070421    1.217904
 O   -1.922887    2.876853    0.879728
 C   -3.934213    1.749240    1.662144
 O   -5.339008    1.923933    1.838257
 C   -3.377999    1.261655    3.002889
 O   -3.502884    2.229909    4.010998
 C   -0.955859    3.237806    1.838462
 C   -0.293218    4.568927    1.426852
 O   -1.216958    5.613479    1.311251
 C    0.477164    4.380647    0.108836
 O    1.161430    5.565986   -0.212958
 C    1.462042    3.214329    0.264345
 O    2.108816    2.890023   -0.953082
 C    0.683226    1.974829    0.721016
 O   -0.001610    2.222030    1.944470
 C    1.608341    0.784741    0.974029
 O    0.882549   -0.326435    1.449087
 C    3.317601    3.594911   -1.168490
 C    3.770793    3.214837   -2.580860
 O    2.706404    3.280378   -3.491590
 C    4.350922    1.791696   -2.536054
 O    4.669813    1.358811   -3.827701
 C    5.605978    1.764505   -1.656612
 O    5.722420    0.436843   -1.167362
 C    5.534199    2.801321   -0.511011
 O    4.226477    3.217658   -0.163564
 C    6.481078    3.997122   -0.731678
 O    6.384204    4.510304   -2.040736
 C    6.909155    0.113211   -0.513812
 C    7.241021   -1.365421   -0.776139
 O    7.470101   -1.569555   -2.135675
 C    6.067200   -2.198638   -0.252777
 O    6.339204   -3.553690   -0.505993
 C    5.915582   -1.904167    1.245154
 O    4.883031   -2.656892    1.884302
 C    5.737795   -0.390905    1.470979
 O    6.815146    0.322781    0.880498
 C    5.685324   -0.023716    2.975083
 O    6.154264   -1.013212    3.841478
 C    3.626351   -2.682260    1.302325
 C    2.593463   -2.980821    2.419962
 O    3.185202   -3.497613    3.580979
 C    1.505168   -3.935786    1.884488
 O    0.331058   -3.822698    2.646396
 C    1.189325   -3.574257    0.428774
 O    0.150289   -4.395457   -0.085750
 C    2.439133   -3.805190   -0.438947
 O    3.625242   -3.716996    0.330111
 C    2.456575   -2.870053   -1.667315
 O    1.467226   -3.205517   -2.591960
 H   -1.370390   -3.343694    0.819904
 H   -2.468527   -5.352146    0.462669
 H   -0.600205   -5.928517   -1.128744
 H   -3.123052   -4.413929   -2.319230
 H   -4.338394   -5.975694   -1.121714
 H   -3.648683   -2.727840    0.186770
 H   -2.339944   -1.957657   -2.451697
 H   -3.157016   -0.219160   -0.849939
 H   -1.421904   -0.096134   -1.237129
 H   -0.976085   -0.881641    0.798574
 H   -6.070389   -3.445955   -0.783506
 H   -7.871618   -1.928726   -1.613937
 H   -5.741602   -2.381862   -3.344568
 H   -5.524093   -0.054424   -2.196506
 H   -7.524031   -0.136796   -3.577800
 H   -7.786323    0.798718   -0.446564
 H   -6.122853   -0.165356    1.461367
 H   -8.580751   -1.595973    0.343735
 H   -7.827834   -1.851235    1.937864
 H   -9.490916   -0.254736    2.051944
 H   -7.069338    2.383080    0.965924
 H   -5.700413    4.453601    0.957135
 H   -6.244015    3.328264   -1.546800
 H   -3.790302    2.896519   -0.860699
 H   -4.095809    5.310886   -0.926664
 H   -3.378702    3.811248    2.022177
 H   -3.741716    0.984335    0.903271
 H   -3.900816    0.337266    3.277220
 H   -2.315538    1.045605    2.891049
 H   -4.440503    2.444154    4.090069
 H   -1.402503    3.332436    2.836019
 H    0.412637    4.867584    2.210860
 H   -1.924013    5.350010    0.693271
 H   -0.242500    4.133153   -0.689658
 H    0.576518    6.299875    0.026262
 H    2.216010    3.474597    1.015844
 H   -0.052576    1.714657   -0.051329
 H    2.088994    0.492373    0.039722
 H    2.377370    1.077923    1.699717
 H    0.356220    0.000371    2.193394
 H    3.120602    4.674779   -1.089001
 H    4.538473    3.903945   -2.940543
 H    1.920294    2.949611   -3.035250
 H    3.602844    1.118488   -2.084551
 H    4.026904    1.766464   -4.426909
 H    6.467942    1.991117   -2.296703
 H    5.880919    2.312167    0.406612
 H    6.218063    4.766412    0.006210
 H    7.505726    3.653048   -0.534872
 H    6.996539    5.248647   -2.132021
 H    7.739476    0.745883   -0.851910
 H    8.141697   -1.617653   -0.190985
 H    7.342187   -2.512568   -2.305573
 H    5.165497   -1.878551   -0.794052
 H    5.563077   -4.058969   -0.222823
 H    6.825751   -2.233415    1.760207
 H    4.807358   -0.063613    0.983979
 H    4.655248    0.256515    3.235356
 H    6.334817    0.841784    3.121852
 H    5.576794   -1.785307    3.772746
 H    3.373142   -1.726557    0.819725
 H    2.104096   -2.045951    2.714077
 H    3.910288   -4.081332    3.326192
 H    1.881448   -4.971083    1.918404
 H    0.575680   -3.908151    3.576622
 H    0.881830   -2.523527    0.398895
 H    2.413711   -4.839891   -0.800754
 H    2.356365   -1.824569   -1.336430
 H    3.411989   -2.981893   -2.187500
 H    0.592841   -3.127624   -2.178764
