39 
3m3x_ligand_xtb.xyz
 N    4.506653    2.013665    0.013608
 C    3.203157    2.146777    0.183394
 N    2.324355    1.193821    0.337020
 C    2.765063   -0.079434    0.332838
 C    4.156057   -0.353871    0.149863
 C    4.997756    0.778710   -0.007310
 N    1.861001   -1.034798    0.524904
 C   -1.695164   -0.450898   -0.583467
 C   -2.600375   -1.506750   -0.599131
 C   -3.954112   -1.272876   -0.429248
 C   -4.393806    0.020707   -0.239759
 C   -3.514709    1.084376   -0.216854
 C   -2.162775    0.845529   -0.388322
 S   -6.130719    0.318621    0.009153
 O   -6.440722    1.676953   -0.328954
 O   -6.891008   -0.747596   -0.574333
 N   -6.231256    0.165898    1.686973
 N    4.679136   -1.662397    0.110410
 O    5.871945   -1.825155   -0.024491
 O    3.888757   -2.603256    0.210905
 O    6.291087    0.616088   -0.182497
 C    7.075462    1.786368   -0.339925
 C    0.451490   -0.767943    0.643364
 C   -0.224622   -0.703099   -0.738079
 H    2.826670    3.161502    0.192185
 H    2.197634   -1.993625    0.454863
 H   -2.244120   -2.514351   -0.754465
 H   -4.678093   -2.071118   -0.455626
 H   -3.905706    2.079925   -0.081524
 H   -1.461743    1.666773   -0.379785
 H   -6.515854    1.029140    2.120613
 H   -6.836352   -0.593652    1.953797
 H    6.744571    2.355438   -1.210389
 H    6.998198    2.420950    0.544551
 H    8.095848    1.435839   -0.474196
 H    0.323233    0.189792    1.150904
 H    0.002312   -1.562988    1.241299
 H    0.238837    0.106495   -1.303441
 H   -0.054168   -1.643222   -1.264876
