44 
3m3z_ligand_dft.xyz
 N    4.420617   -0.059492   -1.114707
 C    3.795006    1.115784   -1.116539
 N    2.610126    1.421355   -0.579530
 C    3.828015   -1.101421   -0.504266
 N    0.830593    0.305891    0.660194
 C    0.709443   -1.003518    1.103472
 N    1.729060   -1.765519    0.786370
 C    2.576908   -0.916779    0.100899
 C    2.046874    0.360788    0.014731
 N    4.474404   -2.289439   -0.476699
 C    0.023813    1.504498    0.904306
 O   -1.187406    1.168002    1.521887
 C   -2.305604    1.651715    0.756375
 C   -1.730491    2.735534   -0.153723
 C   -0.306002    2.240975   -0.415975
 C   -2.996420    0.507120    0.037844
 O   -2.097328   -0.068006   -0.884736
 O    0.530194    3.331917   -0.669369
 O   -1.694353    3.944267    0.561960
 N   -0.408412   -1.452465    1.762686
 C   -0.282881   -2.685391    2.524321
 C   -2.696278   -0.939290   -1.815285
 C   -3.061928   -2.325458   -1.279725
 O   -3.824387   -3.040603   -1.906529
 N   -2.462789   -2.671295   -0.115970
 H    4.311526    1.928112   -1.620860
 H    3.974529   -3.110952   -0.177336
 H    5.289487   -2.397626   -1.058863
 H    0.597560    2.165492    1.564639
 H   -3.007849    2.101134    1.464274
 H   -2.304986    2.834226   -1.084937
 H   -0.305712    1.514411   -1.234698
 H   -3.335197   -0.241284    0.768365
 H   -3.885293    0.900560   -0.479404
 H    1.434300    2.958790   -0.746533
 H   -0.895218    4.403584    0.257988
 H   -0.954603   -0.706894    2.175243
 H    0.470543   -2.615825    3.318490
 H    0.007729   -3.496021    1.852747
 H   -1.255855   -2.914879    2.964289
 H   -1.968282   -1.077835   -2.620261
 H   -3.604534   -0.503609   -2.251536
 H   -1.739966   -2.100617    0.317581
 H   -2.599834   -3.615968    0.210078
