62 
3m6q_ligand_xtb.xyz
 C    3.557292    1.628896   -0.161444
 C    4.734718    0.691365   -0.323768
 O    5.724125    0.685343    0.393030
 N    4.633747   -0.140842   -1.373806
 O    5.621107   -1.126088   -1.504419
 C    2.495134    0.999014    0.750128
 C    1.756554   -0.128440    0.035861
 O    1.876583   -0.371325   -1.154675
 C    1.459159    2.039313    1.216573
 C    0.586042    2.578021    0.079864
 C   -0.729642    3.141568    0.613109
 C   -1.634093    3.657149   -0.503299
 C   -2.995745    4.087137    0.030045
 N    0.948451   -0.849981    0.838465
 C   -0.112977   -1.665283    0.288831
 C   -0.254590   -3.007216    1.035755
 C   -0.383255   -2.803153    2.544231
 C    0.936508   -3.905076    0.711341
 C   -1.397223   -0.835572    0.382908
 O   -1.567270   -0.078955    1.334897
 N   -2.285535   -0.950104   -0.607684
 C   -3.453590   -0.066619   -0.691044
 C   -2.194967   -1.843228   -1.749216
 C   -3.583232   -1.766520   -2.377701
 C   -3.990194   -0.322570   -2.100329
 C   -4.465980   -0.349654    0.438328
 O   -4.251637    0.461728    1.555559
 H    3.121717    1.848813   -1.135377
 H    3.921739    2.548583    0.296517
 H    3.743603   -0.393848   -1.789546
 H    6.264807   -0.880441   -0.807156
 H    2.992761    0.584303    1.634405
 H    0.803976    1.581866    1.961672
 H    1.978878    2.863468    1.708352
 H    1.122389    3.350019   -0.474833
 H    0.358216    1.770125   -0.619879
 H   -0.523937    3.951185    1.316593
 H   -1.252728    2.352304    1.157924
 H   -1.153017    4.501111   -1.003433
 H   -1.766355    2.869332   -1.250622
 H   -3.633795    4.434404   -0.779713
 H   -3.492696    3.258486    0.530778
 H   -2.882260    4.896080    0.747991
 H    0.764453   -0.508886    1.771098
 H    0.150335   -1.846871   -0.756629
 H   -1.171162   -3.486995    0.672771
 H   -0.681945   -3.734160    3.019726
 H   -1.129967   -2.046646    2.773223
 H    0.568985   -2.498041    2.971575
 H    1.863365   -3.415494    0.999917
 H    0.858267   -4.844925    1.251917
 H    0.981794   -4.121509   -0.353447
 H   -3.122101    0.970524   -0.565735
 H   -1.432723   -1.483361   -2.451086
 H   -1.935991   -2.856295   -1.437952
 H   -4.264226   -2.451824   -1.872632
 H   -3.567344   -2.005977   -3.438333
 H   -5.063851   -0.166563   -2.165471
 H   -3.499110    0.343864   -2.810528
 H   -4.419440   -1.416243    0.710392
 H   -5.479121   -0.124445    0.095298
 H   -3.302939    0.404146    1.777229
