62 
3m6q_ligand_dft.xyz
 C    3.363346    1.785371   -0.050886
 C    4.612093    0.968170   -0.297627
 O    5.533599    0.865070    0.507408
 N    4.668785    0.340789   -1.502928
 O    5.693470   -0.592822   -1.634589
 C    2.365914    1.036407    0.841680
 C    1.761306   -0.157061    0.103855
 O    1.837300   -0.299397   -1.112998
 C    1.214147    1.953820    1.318901
 C    0.298723    2.471254    0.204241
 C   -1.016453    3.025232    0.751162
 C   -1.940231    3.583400   -0.332001
 C   -3.342533    3.877484    0.199406
 N    1.067500   -1.031916    0.892339
 C    0.003483   -1.822261    0.300534
 C   -0.154140   -3.208075    0.961976
 C   -0.365165   -3.125482    2.476163
 C    1.048939   -4.088119    0.617776
 C   -1.278176   -0.983384    0.393916
 O   -1.473659   -0.299376    1.407796
 N   -2.130653   -1.006411   -0.643643
 C   -3.243246   -0.035433   -0.762556
 C   -1.946660   -1.806854   -1.860329
 C   -3.285992   -1.652413   -2.574275
 C   -3.687568   -0.217199   -2.224925
 C   -4.360676   -0.236893    0.275868
 O   -4.123527    0.439982    1.480508
 H    2.888062    2.054145   -0.997909
 H    3.674157    2.702837    0.456429
 H    3.792501   -0.012179   -1.878036
 H    6.177245   -0.465123   -0.791810
 H    2.899267    0.668092    1.727224
 H    0.596957    1.410529    2.044390
 H    1.653878    2.798388    1.863041
 H    0.817773    3.239607   -0.384055
 H    0.067799    1.658018   -0.497671
 H   -0.814198    3.807363    1.496325
 H   -1.535833    2.216282    1.280585
 H   -1.499448    4.490108   -0.766681
 H   -2.005514    2.858854   -1.157237
 H   -4.000247    4.257781   -0.589548
 H   -3.795227    2.971992    0.621285
 H   -3.307293    4.630131    0.995418
 H    0.859241   -0.708444    1.828454
 H    0.286719   -1.961115   -0.743375
 H   -1.053520   -3.659363    0.518621
 H   -0.572595   -4.120753    2.881301
 H   -1.194995   -2.464731    2.740881
 H    0.539217   -2.755897    2.973752
 H    1.972306   -3.638207    0.997490
 H    0.942673   -5.079661    1.069557
 H    1.157209   -4.216448   -0.464700
 H   -2.840160    0.968485   -0.595734
 H   -1.124844   -1.401324   -2.464950
 H   -1.717965   -2.847630   -1.616732
 H   -4.012454   -2.364363   -2.167625
 H   -3.201233   -1.827650   -3.649145
 H   -4.755027   -0.027145   -2.358487
 H   -3.142804    0.486033   -2.864096
 H   -4.518658   -1.317935    0.429400
 H   -5.288861    0.178346   -0.130370
 H   -3.203659    0.238296    1.731374
