62 
3m6r_ligand_xtb.xyz
 C    3.573905    1.623594   -0.151207
 C    4.746197    0.678503   -0.307738
 O    5.732471    0.666875    0.413334
 N    4.643844   -0.154943   -1.356466
 O    5.624034   -1.148029   -1.480766
 C    2.502215    0.998388    0.752542
 C    1.761665   -0.123504    0.031824
 O    1.886331   -0.363763   -1.158819
 C    1.468195    2.043220    1.213269
 C    0.600895    2.581266    0.071775
 C   -0.715428    3.150710    0.597091
 C   -1.621440    3.644988   -0.527726
 C   -2.980736    4.089380   -0.000287
 N    0.944968   -0.842580    0.827634
 C   -0.117505   -1.650160    0.269094
 C   -0.253600   -3.005223    0.993338
 C   -0.383742   -2.827865    2.504982
 C    0.941994   -3.891485    0.653787
 C   -1.402837   -0.824917    0.382713
 O   -1.566401   -0.078329    1.343584
 N   -2.300483   -0.934228   -0.600014
 C   -3.478607   -0.061943   -0.658911
 C   -2.212461   -1.809494   -1.755442
 C   -3.609661   -1.742929   -2.364610
 C   -4.030933   -0.307700   -2.064069
 C   -4.473661   -0.369350    0.479434
 O   -4.252610    0.428208    1.605214
 H    3.145878    1.848085   -1.127454
 H    3.941186    2.540097    0.310751
 H    3.753946   -0.401090   -1.777137
 H    6.266154   -0.906458   -0.780618
 H    2.991797    0.579845    1.639434
 H    0.809036    1.589178    1.956957
 H    1.988709    2.866803    1.705177
 H    1.141810    3.349516   -0.483714
 H    0.372853    1.771866   -0.626107
 H   -0.511122    3.972274    1.287007
 H   -1.237013    2.369422    1.154991
 H   -1.139814    4.476861   -1.047177
 H   -1.757094    2.841355   -1.257411
 H   -3.623267    4.412790   -0.816365
 H   -3.474194    3.274900    0.526465
 H   -2.864516    4.918527    0.693754
 H    0.757944   -0.504768    1.760958
 H    0.141848   -1.813900   -0.780388
 H   -1.167756   -3.483241    0.622007
 H   -0.673812   -3.769610    2.964485
 H   -1.137265   -2.082318    2.747116
 H    0.565653   -2.521249    2.937488
 H    1.866159   -3.403435    0.953362
 H    0.867250   -4.841932    1.175972
 H    0.990172   -4.086781   -0.414984
 H   -3.156795    0.977280   -0.525961
 H   -1.464588   -1.428353   -2.461565
 H   -1.935390   -2.823275   -1.463138
 H   -4.275051   -2.442891   -1.858766
 H   -3.605038   -1.969373   -3.428236
 H   -5.107360   -0.164948   -2.112682
 H   -3.558312    0.373490   -2.772844
 H   -4.414294   -1.439244    0.735723
 H   -5.493065   -0.148488    0.152454
 H   -3.300275    0.378759    1.812846
