43 
3m8p_ligand_xtb.xyz
 C    0.474253    1.908015    0.070124
 O    1.742812    1.332855    0.038246
 C   -0.009676    2.484303   -1.105039
 C    0.812813    2.432595   -2.353785
 C   -1.260217    3.077916   -1.079284
 C   -2.007378    3.089021    0.096952
 C   -1.501421    2.514547    1.260558
 C   -0.250891    1.917760    1.261914
 C    0.303197    1.283227    2.498462
 C    1.779634   -0.001369   -0.002317
 N    0.636939   -0.674799   -0.052539
 C    0.716774   -1.999575   -0.095441
 N   -0.413197   -2.753281   -0.133560
 N    1.842894   -2.710256   -0.100112
 C    3.000389   -2.050882   -0.056135
 N    4.132210   -2.772723   -0.061815
 C    3.005385   -0.647894   -0.002672
 C   -1.748951   -2.394520   -0.121321
 C   -2.191770   -1.070345   -0.112605
 C   -3.541525   -0.789264   -0.095138
 C   -4.478537   -1.823625   -0.088012
 C   -4.040107   -3.149999   -0.100595
 C   -2.692542   -3.428009   -0.117566
 C   -5.862059   -1.543315   -0.068586
 N   -6.989062   -1.331582   -0.052217
 C   -3.288913    3.687781    0.109877
 N   -4.328843    4.169499    0.120290
Br    4.614741    0.357439    0.067421
 H    1.820070    2.796965   -2.158445
 H    0.894619    1.402929   -2.703897
 H    0.361820    3.032141   -3.139238
 H   -1.663413    3.529078   -1.973737
 H   -2.090111    2.533656    2.165776
 H    0.188899    0.199815    2.440351
 H    1.363894    1.506017    2.601929
 H   -0.222476    1.637753    3.380815
 H   -0.215549   -3.745470   -0.157491
 H    4.068316   -3.772773   -0.098315
 H    5.026903   -2.316656   -0.028222
 H   -1.469396   -0.273090   -0.120595
 H   -3.879519    0.236757   -0.087845
 H   -4.763804   -3.951471   -0.096270
 H   -2.356027   -4.455072   -0.127197
