65 
3m8q_ligand_dft.xyz
 O   -4.783407    1.524145   -1.054892
 C   -4.870570    0.184449   -1.251977
 N   -3.945625   -0.568361   -0.684140
 N   -4.955106   -2.517079   -1.620898
 C   -5.870362   -1.718220   -2.178859
 C   -4.035814   -1.888121   -0.886748
 C   -5.897345   -0.336577   -2.033380
 C   -3.689499    1.925698   -0.299699
 C   -2.501716    2.216039   -0.973597
 C   -1.379226    2.493476   -0.200817
 C   -1.466280    2.479926    1.195881
 C   -2.690058    2.260086    1.835381
 C   -3.829938    1.982846    1.087657
 C   -5.149986    1.670481    1.735572
 C   -2.438464    2.147699   -2.474634
 C   -0.260711    2.536868    1.971049
 N   -3.082032   -2.644742   -0.262841
 C   -2.026517   -2.032022    0.504390
 C   -1.383354   -3.030008    1.466111
 C   -0.313920   -2.349673    2.314119
 N    0.734021   -1.688248    1.460397
 C    0.113369   -0.711158    0.493948
 C   -0.936991   -1.388691   -0.367092
 N    0.727518    2.445297    2.573065
 C    1.829636   -1.049824    2.294697
 C    3.011659   -0.697572    1.433443
 C    3.267819    0.633284    1.098091
 C    4.320888    0.941344    0.242494
 C    5.107409   -0.086399   -0.264938
 C    4.874014   -1.416587    0.069855
 C    3.825293   -1.717478    0.929701
 S    6.422857    0.303738   -1.430747
 O    6.693214   -0.917255   -2.178974
 O    6.040273    1.543160   -2.094556
 C    7.828434    0.641286   -0.377496
 H   -6.626743   -2.216373   -2.779790
 H   -6.646845    0.290468   -2.496647
 H   -0.425926    2.692813   -0.681535
 H   -2.744220    2.276216    2.919594
 H   -5.958332    2.250849    1.282710
 H   -5.398324    0.610395    1.609735
 H   -5.123307    1.890306    2.805365
 H   -2.588295    1.119506   -2.824767
 H   -3.221834    2.759808   -2.929849
 H   -1.470656    2.496071   -2.842954
 H   -3.067204   -3.627263   -0.491644
 H   -2.484244   -1.227430    1.093729
 H   -0.940543   -3.869178    0.911307
 H   -2.132355   -3.452540    2.142580
 H    0.199945   -3.061601    2.963996
 H   -0.740329   -1.556526    2.935469
 H    1.181225   -2.418929    0.896494
 H    0.925653   -0.280985   -0.093815
 H   -0.326623    0.076848    1.109338
 H   -1.388433   -0.623865   -1.004315
 H   -0.479900   -2.141755   -1.022809
 H    2.091938   -1.781359    3.063973
 H    1.389600   -0.169248    2.770428
 H    2.644021    1.424815    1.505231
 H    4.515216    1.967828   -0.051458
 H    5.497367   -2.197343   -0.353699
 H    3.650841   -2.754129    1.213985
 H    8.064243   -0.250170    0.206074
 H    8.659369    0.886460   -1.043308
 H    7.600265    1.491129    0.267924
