38 
3max_ligand_xtb.xyz
 N    0.807423    3.186305   -0.636350
 C   -0.213108    2.308169   -0.380195
 C   -1.539224    2.760338   -0.381471
 C   -2.608228    1.906698   -0.244503
 C   -2.404073    0.534059   -0.106179
 C   -1.094131    0.073133   -0.100591
 C   -0.003499    0.925875   -0.216468
 N    1.264824    0.302544   -0.215047
 C    2.467266    0.717972    0.251047
 O    2.680838    1.815771    0.746934
 C    3.547128   -0.302203    0.128324
 C    3.608442   -1.209459   -0.925967
 C    4.644019   -2.124162   -0.992162
 C    5.620349   -2.146005   -0.009608
 C    5.572293   -1.236043    1.033759
 C    4.545813   -0.312874    1.097745
 C   -3.531593   -0.396424    0.030529
 C   -3.517646   -1.635578   -0.607136
 C   -4.580245   -2.509706   -0.476373
 C   -5.676654   -2.163528    0.295328
 C   -5.702836   -0.934985    0.933933
 C   -4.641820   -0.059095    0.802359
 H    0.553436    4.159233   -0.554283
 H    1.697084    2.954987   -0.199872
 H   -1.712223    3.819803   -0.510084
 H   -3.613090    2.300176   -0.271488
 H   -0.909374   -0.985456    0.027108
 H    1.210370   -0.680798   -0.445043
 H    2.870804   -1.184443   -1.716244
 H    4.691361   -2.821026   -1.816096
 H    6.423200   -2.866225   -0.063795
 H    6.337855   -1.244372    1.795127
 H    4.496667    0.411125    1.897059
 H   -2.675496   -1.905553   -1.228113
 H   -4.555265   -3.464967   -0.981314
 H   -6.506129   -2.847529    0.398362
 H   -6.553789   -0.659956    1.540514
 H   -4.661360    0.889805    1.318253
