38 
3max_ligand_dft.xyz
 N    0.910441    3.079583   -0.659041
 C   -0.172667    2.241401   -0.430730
 C   -1.485854    2.734628   -0.433809
 C   -2.583454    1.900973   -0.303788
 C   -2.423295    0.521196   -0.141092
 C   -1.120443    0.025693   -0.118793
 C   -0.009194    0.851801   -0.266980
 N    1.265697    0.225939   -0.328122
 C    2.381942    0.569577    0.377711
 O    2.427604    1.534637    1.133475
 C    3.571197   -0.320715    0.172174
 C    3.798068   -1.027303   -1.011715
 C    4.926099   -1.831488   -1.140610
 C    5.831399   -1.935731   -0.088524
 C    5.615968   -1.221250    1.088139
 C    4.495598   -0.409818    1.214701
 C   -3.589434   -0.382314    0.011642
 C   -3.617294   -1.633913   -0.614337
 C   -4.709620   -2.481981   -0.467920
 C   -5.800723   -2.091958    0.303596
 C   -5.787815   -0.848162    0.928809
 C   -4.692077   -0.003884    0.786326
 H    0.662631    4.059895   -0.630918
 H    1.698239    2.881342   -0.046695
 H   -1.637262    3.803230   -0.565927
 H   -3.582294    2.325822   -0.345883
 H   -0.955886   -1.037380    0.042795
 H    1.273052   -0.686359   -0.759786
 H    3.120320   -0.922298   -1.854847
 H    5.102441   -2.368508   -2.067548
 H    6.709994   -2.565913   -0.189088
 H    6.325396   -1.294096    1.906757
 H    4.318572    0.165724    2.117167
 H   -2.782661   -1.934617   -1.242045
 H   -4.712621   -3.446656   -0.967235
 H   -6.655151   -2.752533    0.416576
 H   -6.630486   -0.536994    1.539464
 H   -4.678491    0.953086    1.300758
