30 
3mb7_ligand_xtb.xyz
 C    1.231626    3.198449    0.003085
 C    2.440901    2.562197    0.006026
 C    2.424735    1.165411    0.003867
 C    1.237320    0.413580   -0.000255
 C   -0.012766    1.076770   -0.001304
 C    0.000203    2.494962   -0.000844
 C   -1.275969    0.437783   -0.002056
 C   -2.451502    1.210100   -0.004189
 C   -2.438720    2.609746   -0.006095
 C   -1.219259    3.222902   -0.003961
 C    1.657376   -0.942785   -0.003143
 C    3.023863   -0.923930   -0.000178
 O    3.502665    0.356310    0.004404
 C   -1.723271   -0.909151    0.000413
 C   -3.095477   -0.859049   -0.000244
 O   -3.534559    0.423076   -0.003168
 C   -4.122116   -1.924471    0.003500
 C    3.976348   -2.047527   -0.001920
 O    3.626630   -3.196279   -0.006700
 O   -5.299421   -1.706976    0.010084
 O   -3.642296   -3.182763   -0.000610
 O    5.269159   -1.690243    0.002083
 H    1.197149    4.277208    0.004110
 H    3.374865    3.099834    0.009402
 H   -3.364010    3.161491   -0.008514
 H   -1.162341    4.300790   -0.004553
 H    1.068728   -1.834753   -0.007796
 H   -1.107132   -1.785339    0.003825
 H   -2.678095   -3.226997   -0.007270
 H    5.373657   -0.727158    0.005838
