82 
3mea_ligand_dft.xyz
 N    6.991613   -1.758347   -0.378540
 C    5.624745   -1.879648   -0.896897
 C    4.704423   -1.105057    0.048581
 O    4.915546   -1.062677    1.255141
 C    5.116703   -3.323047   -1.015815
 N    3.662066   -0.471105   -0.548338
 C    2.514668    0.031702    0.187462
 C    1.288210   -0.710153   -0.357460
 O    1.234788   -1.043156   -1.530049
 C    2.313110    1.554140   -0.008881
 C    3.016917    2.447515    1.019053
 C    4.522334    2.244656    1.180558
 N    5.239575    2.488243   -0.073708
 C    6.266148    1.761384   -0.520914
 N    6.604735    1.817704   -1.821268
 N    6.974671    0.964522    0.273332
 N    0.272099   -0.898920    0.527341
 C   -0.924282   -1.639800    0.178829
 C   -2.160661   -0.746585    0.036896
 O   -3.253058   -1.236837   -0.262396
 C   -1.186139   -2.719738    1.237384
 O   -1.219394   -2.000954    2.464735
 C   -0.123283   -3.809174    1.236884
 N   -1.971481    0.563196    0.247303
 C   -3.025871    1.538311    0.112156
 C   -3.935606    1.588520    1.366988
 C   -5.359345    2.116370    1.138820
 C   -6.154224    1.408158    0.025413
 C   -6.175800   -0.097510    0.255419
 N   -6.753259   -0.940153   -0.868027
 C   -2.361966    2.879876   -0.143218
 O   -1.180736    3.092373    0.003142
 C   -8.195598   -0.626100   -1.099075
 C   -6.611267   -2.376683   -0.460440
 C   -5.975318   -0.739074   -2.133689
 O   -3.248636    3.802101   -0.519197
 H    7.010997   -2.139140    0.567294
 H    7.258662    0.020000   -0.079001
 H    7.627505   -2.320457   -0.939243
 H    5.606019   -1.404488   -1.884744
 H    5.109660   -3.804484   -0.032703
 H    4.101410   -3.353253   -1.425013
 H    5.764971   -3.900700   -1.681284
 H    3.448118   -0.695749   -1.514808
 H    2.675650   -0.203170    1.244739
 H    2.632460    1.800352   -1.027941
 H    1.245110    1.796293    0.035222
 H    2.573776    2.283233    2.008223
 H    2.808549    3.495938    0.771521
 H    4.717924    1.213566    1.488270
 H    4.902773    2.915632    1.958104
 H    4.938065    3.272834   -0.635324
 H    6.042283    2.320228   -2.490056
 H    7.542089    1.565394   -2.097762
 H    6.769057    0.979111    1.262280
 H    0.437998   -0.792570    1.521281
 H   -0.760481   -2.106552   -0.796618
 H   -2.169628   -3.155305    1.020811
 H   -1.285038   -2.629786    3.193681
 H   -0.334018   -4.549320    2.015894
 H   -0.105753   -4.334902    0.277432
 H    0.869969   -3.389568    1.425023
 H   -1.042202    0.906889    0.448995
 H   -3.619638    1.275774   -0.769530
 H   -3.964648    0.571669    1.769726
 H   -3.450020    2.195215    2.139089
 H   -5.329877    3.182754    0.899458
 H   -5.902205    2.026635    2.086615
 H   -7.167213    1.822697    0.013194
 H   -5.703096    1.649790   -0.942032
 H   -6.761879   -0.340608    1.147185
 H   -5.162487   -0.483104    0.379485
 H   -8.582827   -1.289990   -1.873423
 H   -8.744396   -0.780208   -0.168740
 H   -8.293425    0.409995   -1.422101
 H   -7.032683   -3.011633   -1.241039
 H   -7.149096   -2.534232    0.475458
 H   -5.549338   -2.590216   -0.327849
 H   -6.309578   -1.475979   -2.865327
 H   -4.916165   -0.877872   -1.907575
 H   -6.162570    0.261134   -2.521864
 H   -2.780376    4.646978   -0.630993
