51 
3mf5_ligand_xtb.xyz
 S   -2.068467   -1.388379    1.302144
 C   -2.226697   -0.405305   -0.119514
 C   -1.075635   -0.444579   -0.863052
 C   -0.057304   -1.247466   -0.311296
 C   -0.437093   -1.831862    0.877157
 C   -3.452937    0.321038   -0.380634
 C    0.403600   -2.666708    1.738419
 C    1.243895   -1.471773   -0.963672
 O   -0.202619   -3.233827    2.802270
 O    1.575789   -2.842327    1.535383
 C    2.233958   -0.489371   -0.956360
 C    3.637262   -1.953577   -2.268164
 C    2.649645   -2.923415   -2.267275
 C    3.427893   -0.753339   -1.616242
 C    1.457337   -2.681416   -1.614677
 C   -3.487626    1.344202   -1.331425
 C   -5.815259    1.718785   -0.877752
 C   -5.791431    0.709593    0.071092
 C   -4.659593    2.032715   -1.574694
 C   -4.622582    0.017980    0.318693
 C    2.030172    0.807580   -0.216759
 C    3.015917    0.929868    0.950025
 C    2.763183    2.219061    1.725233
 C    2.883949    3.442036    0.814289
 C    1.907025    3.308783   -0.354833
 C    2.162903    2.024578   -1.137419
 C    2.628651    4.730163    1.591678
 H   -0.951937    0.073602   -1.796849
 H   -1.142864   -3.017233    2.860549
 H    4.575179   -2.136146   -2.771965
 H    2.809205   -3.866227   -2.768644
 H    4.211384   -0.010268   -1.616180
 H    0.679845   -3.431765   -1.603723
 H   -2.590986    1.608322   -1.870134
 H   -6.728907    2.260217   -1.071187
 H   -6.687424    0.460613    0.619742
 H   -4.670919    2.822857   -2.310736
 H   -4.608285   -0.771198    1.057262
 H    1.018720    0.816750    0.204072
 H    4.038551    0.929182    0.568726
 H    2.904768    0.063560    1.605496
 H    3.478177    2.299578    2.546846
 H    1.760192    2.192994    2.159261
 H    3.902884    3.474321    0.411340
 H    2.006013    4.171061   -1.018571
 H    0.884291    3.302191    0.031849
 H    1.450704    1.940944   -1.962386
 H    3.165354    2.057341   -1.567300
 H    1.621863    4.731790    2.004914
 H    3.335360    4.828460    2.412633
 H    2.733536    5.596911    0.942554
