51 
3mf5_ligand_dft.xyz
 S   -1.939068   -0.505350    1.745837
 C   -2.382368   -0.250515    0.091510
 C   -1.371554   -0.652155   -0.740429
 C   -0.229114   -1.175042   -0.068603
 C   -0.399420   -1.178661    1.296097
 C   -3.669044    0.359824   -0.275607
 C    0.571556   -1.650685    2.312259
 C    0.944947   -1.700229   -0.817795
 O    0.047323   -2.078882    3.484331
 O    1.763614   -1.653416    2.148078
 C    2.134778   -0.964332   -0.940686
 C    3.019551   -2.731458   -2.362360
 C    1.839651   -3.454611   -2.229306
 C    3.155772   -1.502075   -1.727490
 C    0.805441   -2.930865   -1.463579
 C   -3.747309    1.189637   -1.400730
 C   -6.106490    1.519250   -1.022914
 C   -6.036474    0.703079    0.102566
 C   -4.958504    1.759056   -1.773809
 C   -4.828145    0.124173    0.472390
 C    2.285448    0.399775   -0.300079
 C    3.628728    0.604409    0.413351
 C    3.686162    1.983474    1.073709
 C    3.450723    3.116767    0.066985
 C    2.124080    2.900448   -0.672054
 C    2.044179    1.520048   -1.327165
 C    3.497516    4.486807    0.740992
 H   -1.436960   -0.600008   -1.821408
 H   -0.910101   -2.194769    3.410541
 H    3.836493   -3.122832   -2.961600
 H    1.722534   -4.416870   -2.718266
 H    4.081539   -0.947185   -1.847930
 H   -0.124737   -3.482148   -1.354330
 H   -2.848188    1.403893   -1.970709
 H   -7.051261    1.968947   -1.312362
 H   -6.927572    0.508485    0.691430
 H   -5.003021    2.401891   -2.647608
 H   -4.788264   -0.532019    1.337700
 H    1.512016    0.497134    0.469643
 H    4.456416    0.524900   -0.304970
 H    3.763587   -0.186928    1.156698
 H    4.654801    2.121618    1.570140
 H    2.919900    2.040421    1.861306
 H    4.259009    3.071516   -0.679910
 H    1.983890    3.684918   -1.426694
 H    1.297905    3.005277    0.047484
 H    1.064542    1.381212   -1.801902
 H    2.795146    1.442705   -2.126589
 H    2.706339    4.573572    1.496267
 H    4.457661    4.649453    1.243492
 H    3.355253    5.294059    0.013389
