53 
3mg0_ligand_xtb.xyz
 N    4.346529    0.300190    0.923741
 C    4.309172   -0.397300   -0.209615
 C    5.479694   -0.701449   -0.904390
 N    6.665705   -0.310497   -0.469587
 C    6.695895    0.385045    0.657072
 C    5.532733    0.690824    1.355276
 C    2.975451   -0.854311   -0.716147
 O    2.855234   -1.516355   -1.731792
 N    1.952613   -0.459301    0.056303
 C    0.578481   -0.783205   -0.217422
 C    0.211250   -2.144725    0.422812
 C   -1.246445   -2.462117    0.269125
 C   -2.136356   -2.218512    1.308109
 C   -3.480032   -2.515969    1.169230
 C   -3.952768   -3.052804   -0.016539
 C   -3.076870   -3.283379   -1.064030
 C   -1.732723   -2.990090   -0.921061
 C   -0.299403    0.302556    0.413194
 O    0.027876    0.841426    1.453944
 N   -1.422341    0.566666   -0.263488
 C   -2.489225    1.417321    0.243766
 C   -2.570686    2.724936   -0.566473
 C   -1.275908    3.545388   -0.585238
 C   -0.876236    4.010473    0.812009
 C   -1.457494    4.747000   -1.511926
 B   -3.883536    0.615686    0.152583
 O   -4.757143    0.704371    1.172526
 O   -4.093727   -0.088105   -0.984089
 H    5.445925   -1.269665   -1.822891
 H    7.671347    0.698841    1.001830
 H    5.544495    1.257022    2.276527
 H    2.134523    0.085720    0.891891
 H    0.442255   -0.838749   -1.302500
 H    0.473934   -2.096590    1.481324
 H    0.822083   -2.911673   -0.057703
 H   -1.772620   -1.796517    2.233256
 H   -4.155934   -2.333105    1.992010
 H   -5.000327   -3.299030   -0.123289
 H   -3.441018   -3.699416   -1.992004
 H   -1.048993   -3.181902   -1.735566
 H   -1.647054    0.037693   -1.091459
 H   -2.230793    1.655606    1.277046
 H   -3.375271    3.329119   -0.143380
 H   -2.845423    2.472028   -1.593329
 H   -0.472095    2.917638   -0.984406
 H   -1.700951    4.535713    1.289492
 H   -0.026815    4.687220    0.751409
 H   -0.588352    3.165898    1.430894
 H   -0.536177    5.320858   -1.577657
 H   -2.241243    5.400275   -1.133720
 H   -1.732265    4.426108   -2.514586
 H   -5.585866    0.227334    1.100765
 H   -4.902334   -0.597044   -1.056896
