90 
3mg4_ligand_dft.xyz
 C   -2.358185    1.786403    0.110014
 N   -1.182310    1.315373   -0.646518
 C   -3.575736    0.861438    0.048566
 C   -1.838301    2.105727    1.522461
 N   -1.446905    1.021822    2.254796
 O   -1.678172    3.258326    1.898499
 C   -0.441001    1.191638    3.293778
 C   -0.350067   -0.013024    4.253911
 C    0.876343    1.557328    2.592213
 O    1.602597    0.730846    2.028733
 N    1.179464    2.865141    2.584759
 C    2.323387    3.367696    1.839800
 C    2.155113    3.302606    0.333648
 C    1.000514    3.793529   -0.282984
 C    0.873921    3.770824   -1.669730
 C    1.894542    3.265022   -2.485896
 C    3.048093    2.788281   -1.861415
 C    3.174821    2.801907   -0.472647
 C    1.757068    3.270981   -3.986620
 C   -0.647014   -1.433163    3.740198
 C    0.367221   -2.174319    2.890557
 C   -0.088547   -3.096491    1.941714
 C    0.802268   -3.878202    1.206964
 C    2.176017   -3.742012    1.404336
 C    2.642541   -2.824756    2.343377
 C    1.745544   -2.058044    3.085184
 C   -3.981244    0.507397   -1.387489
 C   -5.168861   -0.424507   -1.405991
 C   -6.463299    0.059745   -1.593953
 C   -7.554787   -0.804329   -1.568448
 C   -7.362141   -2.165167   -1.351592
 C   -6.073556   -2.658337   -1.160246
 C   -4.985856   -1.792083   -1.187333
 C   -0.621880    0.104134   -0.504520
 O   -1.143397   -0.860896    0.052251
 C    0.790025   -0.059670   -1.074114
 C    0.745860   -0.647712   -2.487662
 N    1.469654   -0.955091   -0.095411
 C    2.101334   -0.695043   -3.213716
 C    3.114682   -1.604538   -2.555073
 C    2.953821   -2.993261   -2.599913
 C    3.843581   -3.834017   -1.939364
 C    4.904687   -3.298796   -1.210992
 C    5.076581   -1.919026   -1.156943
 C    4.189929   -1.078543   -1.830444
 H   -2.622036    2.750447   -0.330508
 H   -0.574527    2.048678   -0.995984
 H   -3.397405   -0.060783    0.604887
 H   -4.401093    1.382350    0.547141
 H   -1.477826    0.119397    1.791759
 H   -0.749555    2.054695    3.888633
 H   -1.086784    0.175082    5.040841
 H    0.626645    0.020622    4.747831
 H    0.467367    3.514606    2.891175
 H    2.480308    4.403348    2.154263
 H    3.205248    2.795985    2.140021
 H    0.185954    4.184495    0.323190
 H   -0.023249    4.179757   -2.131226
 H    3.866794    2.410774   -2.469860
 H    4.083546    2.420210   -0.013704
 H    1.895495    4.282169   -4.384768
 H    0.763769    2.932931   -4.299797
 H    2.502502    2.626799   -4.461844
 H   -1.617207   -1.440431    3.229474
 H   -0.808802   -2.040778    4.640006
 H   -1.155994   -3.203893    1.772122
 H    0.421791   -4.596993    0.487096
 H    2.874275   -4.345434    0.833616
 H    3.709705   -2.712346    2.509538
 H    2.133271   -1.351454    3.811273
 H   -4.208856    1.425430   -1.943218
 H   -3.133476    0.029788   -1.892186
 H   -6.620203    1.121912   -1.767144
 H   -8.555905   -0.412929   -1.721350
 H   -8.211696   -2.840803   -1.335220
 H   -5.916583   -3.719993   -0.994477
 H   -3.978800   -2.177555   -1.038655
 H    1.336816    0.887001   -1.063906
 H    0.060550   -0.020529   -3.068957
 H    0.292818   -1.645785   -2.441832
 H    0.898773   -1.795266    0.078735
 H    2.398692   -1.245318   -0.417418
 H    1.562291   -0.462851    0.821736
 H    2.502742    0.322079   -3.281364
 H    1.917569   -1.030264   -4.240130
 H    2.129701   -3.419755   -3.167000
 H    3.711803   -4.910104   -1.997974
 H    5.599646   -3.955238   -0.697099
 H    5.908505   -1.494026   -0.604024
 H    4.331363   -0.000648   -1.790757
