90 
3mg4_ligand_xtb.xyz
 C   -2.400124    1.641750   -0.053740
 N   -1.228634    1.183365   -0.813726
 C   -3.542449    0.630503   -0.002180
 C   -1.846274    2.064111    1.318205
 N   -1.465880    1.054966    2.124406
 O   -1.673508    3.236085    1.593666
 C   -0.532470    1.332966    3.205588
 C   -0.461104    0.232396    4.274998
 C    0.789880    1.653656    2.492631
 O    1.516031    0.790661    1.997614
 N    1.051464    2.953089    2.366229
 C    2.188531    3.432918    1.599616
 C    1.962021    3.347841    0.109395
 C    0.773928    3.799920   -0.454481
 C    0.572910    3.722552   -1.822743
 C    1.557926    3.216173   -2.667601
 C    2.747051    2.775773   -2.096870
 C    2.944044    2.832959   -0.726569
 C    1.345572    3.173656   -4.147524
 C   -0.614447   -1.229411    3.836521
 C    0.516225   -1.849201    3.061042
 C    0.229979   -2.699532    1.997281
 C    1.248063   -3.338011    1.301553
 C    2.571554   -3.145924    1.673928
 C    2.862476   -2.315312    2.742792
 C    1.844589   -1.679779    3.433002
 C   -4.103150    0.342866   -1.399977
 C   -5.215124   -0.666069   -1.308073
 C   -6.542397   -0.262010   -1.288168
 C   -7.559198   -1.193896   -1.173153
 C   -7.257864   -2.540953   -1.071550
 C   -5.935813   -2.952449   -1.084768
 C   -4.921420   -2.019484   -1.201129
 C   -0.565560    0.053433   -0.559281
 O   -0.954888   -0.855345    0.153621
 C    0.825370   -0.081416   -1.205373
 C    0.758012   -0.958443   -2.456670
 N    1.663170   -0.712521   -0.159458
 C    2.095743   -1.029182   -3.206784
 C    3.144950   -1.808298   -2.459229
 C    3.092611   -3.197059   -2.420043
 C    4.045253   -3.918360   -1.722509
 C    5.062990   -3.261582   -1.048423
 C    5.126791   -1.879360   -1.077313
 C    4.170433   -1.155277   -1.774137
 H   -2.751414    2.551866   -0.548476
 H   -0.761720    1.900179   -1.356833
 H   -3.213226   -0.306833    0.442996
 H   -4.331447    1.047055    0.626120
 H   -1.502883    0.102663    1.781229
 H   -0.878035    2.251106    3.694113
 H   -1.267086    0.429199    4.984294
 H    0.480180    0.362211    4.810171
 H    0.350473    3.625195    2.644776
 H    2.374272    4.469046    1.890028
 H    3.058163    2.828702    1.872794
 H   -0.000023    4.212456    0.175009
 H   -0.346032    4.099909   -2.249611
 H    3.533971    2.399673   -2.734980
 H    3.877284    2.489482   -0.304506
 H    1.537600    4.158711   -4.571934
 H    0.319344    2.906085   -4.391116
 H    2.021090    2.468296   -4.625143
 H   -1.545342   -1.353971    3.280035
 H   -0.725403   -1.810205    4.758423
 H   -0.796687   -2.878648    1.717327
 H    1.006551   -4.018020    0.496773
 H    3.363288   -3.655762    1.146657
 H    3.886390   -2.180118    3.055379
 H    2.093304   -1.061167    4.280798
 H   -4.474162    1.268254   -1.844069
 H   -3.302989   -0.047892   -2.033290
 H   -6.782734    0.788476   -1.369060
 H   -8.588116   -0.867456   -1.164045
 H   -8.050412   -3.268287   -0.984129
 H   -5.695671   -4.002430   -1.006612
 H   -3.889432   -2.342884   -1.213837
 H    1.244852    0.897846   -1.450433
 H    0.003027   -0.539612   -3.123843
 H    0.431577   -1.960910   -2.173719
 H    1.189180   -1.571179    0.203593
 H    2.598063   -0.962553   -0.534688
 H    1.743501   -0.082012    0.685996
 H    2.450164   -0.015885   -3.401510
 H    1.917296   -1.511342   -4.168914
 H    2.313026   -3.715304   -2.958250
 H    4.000997   -4.996410   -1.713900
 H    5.812712   -3.826032   -0.516479
 H    5.926045   -1.362299   -0.569240
 H    4.251509   -0.077492   -1.828820
