85 
3mj2_ligand_dft.xyz
 C    4.366184    2.759824   -0.290922
 C    3.745448    1.785230    0.489535
 C    4.271737    0.495487    0.509481
 C    5.378622    0.156842   -0.260647
 C    6.027648    1.137232   -1.032514
 C    5.504955    2.429739   -1.022760
 O    3.815381    4.003982   -0.402778
 C    4.359022    4.966085    0.500273
 C    2.519850    2.107944    1.294679
 N    1.398389    1.354306    1.002126
 O    2.518919    2.936890    2.188387
 C    0.191728    1.548459    1.786547
 C   -0.906235    2.221143    0.960739
 N   -1.110502    1.485092   -0.288915
 C    0.111789    1.344442   -1.078765
 C    1.183591    0.643861   -0.244609
 C   -2.286096    0.907460   -0.577272
 C   -2.391477    0.118583   -1.864720
 O   -3.268276    1.029356    0.184258
 S    5.979618   -1.538813   -0.342297
 C    4.263693   -2.927621    1.383191
 C    4.534242   -2.393550    0.159034
 S    3.107360   -2.488074   -0.850248
 C    2.273372   -3.160117    0.511866
 N    2.980757   -3.367370    1.583202
 N    0.900907   -3.388878    0.547905
 C    0.001987   -2.956165   -0.385235
 C   -1.418226   -2.846940    0.076584
 C   -2.452317   -3.218495   -0.783070
 C   -3.764441   -2.900814   -0.459880
 C   -4.048254   -2.172987    0.699176
 C   -3.016116   -1.839756    1.573537
 C   -1.705922   -2.188833    1.272830
 O    0.328651   -2.580652   -1.501124
 C   -5.422533   -1.604962    0.926379
 N   -5.571161   -0.360218    0.096823
 C   -6.698892    0.565861    0.491219
 C   -7.191225    1.346825   -0.758172
 C   -7.848873    0.366513   -1.746690
 C   -8.256872    2.358251   -0.306884
 C   -6.044087    2.092697   -1.459347
 C    7.237433    0.807674   -1.866507
 C   -6.220839    1.415460    1.664124
 H    3.782144   -0.255359    1.121225
 H    5.965043    3.203253   -1.631039
 H    3.851224    5.906982    0.284344
 H    5.436592    5.088178    0.335590
 H    4.167726    4.666764    1.535057
 H   -0.167309    0.569084    2.132660
 H    0.446034    2.161691    2.651499
 H   -0.607019    3.245936    0.713339
 H   -1.849389    2.247486    1.504107
 H   -0.074062    0.780985   -1.991041
 H    0.460904    2.345951   -1.356893
 H    2.109346    0.585930   -0.813958
 H    0.857888   -0.381931   -0.031850
 H   -2.234627    0.765887   -2.733298
 H   -3.388967   -0.315616   -1.935629
 H   -1.660968   -0.695183   -1.907058
 H    4.977847   -2.983915    2.195577
 H    0.575854   -3.758384    1.432710
 H   -2.218739   -3.725628   -1.713429
 H   -4.567786   -3.194746   -1.131950
 H   -3.227127   -1.268211    2.472606
 H   -0.903994   -1.891544    1.942738
 H   -6.223863   -2.289341    0.635672
 H   -5.571234   -1.323240    1.969645
 H   -4.652827    0.180683    0.104416
 H   -5.705774   -0.652618   -0.873039
 H   -7.514622   -0.088533    0.821701
 H   -8.683095   -0.171299   -1.282733
 H   -7.153002   -0.377283   -2.160584
 H   -8.244032    0.913915   -2.607141
 H   -7.823900    3.170676    0.283442
 H   -9.043121    1.878276    0.287264
 H   -8.732577    2.808440   -1.183117
 H   -5.520105    2.774979   -0.784352
 H   -5.297273    1.412898   -1.887418
 H   -6.447059    2.684761   -2.286373
 H    7.592807    1.689032   -2.405476
 H    7.009699    0.025857   -2.600048
 H    8.062460    0.440149   -1.245605
 H   -5.831744    0.792759    2.475513
 H   -5.428336    2.105606    1.364055
 H   -7.054180    1.987500    2.074475
