11 
3mjl_ligand_xtb.xyz
 C   -1.384348   -0.729093   -0.007517
 C   -1.444940    0.627450    0.000982
 N   -0.134760    1.058576    0.003116
 C    0.637374   -0.061480    0.000842
 N   -0.084761   -1.149792   -0.011146
 N    2.012067   -0.011337    0.085296
 H   -2.184278   -1.441192   -0.015361
 H   -2.266585    1.312341    0.000193
 H    2.447298    0.727733   -0.447963
 H    2.427342   -0.915200   -0.085045
 H    0.179887    2.012925    0.041468
