47 
3mkf_ligand_xtb.xyz
 C    2.010050   -1.194190    0.977822
 N   -0.165493   -0.063940    0.739635
 O    2.683086   -1.694454    1.863559
 C    1.189025    0.087288    1.210756
 C   -7.001857    0.956268   -1.009777
 O   -1.212693    0.573431    2.650543
 O   -4.254737   -0.865598   -2.157787
 O   -1.723722   -0.624615   -1.223647
 O    4.202385    4.099765   -1.402842
 O    4.939079   -2.287758    0.418254
 O    5.052645   -2.874778   -1.801764
 C    3.933251    2.562120    0.429897
 C    2.266953    2.754159   -1.288930
 C    3.169424    1.597488    1.056035
 C    1.511522    1.782607   -0.661410
 C   -6.460309   -0.412960   -0.614430
 C    2.679989   -2.856424   -0.705575
 C   -4.857799    0.061984    1.169693
 C   -3.616341    0.206037    1.640808
 N    1.950265   -1.665390   -0.270354
 C   -1.221805    0.196028    1.506448
 C   -4.068085   -0.548978   -1.002054
 C   -2.659221   -0.402788   -0.466598
 C    3.487012    3.148482   -0.749856
 C    1.951085    1.198598    0.519770
 B    4.305297   -2.657770   -0.697049
 N   -5.095184   -0.317036   -0.127799
 N   -2.505043   -0.019147    0.840028
 H   -0.351549   -0.373352   -0.216021
 H    1.149099    0.270341    2.289958
 H   -6.391197    1.382192   -1.801765
 H   -8.020667    0.856963   -1.372838
 H   -6.997514    1.635206   -0.159542
 H    5.027386    4.271881   -0.932855
 H    4.358063   -2.151408    1.181661
 H    4.591683   -3.146957   -2.592553
 H    4.880997    2.862073    0.855827
 H    1.928747    3.217134   -2.201939
 H    3.522294    1.140896    1.968066
 H    0.566047    1.497446   -1.098417
 H   -6.441752   -1.070429   -1.486390
 H   -7.076513   -0.862045    0.168023
 H    2.285180   -3.133313   -1.683675
 H    2.427366   -3.664413   -0.009998
 H   -5.722260    0.230369    1.788997
 H   -3.388131    0.499313    2.651440
 H    1.468715   -1.136691   -0.979429
