42 
3mle_ligand_dft.xyz
 P   -2.939388    0.213095   -0.682394
 O   -2.419674   -0.722832   -1.698810
 O   -2.945178    1.752075   -0.989808
 O   -4.412170   -0.035351   -0.141848
 P   -1.712478   -1.298287    1.347028
 O   -2.886214   -2.189256    1.248912
 O   -1.183335   -0.896837    2.795784
 O   -2.005632    0.146910    0.685598
 O   -0.343122   -1.793828    0.730199
 C   -0.266729   -2.819003   -0.281379
 C    1.139809   -2.816784   -0.854718
 O    1.334221   -1.690696   -1.720634
 C    2.275855   -2.739813    0.169278
 O    3.414891   -3.340840   -0.393548
 C    2.492150   -1.230325    0.310186
 O    3.812051   -0.957795    0.683087
 C    2.141855   -0.732611   -1.111761
 N    1.402827    0.531333   -1.058514
 C    0.219592    0.817690   -1.667808
 N   -0.257438    1.999641   -1.341183
 C    0.676996    2.517777   -0.463968
 C    0.759494    3.714271    0.272767
 N   -0.173734    4.683352    0.197616
 N    1.817599    3.903435    1.076284
 C    2.746748    2.947148    1.151615
 N    2.784113    1.775042    0.518581
 C    1.716790    1.616133   -0.279566
 H   -2.017337    2.027755   -1.257187
 H   -4.467954   -0.947927    0.197458
 H   -1.892207   -0.545820    3.351996
 H   -0.486158   -3.784052    0.184180
 H   -0.992518   -2.608735   -1.070697
 H    1.255131   -3.715971   -1.466796
 H    2.003053   -3.204070    1.126460
 H    4.177502   -2.866534   -0.028752
 H    1.774669   -0.820715    1.027254
 H    3.858001    0.011065    0.793957
 H    3.054811   -0.578249   -1.696414
 H   -0.279357    0.099715   -2.301468
 H   -1.039510    4.524835   -0.291117
 H   -0.102784    5.463673    0.831204
 H    3.577005    3.154000    1.821583
