75 
3mo0_ligand_xtb.xyz
 N    0.486922    1.354414   -0.865871
 C    1.801900    1.510637   -0.644038
 N    2.668863    0.546824   -0.382533
 C    2.198458   -0.716665   -0.408859
 C    0.840874   -1.009166   -0.675270
 C   -0.007038    0.129958   -0.867049
 C    3.094566   -1.778107   -0.166681
 C    2.670870   -3.080122   -0.209941
 C    1.306312   -3.374254   -0.514317
 C    0.423286   -2.350145   -0.740391
 O    1.004938   -4.704215   -0.554678
 O    3.452186   -4.169129    0.005125
 N   -1.331652   -0.005785   -1.095356
 N    2.294059    2.775292   -0.705993
 C    1.440522    3.909297   -0.671266
 C    0.993359    4.253531    0.807372
 C    0.071152    5.374923    0.846711
 N    4.832988    2.323641    0.485253
 C    6.100193    2.456249   -0.203524
 C    4.938227    2.549654    1.912255
 C   -2.200596    1.147521   -1.200193
 C   -2.505736    1.758740    0.172106
 C   -3.496370    2.917083    0.015618
 N   -4.723025    2.522463   -0.649601
 C   -4.449983    1.954507   -1.954701
 C   -3.499454    0.750777   -1.899160
 C   -5.300681   -1.827779   -0.135726
 C   -4.328262   -1.647600    0.825931
 C   -3.064286   -2.298876    0.739646
 C   -2.090512   -2.093662    1.685166
 C   -2.316165   -1.236427    2.758666
 C   -3.545647   -0.592343    2.876603
 C   -4.529713   -0.784228    1.940067
 C    4.812740   -3.963598    0.290911
 C   -0.317358   -5.078439   -0.842281
 H    4.119533   -1.518796    0.039803
 H   -0.601244   -2.566411   -0.994580
 H   -1.774018   -0.862389   -0.795296
 H    3.251421    2.861937   -0.347428
 H    0.545239    3.693137   -1.254499
 H    1.966095    4.769654   -1.087721
 H    1.905108    4.461202    1.370392
 H    0.526771    3.341106    1.184588
 H    0.435510    6.383249    0.900071
 H   -0.970406    5.228248    0.631852
 H    4.434726    1.398180    0.309981
 H    5.950788    2.238901   -1.259249
 H    6.454072    3.484205   -0.103281
 H    6.881047    1.787528    0.187902
 H    5.246197    3.582512    2.088023
 H    3.962081    2.391716    2.367511
 H    5.666144    1.889197    2.405985
 H   -1.661480    1.887610   -1.801528
 H   -1.577588    2.108912    0.623337
 H   -2.938526    0.992914    0.820208
 H   -3.041162    3.711377   -0.584503
 H   -3.753601    3.329466    0.994166
 H   -5.201651    1.830228   -0.078788
 H   -4.006637    2.744362   -2.569131
 H   -5.400180    1.661719   -2.407437
 H   -3.980934   -0.057665   -1.339725
 H   -3.287766    0.392456   -2.907746
 H   -5.147089   -2.488570   -0.970297
 H   -6.253242   -1.334365   -0.065352
 H   -2.901879   -2.980084   -0.086129
 H   -1.135452   -2.594367    1.600841
 H   -1.544293   -1.076388    3.495289
 H   -3.722037    0.069370    3.713122
 H   -5.481791   -0.281234    2.034930
 H    5.323256   -3.452846   -0.532142
 H    4.947056   -3.387558    1.212458
 H    5.239693   -4.956849    0.420236
 H   -1.016297   -4.708766   -0.083774
 H   -0.632029   -4.725644   -1.830805
 H   -0.323458   -6.167241   -0.832087
