14 
3moh_ligand_xtb.xyz
 P    1.301490   -0.106294    0.007442
 O    0.118063    0.162718   -1.031150
 O    1.881076    1.346162    0.353200
 O    2.284270   -1.064827   -0.473233
 O    0.504424   -0.479982    1.332250
 C   -0.990792    0.930715   -0.597332
 C   -2.101103    0.037089   -0.023756
 O   -3.040540    0.487168    0.561538
 O   -1.939165   -1.257074   -0.262415
 H    2.704404    1.488265   -0.111336
 H    1.056330   -0.956324    1.949804
 H   -1.386318    1.455265   -1.472941
 H   -0.699288    1.664996    0.156507
 H   -1.111120   -1.417932   -0.748649
