79 
3mp6_ligand_xtb.xyz
 N   -6.610487   -1.229856    1.165666
 C   -5.226456   -1.565962    1.512993
 C   -4.383377   -1.318129    0.260848
 O   -4.836621   -1.482976   -0.856185
 C   -5.041596   -3.023725    1.947636
 N   -3.144142   -0.846321    0.485134
 C   -2.155408   -0.680562   -0.563075
 C   -0.805074   -1.061710    0.052127
 O   -0.651843   -1.132449    1.253526
 C   -2.138977    0.773562   -1.074884
 C   -3.364387    1.069760   -1.957392
 C   -4.028128    2.419234   -1.660325
 N   -4.413373    2.578327   -0.265002
 C   -5.338843    1.869010    0.380650
 N   -5.441957    2.016290    1.713018
 N   -6.160236    1.029519   -0.217809
 N    0.182162   -1.298713   -0.832101
 C    1.476812   -1.783282   -0.418693
 C    2.436202   -0.673137    0.009464
 O    3.467171   -0.952761    0.617235
 C    2.121709   -2.567575   -1.580543
 O    2.126810   -1.673982   -2.677931
 C    1.366596   -3.856647   -1.884379
 N    2.095473    0.558188   -0.353335
 C    2.734715    1.781807    0.071929
 C    3.795008    2.277945   -0.930890
 C    5.036950    1.386914   -0.955986
 C    5.930486    1.591714    0.273866
 C    6.830552    0.388169    0.537994
 N    6.085412   -0.712334    1.204151
 C    6.620752   -2.035534    0.851802
 C    6.059101   -0.546212    2.665783
 C    1.642575    2.838716    0.212055
 O    0.509642    2.671005   -0.157756
 O    2.099860    3.944491    0.767598
 H   -6.891631   -1.822291    0.385804
 H   -7.232309   -1.435144    1.941892
 H   -6.570734    0.236229    0.342551
 H   -4.903495   -0.894693    2.316671
 H   -5.332375   -3.692975    1.140208
 H   -5.657637   -3.238527    2.818145
 H   -4.003675   -3.218702    2.204528
 H   -2.740584   -0.853898    1.416081
 H   -2.401402   -1.358622   -1.388428
 H   -2.116680    1.431596   -0.205524
 H   -1.222447    0.956308   -1.634989
 H   -3.073662    1.077838   -3.007564
 H   -4.085639    0.263709   -1.835874
 H   -4.906817    2.542010   -2.300088
 H   -3.334524    3.228793   -1.887302
 H   -3.879529    3.240498    0.275546
 H   -4.971855    2.766429    2.190285
 H   -6.231856    1.603703    2.181150
 H   -6.053158    0.845904   -1.202573
 H    0.032455   -1.237298   -1.828899
 H    1.352324   -2.438715    0.450990
 H    3.155089   -2.812369   -1.288683
 H    2.381210   -2.154322   -3.474197
 H    0.336045   -3.647451   -2.160732
 H    1.844601   -4.382495   -2.708043
 H    1.371077   -4.508924   -1.016423
 H    1.213025    0.692738   -0.833408
 H    3.189190    1.623817    1.055861
 H    3.342449    2.296154   -1.923199
 H    4.078684    3.296052   -0.663391
 H    5.611111    1.618821   -1.853176
 H    4.716899    0.347967   -1.037264
 H    6.556708    2.469734    0.116905
 H    5.322593    1.792349    1.156851
 H    7.675355    0.664124    1.172097
 H    7.225691    0.022864   -0.411298
 H    5.081902   -0.683707    0.885523
 H    6.556634   -2.193554   -0.222569
 H    7.662453   -2.113592    1.160477
 H    6.044054   -2.810806    1.351605
 H    5.732546    0.456982    2.928715
 H    7.052897   -0.712113    3.079633
 H    5.366789   -1.261463    3.104469
 H    1.422827    4.638593    0.831803
