55 
3mpm_ligand_dft.xyz
 N   -1.786288   -1.101936   -0.060368
 N   -0.980600   -2.183296   -0.179510
 C    0.239466   -1.665157   -0.092164
 C    0.263210   -0.267916    0.079078
 C   -1.096613    0.088478    0.093627
 N   -1.741360    1.261551    0.212403
 C   -3.060098    1.198640    0.174950
 C   -3.836218    0.031723    0.020945
 C   -3.148269   -1.172697   -0.107344
 N   -3.675419   -2.400776   -0.261076
 C   -5.317215    0.081591   -0.023503
 C   -6.098382   -0.695527    0.844064
 C   -7.483191   -0.642236    0.808682
 C   -8.122296    0.208943   -0.095390
 C   -7.361346    0.997461   -0.959617
 C   -5.973982    0.925584   -0.922658
 O   -9.476467    0.222037   -0.083557
 C    1.423052    0.613637    0.215019
 C    2.725345    0.096310    0.124719
 C    3.834533    0.921799    0.272993
 C    3.669244    2.287993    0.499001
 C    2.384429    2.811234    0.562965
 C    1.270639    1.990441    0.428667
 N    5.177031    0.413933    0.193693
 C    5.373591   -0.976961    0.527051
 C    6.849957   -1.226235    0.796496
 N    7.663117   -0.848049   -0.416221
 C    7.376015    0.574164   -0.828788
 C    5.880251    0.762948   -1.024974
 C    9.120150   -1.096071   -0.219314
 H    1.081382   -2.342646   -0.154722
 H   -3.586185    2.145452    0.282429
 H   -3.043256   -3.158892   -0.476024
 H   -4.655148   -2.488000   -0.480689
 H   -5.611422   -1.338369    1.572988
 H   -8.086936   -1.239265    1.483626
 H   -7.850857    1.661224   -1.668473
 H   -5.391714    1.530461   -1.612378
 H   -9.802982    0.853303   -0.736226
 H    2.861265   -0.963232   -0.068727
 H    4.539383    2.921625    0.645672
 H    2.246212    3.873224    0.740523
 H    0.271443    2.406549    0.492100
 H    5.029108   -1.672664   -0.264354
 H    4.816571   -1.218325    1.435706
 H    7.057014   -2.277273    1.011270
 H    7.207753   -0.601718    1.618101
 H    7.343578   -1.447939   -1.184429
 H    7.940415    0.768061   -1.743876
 H    7.746602    1.210582   -0.021881
 H    5.700098    1.812261   -1.266885
 H    5.536030    0.167792   -1.894062
 H    9.470229   -0.463892    0.597655
 H    9.272544   -2.146851    0.030177
 H    9.651604   -0.846621   -1.138526
