42 
3mqf_ligand_xtb.xyz
 C    0.013322   -1.400090    0.240519
 F    1.785153    4.142332   -0.398069
 N   -1.158886   -2.208372    0.442291
 S   -3.750298   -2.787124    0.200973
 C    0.548298   -0.867099    1.586715
 N   -2.668615   -0.525040   -0.023187
 O   -0.384362   -0.032690    2.227914
 C    1.806567   -0.039592    1.311385
 N   -2.873954    0.256292   -0.959232
 O    2.538134   -2.867446   -2.672464
 C    2.821598   -0.881427    0.525629
 O    3.914588   -0.105404    0.126751
 C    2.155950   -1.460878   -0.728928
 O    0.980293   -2.187551   -0.394579
 C    3.087213   -2.430673   -1.462996
 O    2.422811    0.383281    2.500395
 C   -2.407876   -1.813618    0.088306
 C   -3.217229    1.605081   -0.576945
 C   -1.897635    2.344012   -0.525462
 C   -1.242637    2.677936   -1.705373
 C   -0.001232    3.286176   -1.671602
 C    0.575420    3.551345   -0.441819
 C   -0.053405    3.221992    0.745552
 C   -1.291950    2.608025    0.696120
 H   -0.258877   -0.531878   -0.387074
 H   -1.016397   -3.189114    0.632472
 H    0.810208   -1.723967    2.227433
 H   -1.216646   -0.510208    2.330158
 H    1.515518    0.834766    0.705053
 H    1.669406   -3.243006   -2.484704
 H    3.151582   -1.708904    1.175647
 H    4.209779    0.395646    0.898504
 H    1.895534   -0.629953   -1.402042
 H    3.301055   -3.278750   -0.797745
 H    4.016324   -1.911292   -1.700220
 H    1.741651    0.779794    3.056842
 H   -3.857201    2.006817   -1.364039
 H   -3.717922    1.650351    0.395028
 H   -1.706518    2.455972   -2.654036
 H    0.520165    3.552127   -2.577150
 H    0.424390    3.442155    1.686717
 H   -1.783610    2.333637    1.616362
