42 
3mqf_ligand_dft.xyz
 C   -0.792407    1.074123   -0.102164
 F    1.462685   -4.615025   -0.779561
 N   -0.311748    2.405730   -0.449988
 S    1.465422    4.364895   -0.804009
 C   -1.261592    0.971189    1.362690
 N    1.746737    2.017986    0.483850
 O   -0.211012    0.976609    2.306050
 C   -1.987717   -0.353349    1.565344
 N    2.619298    1.403255   -0.140815
 O   -2.907749   -0.377840   -3.236078
 C   -3.091908   -0.551697    0.540565
 O   -3.658220   -1.834313    0.652659
 C   -2.492142   -0.408048   -0.854286
 O   -1.879673    0.879575   -0.967485
 C   -3.515401   -0.487051   -1.972911
 O   -2.571519   -0.437116    2.845455
 C    0.930873    2.890959   -0.313641
 C    3.358365    0.461190    0.712086
 C    2.889853   -0.929288    0.341790
 C    3.537653   -1.665650   -0.650103
 C    3.063454   -2.915052   -1.033968
 C    1.926648   -3.413197   -0.415416
 C    1.255528   -2.704184    0.570977
 C    1.745467   -1.457794    0.945663
 H   -0.000639    0.335676   -0.292123
 H   -0.991103    3.008974   -0.896927
 H   -1.961685    1.799908    1.548588
 H    0.484773    1.597802    2.032399
 H   -1.252787   -1.163974    1.424424
 H   -2.398198    0.442653   -3.226982
 H   -3.852406    0.233632    0.683095
 H   -3.876250   -1.955045    1.587030
 H   -1.729978   -1.186683   -1.010112
 H   -4.275045    0.295587   -1.814521
 H   -4.012250   -1.457950   -1.928509
 H   -1.869386   -0.271520    3.488830
 H    4.418801    0.591790    0.479250
 H    3.180611    0.678393    1.771194
 H    4.420895   -1.258548   -1.133947
 H    3.556988   -3.500011   -1.801871
 H    0.371186   -3.131730    1.031737
 H    1.220872   -0.879062    1.702763
