41 
3mrt_ligand_dft.xyz
 C   -0.835351   -1.171971    0.091894
 N   -2.242306   -1.262276   -0.169952
 S   -4.643541   -0.237809   -0.720635
 C   -0.250110   -2.536194    0.447220
 N   -2.548107    0.960340    0.408988
 O   -0.879994   -3.020320    1.604010
 C    1.246489   -2.363659    0.658135
 N   -2.036022    1.783491   -0.359016
 O    1.773025   -3.637709    0.956361
 C    1.913641   -1.734000   -0.555414
 N    2.670534    2.270810    1.178349
 O    3.262189   -1.534958   -0.203394
 C    1.180881   -0.430218   -0.901067
 O   -0.203507   -0.678550   -1.073652
 C    1.636779    0.186811   -2.213412
 O    3.031221    0.443894   -2.113117
 C   -3.081495   -0.212809   -0.204814
 C   -1.521885    2.954725    0.380518
 C   -0.051972    2.742457    0.659768
 C    0.360416    2.104357    1.829416
 C    1.720947    1.901438    2.041534
 C    2.266964    2.869873    0.056479
 C    0.932373    3.129829   -0.245653
 H   -0.674375   -0.476887    0.927693
 H   -2.618483   -2.139245   -0.505693
 H   -0.408987   -3.213205   -0.409549
 H   -0.330970   -3.751292    1.921349
 H    1.394778   -1.679403    1.510619
 H    2.730344   -3.528018    1.035729
 H    1.820918   -2.427961   -1.408488
 H    3.637360   -0.915920   -0.849879
 H    1.347450    0.285407   -0.084606
 H    1.416724   -0.516937   -3.028150
 H    1.070572    1.110454   -2.386400
 H    3.363272    0.692452   -2.982338
 H   -2.077072    3.082354    1.314995
 H   -1.671534    3.824736   -0.263825
 H   -0.366603    1.774831    2.565997
 H    2.066637    1.415694    2.951270
 H    3.050306    3.150449   -0.642657
 H    0.668085    3.628176   -1.173784
