46 
3mrx_ligand_xtb.xyz
 C   -1.012434   -1.246911    0.246416
 N   -2.427935   -1.301312    0.449468
 S   -4.830002   -0.159709    0.147755
 C   -0.328502   -2.578552    0.577041
 N   -2.588446    0.990220    0.287508
 O   -0.577375   -3.025026    1.883267
 C    1.181069   -2.418317    0.326565
 N   -2.174407    1.861580   -0.481388
 O    1.855502   -3.641383    0.491468
 C    1.451690   -1.907446   -1.097331
 O    2.807266   -1.585202   -1.256500
 C    0.616693   -0.647649   -1.348629
 O   -0.752848   -0.901274   -1.096769
 C    0.709297   -0.142877   -2.790232
 O    0.096889    1.105886   -2.933899
 C   -3.170504   -0.182419    0.193514
 O    3.506039    1.075637    1.445032
 C   -1.629197    3.042582    0.154034
 C   -0.212910    2.663857    0.521995
 C    0.036069    2.026753    1.734353
 C    1.291738    1.536970    2.023529
 C    2.329379    1.653538    1.094116
 C    2.088516    2.318244   -0.105305
 C    0.825020    2.812016   -0.384579
 C    4.530366    1.001241    0.477075
 H   -0.600119   -0.453328    0.905555
 H   -2.903552   -2.183369    0.327270
 H   -0.720375   -3.360218   -0.084022
 H   -0.387544   -2.315902    2.510118
 H    1.580009   -1.674358    1.041650
 H    1.445039   -4.110588    1.229791
 H    1.154828   -2.693947   -1.808732
 H    3.316608   -2.347821   -0.951479
 H    0.974914    0.142696   -0.672973
 H    1.759309   -0.019697   -3.059138
 H    0.246922   -0.889214   -3.450779
 H   -0.797016    1.046799   -2.569157
 H   -1.646420    3.839958   -0.588677
 H   -2.193409    3.326091    1.047561
 H   -0.762736    1.908208    2.452952
 H    1.495643    1.043628    2.961505
 H    2.866230    2.432807   -0.842010
 H    0.645496    3.288970   -1.335019
 H    4.191282    0.459070   -0.411210
 H    5.340493    0.451220    0.952848
 H    4.888432    1.995638    0.194592
