45 
3ms2_ligand_dft.xyz
 C   -0.812198   -1.033490    0.152329
 N   -2.229149   -1.288296    0.040628
 S   -4.820426   -0.672403   -0.109949
 C   -0.361831   -0.855748    1.611400
 N   -2.766816    0.850381   -0.769006
 O   -1.028279    0.165701    2.309689
 C    1.143016   -0.601556    1.593522
 N   -2.239798    1.613541    0.052303
 O    1.666558   -0.492334    2.897809
 C    1.869547   -1.734576    0.887306
 O    3.247139   -1.456234    0.751356
 C    1.273599   -1.917724   -0.507247
 O   -0.138544   -2.135470   -0.404579
 C    1.826863   -3.112177   -1.262022
 O    1.265017   -3.206679   -2.548450
 C   -3.202303   -0.403040   -0.231445
 C   -1.731831    2.854785   -0.554066
 C   -0.229722    2.692952   -0.627844
 C    0.594886    3.097842    0.420063
 C    1.958853    2.819202    0.393388
 C    2.530883    2.116921   -0.669040
 C    1.700463    1.735207   -1.728485
 C    0.340261    2.015452   -1.708607
 C    3.980463    1.711705   -0.650691
 H   -0.572654   -0.129674   -0.416863
 H   -2.552216   -2.185568    0.384496
 H   -0.558781   -1.796034    2.142974
 H   -1.365971    0.830498    1.680981
 H    1.327064    0.327787    1.031153
 H    1.087318    0.125397    3.366637
 H    1.717842   -2.661138    1.464148
 H    3.550545   -1.171693    1.624714
 H    1.454957   -1.006154   -1.096210
 H    2.905177   -2.990256   -1.381889
 H    1.646536   -4.023598   -0.669804
 H    0.306583   -3.213189   -2.425601
 H   -2.010959    3.675429    0.112227
 H   -2.181551    3.000934   -1.540944
 H    0.168414    3.624331    1.270196
 H    2.585177    3.132985    1.224330
 H    2.125070    1.199770   -2.574007
 H   -0.292358    1.688720   -2.530740
 H    4.562730    2.328764    0.039787
 H    4.061140    0.666413   -0.327574
 H    4.432280    1.790932   -1.644282
