45 
3ms4_ligand_dft.xyz
 C    1.296177    0.955466   -0.027498
 F   -4.334073   -1.655642    0.627890
 N    2.725463    0.968454   -0.324798
 S    5.203113    0.018863   -0.625244
 C    1.012317    1.202841    1.467015
 F   -3.433053    0.123879   -0.202350
 N    3.014295   -1.220287    0.311495
 O    1.299561    0.087913    2.283035
 C   -0.468929    1.494965    1.669628
 F   -4.090754   -1.464370   -1.517230
 N    2.649687   -2.059534   -0.519882
 O   -0.741947    1.889878    2.996540
 C   -0.942560    2.605590    0.747317
 O   -2.328049    2.807622    0.862513
 C   -0.623208    2.195626   -0.686685
 O    0.791269    2.006725   -0.806369
 C   -0.996276    3.233864   -1.728254
 O   -0.688944    2.788043   -3.027047
 C    3.601174   -0.043769   -0.264686
 C    1.921478   -3.181240    0.099170
 C    0.458369   -2.808984   -0.006121
 C   -0.130295   -2.649598   -1.262950
 C   -1.424494   -2.157689   -1.378099
 C   -2.144916   -1.838894   -0.229744
 C   -1.576010   -2.021026    1.027770
 C   -0.273326   -2.491107    1.137148
 C   -3.509240   -1.213547   -0.335719
 H    0.860517   -0.006275   -0.330520
 H    3.095854    1.869242   -0.603489
 H    1.595157    2.084092    1.777800
 H    2.148851   -0.304815    2.029238
 H   -1.034754    0.585316    1.415252
 H   -0.403537    1.192508    3.573577
 H   -0.386302    3.528019    0.984042
 H   -2.523924    2.829558    1.809181
 H   -1.137954    1.253055   -0.922717
 H   -0.485336    4.180371   -1.489441
 H   -2.073156    3.406062   -1.684240
 H    0.247492    2.551213   -3.019915
 H    2.223512   -3.318548    1.142332
 H    2.155403   -4.077287   -0.481700
 H    0.437758   -2.885539   -2.157941
 H   -1.871504   -2.019072   -2.356047
 H   -2.143055   -1.777044    1.920294
 H    0.183289   -2.584343    2.116582
