42 
3ms7_ligand_dft.xyz
 C    0.858774    1.036264   -0.250599
 N    0.489659    2.443012   -0.379158
 S   -1.068592    4.606459   -0.215921
Cl   -3.358524   -1.979699   -1.003556
 C    0.639426    0.223373   -1.539582
 N   -1.765675    2.021142   -0.187050
 O   -0.714384   -0.017988   -1.842913
 C    1.250689   -1.158613   -1.345114
 N   -2.047568    1.606090    0.942801
 O    4.229426    0.820531    1.983498
 C    2.707152   -1.069846   -0.923123
 O    3.223363   -2.344212   -0.623474
 C    2.794794   -0.205804    0.331154
 O    2.228192    1.079104    0.057104
 C    4.213359    0.054129    0.803852
 O    1.189809   -1.926476   -2.525962
 C   -0.718722    3.000837   -0.214619
 C   -3.015144    0.497089    0.906714
 C   -2.220606   -0.765277    1.179960
 C   -2.271281   -1.897685    0.363697
 C   -1.466529   -3.006951    0.613178
 C   -0.583533   -2.994750    1.685919
 C   -0.521780   -1.881907    2.519832
 C   -1.339499   -0.787612    2.267961
 H    0.290141    0.578789    0.568839
 H    1.262712    3.079130   -0.533172
 H    1.152774    0.743006   -2.363372
 H   -1.218223    0.808842   -1.854445
 H    0.693684   -1.657348   -0.535190
 H    3.723266    1.621579    1.795914
 H    3.282552   -0.587553   -1.730459
 H    2.975160   -2.915269   -1.363541
 H    2.227842   -0.685535    1.143581
 H    4.774005    0.542180   -0.009557
 H    4.694430   -0.900759    1.024022
 H    0.261471   -1.944317   -2.796278
 H   -3.528052    0.457293   -0.056500
 H   -3.740558    0.677313    1.706202
 H   -1.531972   -3.869359   -0.040997
 H    0.051753   -3.855476    1.867827
 H    0.159814   -1.865989    3.364143
 H   -1.287176    0.086152    2.910625
