20 
3ms9_ligand_xtb.xyz
Cl   -3.870837   -0.400823    0.009642
 C   -2.151701   -0.249589   -0.000309
 C   -1.587650    1.004236    0.002513
 C   -0.191664    1.158303   -0.005549
 C    0.614847   -0.007431   -0.008764
 C    0.001800   -1.263071   -0.012939
 C   -1.366725   -1.400407   -0.010729
 C    2.076125    0.102364    0.002029
 O    2.705071    1.145711    0.015533
 O    2.694455   -1.090196   -0.003449
 C    4.111997   -1.052356    0.008579
 N    0.350927    2.390069   -0.020330
 H   -2.213995    1.883001    0.010507
 H    0.628849   -2.140129   -0.017301
 H   -1.829803   -2.373175   -0.014982
 H    4.482988   -0.416586   -0.798135
 H    4.474032   -0.656918    0.960339
 H    4.444162   -2.078331   -0.127396
 H   -0.235218    3.203228    0.018004
 H    1.358353    2.466008    0.001714
