44 
3msc_ligand_dft.xyz
 C   -1.689346    0.979321   -0.010864
 C   -3.147602    1.051705    0.443827
 O   -3.265832    2.035410    1.437220
 C   -3.568627   -0.313302    0.959200
 O   -4.923178   -0.212788    1.344682
 C   -3.349674   -1.383359   -0.095673
 O   -3.706209   -2.607848    0.504110
 C   -1.883262   -1.339894   -0.548457
 O   -1.538628   -0.032537   -0.989358
 C   -1.610777   -2.230702   -1.751346
 O   -2.018285   -3.551301   -1.418589
 N   -1.301162    2.222246   -0.615574
 C   -0.089034    2.794350   -0.576461
 N    0.780011    2.240575    0.411149
 S    0.352633    4.145065   -1.414793
 N    1.798588    1.695792   -0.027861
 C    2.719267    1.321303    1.058236
 C    3.579806    0.144265    0.663795
 C    3.098993   -1.132948    0.345810
 C    3.935549   -2.171220   -0.050359
 C    5.304064   -1.957920   -0.121406
 C    5.816306   -0.702987    0.188499
 C    4.960247    0.326351    0.564616
 N    1.670382   -1.457227    0.428240
 O    1.266351   -2.404863   -0.227850
 O    0.966154   -0.785084    1.167891
 H   -1.038889    0.787563    0.850570
 H   -3.769219    1.295576   -0.436044
 H   -4.123224    1.884436    1.859461
 H   -2.941721   -0.564226    1.831053
 H   -5.201508   -1.104444    1.594396
 H   -3.994752   -1.161552   -0.963183
 H   -3.397399   -3.309533   -0.091257
 H   -1.239678   -1.646385    0.286700
 H   -2.180304   -1.843543   -2.608524
 H   -0.542085   -2.190010   -1.987734
 H   -1.849012   -4.126361   -2.171718
 H   -1.966242    2.669173   -1.233559
 H    2.179081    1.156751    1.993279
 H    3.370696    2.194122    1.183832
 H    3.500823   -3.132731   -0.292750
 H    5.962593   -2.766297   -0.420438
 H    6.884145   -0.518727    0.128267
 H    5.371389    1.307757    0.781314
