52 
3msl_ligand_xtb.xyz
 C   -1.414477    0.728083    0.044897
 C   -1.816881    1.480158   -1.044252
 C   -1.307305    2.760361   -1.172793
 C   -0.418055    3.268493   -0.230164
 C    0.009981    2.535678    0.858583
 C   -0.485132    1.245289    0.983828
 N   -0.182676    0.285160    1.911379
 C   -0.890198   -0.760871    1.574916
 N   -1.687115   -0.556135    0.471276
 N   -0.894638   -1.943385    2.254044
Cl    0.183869    4.879552   -0.449779
 C   -2.623244   -1.513567   -0.074477
 C   -4.033425   -0.933000   -0.214997
 C   -4.551220   -0.399582    1.115497
 C   -2.060814   -2.074289   -1.391885
 C   -0.663551   -2.592387   -1.079476
 N    0.335290   -2.013244   -1.765228
 O   -0.479862   -3.453763   -0.236528
 C    1.724326   -2.310128   -1.486715
 C    2.323154   -1.395125   -0.409583
 C    2.404417    0.059433   -0.873777
 C    3.004861    0.931962    0.224670
 C    4.393453    0.433306    0.608528
 C    4.316550   -1.016991    1.073153
 C    3.714340   -1.894900   -0.019324
 H   -2.499453    1.102622   -1.789815
 H   -1.598361    3.373701   -2.010597
 H    0.704616    2.936933    1.576576
 H   -0.870144   -2.773581    1.669927
 H   -0.201298   -1.955509    2.987436
 H   -2.671820   -2.336470    0.647230
 H   -4.045035   -0.133857   -0.955335
 H   -4.688150   -1.729871   -0.573069
 H   -4.538108   -1.180897    1.872145
 H   -5.571254   -0.040461    1.005739
 H   -3.934345    0.425527    1.464018
 H   -2.037443   -1.306295   -2.164272
 H   -2.682622   -2.904426   -1.728520
 H    0.140434   -1.227620   -2.364452
 H    2.291163   -2.223429   -2.416942
 H    1.760044   -3.346187   -1.140457
 H    1.674756   -1.439501    0.471789
 H    3.025183    0.120212   -1.772097
 H    1.408241    0.435229   -1.121093
 H    3.056224    1.967434   -0.116835
 H    2.352233    0.896192    1.098416
 H    5.060797    0.504846   -0.253956
 H    4.805651    1.057133    1.403569
 H    5.311989   -1.382614    1.333697
 H    3.691277   -1.074190    1.966530
 H    3.649442   -2.928245    0.328032
 H    4.362406   -1.877261   -0.899266
