42 
3mt7_ligand_xtb.xyz
 C    1.720468    0.917493    0.245515
 N    3.042686    0.435763    0.486988
 S    5.020815   -1.354607    0.412285
Br   -4.081280   -0.881878    0.158621
 C    0.923223    1.113234    1.546609
 N    2.647369   -1.732033   -0.235483
 O    0.841726   -0.111448    2.218078
 C   -0.464866    1.641948    1.176159
 N    2.281954   -2.297803   -1.271074
 O   -1.188906    1.840156    2.362539
 C   -0.334335    2.934810    0.360657
 O   -1.629285    3.309434   -0.028029
 C    0.591630    2.686274   -0.843625
 O    1.832218    2.144420   -0.441677
 C    0.921969    3.984447   -1.586963
 O   -0.268473    4.532972   -2.110935
 C    3.480988   -0.787306    0.121153
 C    1.406264   -3.438013   -1.066357
 C    0.031799   -2.890646   -0.766544
 C   -0.289439   -2.514984    0.533013
 C   -1.510990   -1.931450    0.812915
 C   -2.407885   -1.713876   -0.219331
 C   -2.105800   -2.077787   -1.520581
 C   -0.881533   -2.664106   -1.788480
 H    1.193103    0.172746   -0.374229
 H    3.683531    1.032563    0.987171
 H    1.435638    1.864226    2.169376
 H    0.187265    0.000868    2.920740
 H   -0.973502    0.890769    0.547854
 H   -2.001948    2.304050    2.125200
 H    0.116214    3.710916    1.003445
 H   -1.555783    3.920683   -0.775606
 H    0.076913    1.996106   -1.532738
 H    1.636940    3.746763   -2.382557
 H    1.399537    4.680030   -0.884772
 H   -0.050973    5.303985   -2.645226
 H    1.411647   -4.006305   -1.997082
 H    1.750396   -4.058876   -0.234025
 H    0.422791   -2.657885    1.330586
 H   -1.760518   -1.643829    1.822062
 H   -2.815168   -1.900260   -2.314197
 H   -0.635578   -2.943121   -2.801967
