43 
3mtd_ligand_dft.xyz
 C   -0.804801   -1.206685    0.108420
 C    0.005753   -2.448381    0.484474
 O   -0.165364   -2.822505    1.832487
 C    1.487727   -2.110310    0.322121
 O    2.312953   -3.244758    0.473498
 C    1.805744   -1.509956   -1.043914
 O    3.139161   -1.015049   -1.053291
 C    0.843247   -0.363072   -1.327841
 O   -0.492199   -0.846512   -1.217128
 C    0.945472    0.272253   -2.700644
 O    0.048236    1.350242   -2.814380
 N   -2.223485   -1.422811    0.198097
 C   -3.110022   -0.388316    0.195878
 N   -2.579157    0.821843    0.727256
 S   -4.699989   -0.505616   -0.186092
 N   -2.121100    1.627539   -0.093365
 C   -1.556469    2.827136    0.570618
 C   -0.085863    2.561628    0.797517
 C    0.312382    1.815541    1.911399
 C    1.612373    1.339144    2.023455
 C    2.533017    1.600418    1.007398
 C    2.178289    2.444349   -0.045865
 C    0.870271    2.906602   -0.157065
 O    3.747140    0.976146    1.040200
 H   -0.538374   -0.399007    0.800002
 H   -0.254250   -3.269917   -0.202874
 H   -1.101361   -3.003286    1.985876
 H    1.734262   -1.350844    1.081161
 H    2.168969   -3.587730    1.365040
 H    1.689871   -2.288379   -1.812480
 H    3.693425   -1.755303   -0.765685
 H    0.995621    0.415155   -0.577397
 H    0.760312   -0.495422   -3.469266
 H    1.955355    0.664881   -2.845270
 H   -0.788797    1.066288   -2.416624
 H   -2.589235   -2.258333   -0.245918
 H   -2.083958    3.009003    1.512238
 H   -1.709868    3.663656   -0.114837
 H   -0.421619    1.553021    2.669207
 H    1.913431    0.712705    2.857025
 H    2.910210    2.670239   -0.815250
 H    0.579502    3.474533   -1.034716
 H    3.810377    0.460006    0.216556
