43 
3mtd_ligand_xtb.xyz
 C   -0.750177   -1.278344    0.217474
 C    0.026942   -2.542750    0.599857
 O   -0.163978   -2.894642    1.947310
 C    1.525305   -2.271952    0.401073
 O    2.289808   -3.436095    0.586083
 C    1.803816   -1.747917   -1.015815
 O    3.138476   -1.339392   -1.136934
 C    0.895464   -0.546994   -1.296913
 O   -0.462155   -0.903765   -1.110283
 C    1.020585   -0.020379   -2.727787
 O    0.326617    1.183576   -2.891140
 N   -2.165815   -1.476575    0.354872
 C   -2.987139   -0.399371    0.106518
 N   -2.503993    0.805257    0.296184
 S   -4.634448   -0.523819   -0.042850
 N   -2.123446    1.744792   -0.404343
 C   -1.688869    2.924664    0.304845
 C   -0.229968    2.664626    0.611657
 C    0.115885    1.990353    1.778202
 C    1.427989    1.644186    2.029950
 C    2.420069    1.954260    1.101370
 C    2.077268    2.636368   -0.062036
 C    0.760725    2.981378   -0.306989
 O    3.689528    1.563473    1.368206
 H   -0.454669   -0.461105    0.903477
 H   -0.279842   -3.366301   -0.066536
 H   -1.106812   -2.874876    2.150348
 H    1.829357   -1.500463    1.128136
 H    2.031238   -3.822905    1.431379
 H    1.579041   -2.553611   -1.733099
 H    3.685027   -2.053668   -0.783149
 H    1.162914    0.258688   -0.597969
 H    0.646313   -0.789119   -3.417589
 H    2.070806    0.180824   -2.942245
 H   -0.577561    1.052211   -2.575497
 H   -2.544883   -2.353355    0.020454
 H   -2.251241    3.085989    1.229680
 H   -1.803225    3.768195   -0.375962
 H   -0.649341    1.733590    2.497159
 H    1.704551    1.123260    2.932826
 H    2.839849    2.875112   -0.789708
 H    0.504913    3.480002   -1.228120
 H    4.263768    1.770312    0.620647
