33 
3mtw_ligand_dft.xyz
 C    2.107790    2.684661    0.036785
 P    0.610902    1.701087    0.264632
 O   -0.427406    2.556694   -0.597632
 O    0.276953    1.368969    1.674560
 N    0.761842    0.250066   -0.616718
 C    1.301544   -0.917382    0.057857
 C    2.813051   -0.996835   -0.103757
 O    3.348661   -1.976365    0.644084
 C    0.665687   -2.251349   -0.408180
 C   -0.857763   -2.207444   -0.558483
 C   -1.598028   -1.686986    0.680723
 N   -2.986510   -1.323234    0.389325
 C   -3.238881   -0.073631   -0.155776
 N   -2.389410    0.661418   -0.782476
 N   -4.538779    0.367249    0.032936
 O    3.474517   -0.290122   -0.827355
 H    2.955691    2.164522    0.487007
 H    2.311022    2.840939   -1.025397
 H    1.976157    3.653997    0.524169
 H   -1.324799    2.132937   -0.642417
 H    1.122900    0.364955   -1.558891
 H    1.100741   -0.785747    1.125640
 H    4.303926   -1.966829    0.471095
 H    1.096701   -2.543245   -1.374357
 H    0.963397   -3.024149    0.308912
 H   -1.110409   -1.589757   -1.424246
 H   -1.220283   -3.214172   -0.795426
 H   -1.619585   -2.468523    1.446017
 H   -1.082914   -0.822543    1.118878
 H   -3.628984   -1.558238    1.133355
 H   -1.478159    0.209353   -0.802126
 H   -4.749489    1.169647   -0.544676
 H   -5.251647   -0.347539   -0.022757
