55 
3mvm_ligand_xtb.xyz
 N   -3.120787    1.211230    0.997720
 N   -2.830741    2.235512    1.811629
 C   -1.614809    2.675409    1.725834
 N   -0.627825    2.227181    0.939284
 C   -0.904696    1.213724    0.133824
 C   -2.206487    0.640795    0.115891
 C   -2.862253   -0.376354   -0.574037
 C   -4.179049   -0.411760   -0.072539
 C   -4.296557    0.584979    0.895118
 C   -5.251644   -1.325102   -0.520670
 O   -5.264851   -1.865671   -1.612500
 N   -6.222641   -1.530051    0.402045
 C   -7.407849   -2.304440    0.123114
 C   -8.646766   -1.425233   -0.069953
 C   -9.041628   -0.682887    1.201876
 C   -2.297234   -1.266332   -1.627854
 N    0.055751    0.706915   -0.672042
 C    1.400027    1.114781   -0.719835
 C    1.766846    2.435868   -1.001045
 C    3.123046    2.738304   -1.047560
 C    4.096879    1.781983   -0.834198
 C    3.726850    0.462904   -0.587271
 C    2.376614    0.142301   -0.551234
 C    4.695868   -0.653979   -0.392729
 O    4.454687   -1.793682   -0.700371
 N    5.877987   -0.255379    0.195948
 C    6.941479   -1.071017    0.502343
 N    7.025295   -2.339458    0.189634
 O    8.215208   -2.782339    0.658128
 C    8.860558   -1.781239    1.258007
 C    8.112251   -0.648539    1.201633
 C    0.751030    3.489315   -1.290620
 H   -1.364609    3.501031    2.376334
 H   -5.133510    0.912419    1.478918
 H   -6.173747   -1.053822    1.286338
 H   -7.575164   -3.012202    0.941701
 H   -7.202101   -2.859955   -0.794798
 H   -9.472058   -2.063964   -0.388661
 H   -8.447539   -0.708721   -0.868793
 H   -9.196134   -1.382863    2.020763
 H   -8.272702    0.028870    1.494338
 H   -9.965229   -0.131051    1.045464
 H   -1.837485   -0.683308   -2.425935
 H   -1.553516   -1.948870   -1.211921
 H   -3.102847   -1.856718   -2.055402
 H   -0.133771   -0.211848   -1.047463
 H    3.420050    3.751956   -1.274084
 H    5.137095    2.063029   -0.914632
 H    2.098612   -0.887082   -0.376397
 H    5.961647    0.703087    0.500882
 H    9.822816   -1.998256    1.676537
 H    8.334748    0.324784    1.584146
 H   -0.030669    3.098457   -1.940056
 H    0.277818    3.806035   -0.361498
 H    1.213807    4.349967   -1.765935
