54 
3mw1_ligand_dft.xyz
 C    6.405102    0.066314    0.120044
 C    5.799709    0.785103    1.139705
 C    4.413104    0.879237    1.146075
 C    3.620310    0.269560    0.167576
 C    4.291449   -0.426263   -0.838934
 C    5.672154   -0.548121   -0.882095
 F    7.740935   -0.038439    0.095446
 F    3.585699   -1.005164   -1.818841
 C    2.142828    0.418256    0.186074
 C    1.300372   -0.656129    0.261042
 C   -0.137838   -0.443910    0.266504
 N   -0.570286    0.867334    0.210424
 C    0.264166    1.946346    0.115455
 C    1.606962    1.759012    0.129704
 C    1.693021   -2.055269    0.324704
 C    0.778403   -3.036410    0.341014
 N   -0.604923   -2.832000    0.245629
 C   -1.026084   -1.471928    0.251368
 C   -2.474529   -1.229198    0.067811
 C   -3.311340   -0.828890    1.119418
 C   -4.660578   -0.543560    0.944401
 C   -5.216167   -0.656513   -0.324062
 C   -4.427075   -1.040257   -1.402289
 C   -3.079595   -1.314885   -1.195883
Cl   -2.112519   -1.741949   -2.581980
Cl   -2.651045   -0.643761    2.729459
 O   -1.258685   -3.569979    1.283754
 C   -0.403310    3.296298   -0.027448
 C   -1.024591    3.502982   -1.426592
 C   -2.248195    2.603928   -1.690405
 N   -2.895397    2.245890   -0.423875
 C   -2.912375    3.347193    0.532311
 C   -1.482525    3.568033    1.061325
 H    6.406988    1.252108    1.906318
 H    3.918001    1.433428    1.937911
 H    6.156920   -1.096733   -1.680252
 H    2.280619    2.604297    0.049632
 H    2.744157   -2.316614    0.353732
 H    1.048776   -4.083133    0.422818
 H   -5.264055   -0.246363    1.794579
 H   -6.270882   -0.447514   -0.473172
 H   -4.846908   -1.126274   -2.398203
 H   -1.019237   -3.108798    2.109499
 H    0.396168    4.035038    0.083485
 H   -0.270491    3.337323   -2.201440
 H   -1.323790    4.555836   -1.495027
 H   -1.942074    1.674514   -2.183142
 H   -2.936569    3.128179   -2.371615
 H   -1.576901    1.072280    0.134169
 H   -3.819335    1.858847   -0.582075
 H   -3.579525    3.080409    1.356787
 H   -3.303878    4.276720    0.083929
 H   -1.388671    4.598652    1.419360
 H   -1.304979    2.913005    1.919930
