53 
3mwu_ligand_xtb.xyz
 N    0.227731    2.931615   -1.520107
 C   -1.010388    3.222970   -1.163516
 N   -1.834993    2.512192   -0.416983
 C   -1.286652    1.366347   -0.006474
 C    0.009984    0.904909   -0.324661
 C    0.781205    1.785072   -1.117352
 N    2.027890    1.517000   -1.532981
 N   -1.862534    0.419149    0.764976
 N   -1.029476   -0.633378    0.937746
 N   -6.355705   -1.852636   -0.459154
 C    6.289987   -1.449664   -1.042103
 C    5.157130   -2.157137   -1.468852
 C    3.611969    0.938477    2.186256
 C    2.469039    0.257244    1.750963
 C    6.173644   -0.517547   -0.051363
 C    4.816745    0.699970    1.589597
 C    3.933446   -1.915147   -0.910069
 C   -6.647864   -0.420464   -0.174141
 C   -4.991348   -2.032677   -1.030647
 C   -5.638786    0.111658    0.833130
 C   -3.966313   -1.529279   -0.028299
 C    1.235739   -1.321624    0.287049
 C   -3.179257    0.445804    1.321371
 C    2.519840   -0.657268    0.726594
 C    0.092651   -0.367034    0.309157
 C    4.926909   -0.248258    0.552144
 C    3.769464   -0.951552    0.111266
 C   -4.214702   -0.056288    0.302637
 H   -1.395088    4.164393   -1.532302
 H    2.515135    2.251399   -2.018614
 H    2.558483    0.771377   -1.111430
 H   -7.061968   -2.238733   -1.094264
 H   -6.400056   -2.371515    0.427198
 H    7.247755   -1.653155   -1.495860
 H    5.257957   -2.902830   -2.243258
 H    3.527492    1.651926    2.991658
 H    1.523750    0.458718    2.234325
 H    7.038996    0.027876    0.295381
 H    5.705321    1.223415    1.909245
 H    3.085128   -2.489243   -1.250470
 H   -7.665987   -0.334258    0.209271
 H   -6.576640    0.134741   -1.111193
 H   -4.932703   -1.462036   -1.959244
 H   -4.835858   -3.088943   -1.255529
 H   -5.745080   -0.413912    1.784787
 H   -5.846330    1.165460    1.014575
 H   -2.964441   -1.652955   -0.437938
 H   -4.009943   -2.124260    0.886782
 H    0.998972   -2.157505    0.950428
 H    1.331156   -1.711294   -0.728744
 H   -3.407336    1.479163    1.592927
 H   -3.179369   -0.182739    2.214832
 H   -4.094405    0.546255   -0.603169
