65 
3mww_ligand_dft.xyz
 C    3.304526    3.043974   -0.147625
 C    1.977955    2.666857   -0.327559
 C    1.683803    1.305081   -0.320349
 C    2.674104    0.317084   -0.113125
 C    4.007335    0.727872    0.050591
 C    4.312604    2.073602    0.019326
 N    0.481964    0.667028   -0.502371
 C    0.685243   -0.699376   -0.367437
 C    2.012533   -0.961089   -0.138190
 C    2.622566   -2.316217    0.077733
 C    3.618865   -2.690077   -1.035367
 C    4.211245   -4.084209   -0.814919
 C    4.860995   -4.201873    0.566549
 C    3.867255   -3.844598    1.675300
 C    3.276070   -2.448220    1.465795
 C   -0.439160   -1.639470   -0.423426
 C   -1.505184   -1.794958    0.534852
 C   -2.240658   -2.854334    0.108265
 O   -1.726019   -3.358880   -1.041201
 C   -0.640228   -2.618862   -1.347489
 C    3.715194    4.482122   -0.154028
 O    4.802674    4.866922   -0.497125
 O    2.777488    5.371809    0.254510
 C   -0.771272    1.290724   -0.800079
 C   -1.596611    1.565660    0.467735
 O   -1.143898    1.312820    1.571175
 N   -2.845649    2.094000    0.279919
 C   -3.534075    2.070626   -1.005527
 C   -4.324503    0.768749   -1.159703
 C   -5.296409    0.593394    0.022564
 C   -4.573999    0.755990    1.375745
 C   -3.764629    2.054199    1.414519
 C   -6.050278   -0.730345   -0.032211
 O   -5.286921   -1.844879   -0.075997
 O   -7.248258   -0.817522   -0.016951
 H    1.198363    3.404654   -0.500362
 H    4.797075   -0.001753    0.196771
 H    5.336017    2.414382    0.130937
 H    1.806866   -3.052298    0.038433
 H    4.430494   -1.950493   -1.064948
 H    3.115333   -2.634960   -2.008186
 H    4.940888   -4.310544   -1.600941
 H    3.411342   -4.833736   -0.900900
 H    5.721460   -3.519488    0.619519
 H    5.251714   -5.214751    0.717325
 H    4.352867   -3.902591    2.656173
 H    3.053601   -4.583982    1.681749
 H    2.532219   -2.223770    2.238585
 H    4.071597   -1.698933    1.572144
 H   -1.639581   -1.209200    1.433430
 H   -3.087624   -3.388061    0.513979
 H   -0.103587   -2.901248   -2.240290
 H    2.053139    4.900027    0.686660
 H   -1.330078    0.628259   -1.468873
 H   -0.590934    2.220179   -1.350599
 H   -2.827638    2.206811   -1.825336
 H   -4.214363    2.929979   -1.034075
 H   -3.605168   -0.061722   -1.202706
 H   -4.877166    0.766923   -2.105158
 H   -6.070142    1.364855   -0.050855
 H   -3.884178   -0.080945    1.544329
 H   -5.306570    0.740465    2.189283
 H   -4.426699    2.925627    1.350328
 H   -3.180586    2.126263    2.330965
 H   -4.343118   -1.623138   -0.097139
