55 
3mxr_ligand_dft.xyz
 C    3.436553    0.807623   -0.255070
 N    1.089627    0.779255    0.244351
 O    3.655852    0.726503   -1.454870
 C    2.267783    1.642545    0.302027
 C    2.054915    2.910439   -0.524652
 C   -4.167791   -2.166664   -1.947884
 O    1.628625   -0.595667    1.976650
 O   -3.815560   -0.767363    1.316805
 O   -1.419068   -0.192096    2.609721
 O   -4.037547    1.083756   -0.772616
 O    4.428485   -2.914848   -1.498200
 O    2.802166   -2.494030    0.089679
 C   -2.443543    2.129472    0.705144
 C   -2.155363    2.180319   -1.689606
 C   -1.247276    2.821152    0.852945
 C   -0.966780    2.883815   -1.522107
 C   -3.908604   -2.794776   -0.581052
 C    0.893462    3.817184   -0.073210
 C    4.939369   -1.025532    0.231145
 C   -1.396075   -2.773909   -0.416734
 C   -0.419640   -1.623059   -0.545216
 N    4.134423    0.112322    0.676744
 C    0.874903   -0.245869    1.079320
 C   -2.767035   -1.291419    0.954883
 C   -1.434857   -0.776839    1.551935
 B    4.025220   -2.175191   -0.427912
 C   -2.895455    1.787147   -0.571245
 C   -0.478771    3.200443   -0.248717
 N   -2.690104   -2.277196    0.037464
 N   -0.329937   -0.958486    0.755956
 H    0.357394    1.028881   -0.406452
 H    2.444951    1.896966    1.353794
 H    2.990059    3.479075   -0.480771
 H    1.931191    2.617188   -1.573028
 H   -3.355346   -2.385025   -2.650403
 H   -5.092412   -2.566963   -2.375149
 H   -4.262426   -1.081259   -1.854524
 H   -4.262104    0.606906    0.048353
 H    5.244644   -2.579843   -1.880365
 H    2.574211   -1.999387    0.891874
 H   -3.000798    1.809187    1.579833
 H   -2.523094    1.926991   -2.678920
 H   -0.887506    3.029819    1.857000
 H   -0.396262    3.170988   -2.403033
 H   -3.805947   -3.882789   -0.658333
 H   -4.729427   -2.578647    0.103958
 H    1.036356    4.094403    0.978063
 H    0.960449    4.747134   -0.650818
 H    5.477016   -1.411609    1.104732
 H    5.697671   -0.653849   -0.465528
 H   -1.532995   -3.245453   -1.392534
 H   -1.003575   -3.528816    0.275445
 H   -0.759894   -0.926425   -1.324512
 H    0.573415   -1.999183   -0.804110
 H    3.711862    0.053932    1.594613
