41 
3myq_ligand_dft.xyz
 N   -1.477985    5.036635   11.854492
 C   -2.020383    5.044074   10.590843
 N   -1.713983    6.114393    9.903467
 C   -0.932198    6.853997   10.765831
 C   -0.313061    8.116483   10.583462
 N    0.385440    8.689439   11.526760
 C    0.527959    8.049571   12.738755
 C   -0.040380    6.782294   13.048154
 C   -0.784818    6.205062   11.987821
 C    1.289347    8.700991   13.735901
 C    1.474111    8.125477   14.970909
 C    0.905439    6.869395   15.266658
 C    0.159641    6.206351   14.320679
 S   -2.953946    3.681112    9.977899
 C   -4.447238    3.789586   11.006233
 C   -4.317932    3.299676   12.445518
 O   -3.239702    3.105905   12.974811
 C   -5.581089    3.079785   13.216014
 C   -5.467203    2.544123   14.501368
 C   -6.590777    2.315111   15.280584
 C   -7.857752    2.635172   14.772109
 C   -7.978104    3.176816   13.496068
 C   -6.847713    3.395068   12.721217
 S   -6.429021    1.614192   16.929258
 O   -7.026429    0.292039   16.902271
Cl   -9.305058    2.378975   15.686913
 O   -6.832137    2.633091   17.880510
 N   -4.779454    1.416731   17.077923
 H   -0.413188    8.640537    9.634895
 H    1.717574    9.666260   13.486630
 H    2.061526    8.638792   15.726069
 H    1.058713    6.425009   16.245325
 H   -0.278168    5.237717   14.547950
 H   -4.818153    4.821474   11.011841
 H   -5.198249    3.187587   10.484168
 H   -4.485006    2.303846   14.890093
 H   -8.963045    3.424140   13.117079
 H   -6.974607    3.822930   11.732406
 H   -4.418044    1.985824   17.836262
 H   -4.542689    0.434906   17.175820
 H   -1.651238    4.298433   12.526033
