29 
3n1c_ligand_dft.xyz
 O    0.063115   -2.549420   -0.771126
 C    1.057590   -1.580954   -0.994932
 C    1.409396   -0.910675    0.341488
 O    1.582269   -1.886514    1.294574
 C    2.594582    0.054046    0.303014
 O    3.688678   -0.355937   -0.477193
 C    1.983309    1.324830   -0.272901
 O    2.629239    2.515911    0.096291
 C    0.564570    1.304429    0.313467
 O    0.337456   -0.033958    0.762556
 C   -0.517294    1.697367   -0.682594
 O   -1.816711    1.536278   -0.115126
 P   -2.472074    0.069399   -0.004078
 O   -2.214749   -0.431253    1.477251
 O   -4.030372    0.391013    0.076097
 O   -2.082159   -0.833000   -1.118638
 H   -0.800171   -2.094856   -0.860386
 H    0.744184   -0.840386   -1.739076
 H    1.950871   -2.085740   -1.373231
 H    0.963875   -2.596303    1.036765
 H    2.885923    0.250952    1.345124
 H    4.092748   -1.114757   -0.037345
 H    1.952921    1.224146   -1.370175
 H    3.519087    2.486308   -0.277544
 H    0.523440    1.965201    1.185350
 H   -0.442766    1.099764   -1.597013
 H   -0.419091    2.755575   -0.935632
 H   -1.244322   -0.458475    1.615109
 H   -4.452641    0.208369   -0.773513
