29 
3n1c_ligand_xtb.xyz
 O    0.167471   -2.613682   -0.773850
 C    1.162703   -1.652173   -0.972547
 C    1.393310   -0.887953    0.350807
 O    1.535483   -1.801851    1.375008
 C    2.578942    0.095189    0.307375
 O    3.656325   -0.309264   -0.486140
 C    1.938156    1.369021   -0.264067
 O    2.540144    2.555852    0.156759
 C    0.503718    1.295229    0.275362
 O    0.260667   -0.050362    0.646109
 C   -0.568841    1.716798   -0.729046
 O   -1.847968    1.545197   -0.171458
 P   -2.419825    0.047806    0.001612
 O   -2.281509   -0.366323    1.515239
 O   -3.975110    0.313790   -0.021792
 O   -1.948156   -0.894271   -1.027619
 H   -0.696341   -2.157257   -0.838764
 H    0.910127   -0.952300   -1.773526
 H    2.083457   -2.181359   -1.235145
 H    0.954077   -2.553083    1.153345
 H    2.891979    0.283350    1.345544
 H    4.044247   -1.103225   -0.100084
 H    1.949275    1.292777   -1.361928
 H    3.462280    2.546049   -0.127093
 H    0.424747    1.922952    1.172540
 H   -0.482817    1.101519   -1.630979
 H   -0.465185    2.774730   -0.976355
 H   -1.360796   -0.516575    1.743666
 H   -4.324366    0.175982   -0.900768
