21 
3n1w_ligand_dft.xyz
Cl    3.092700   -2.152647   -0.157920
 C    2.142908   -0.686203   -0.070887
 C    0.781253   -0.749988   -0.287860
 C    0.034524    0.434767   -0.219285
 C    0.687394    1.644505    0.078108
 S   -0.435845    2.979994    0.115107
 C   -1.750466    1.913978   -0.275838
 C   -1.385537    0.618878   -0.424675
 C   -2.329311   -0.484567   -0.792209
 C   -2.550624   -1.505718    0.324194
 O   -2.008991   -1.485542    1.392649
 O   -3.426348   -2.489358    0.016311
 C    2.064939    1.693530    0.301739
 C    2.793901    0.520708    0.223175
 H    0.304097   -1.702866   -0.488171
 H   -2.748821    2.320901   -0.376011
 H   -1.956121   -1.026383   -1.673828
 H   -3.302558   -0.065847   -1.077138
 H   -3.776066   -2.367025   -0.876313
 H    2.561002    2.630537    0.532954
 H    3.864907    0.525630    0.390976
