35 
3n2p_ligand_xtb.xyz
 C    4.096187   -0.047917   -0.089367
 N    5.949495    1.177662    1.387210
 O    5.936881    1.533197   -1.113604
 S    5.790689    0.488565   -0.143564
 C    3.813123   -1.362402    0.222838
 O    6.651540   -0.657541   -0.203466
 C    2.496665   -1.774488    0.283499
 C    1.462908   -0.867521    0.036438
 C    1.765560    0.457560   -0.276909
 C    3.086894    0.859724   -0.339365
 N    0.155784   -1.351920    0.097776
 C   -1.018593   -0.638371   -0.009376
 O   -1.085358    0.557115   -0.140727
 N   -2.120072   -1.473563    0.053481
 C   -3.463018   -1.110805   -0.002065
 C   -3.894385    0.209985    0.066567
 C   -5.255147    0.473758    0.017862
 C   -6.201589   -0.535498   -0.098531
 C   -5.763304   -1.845415   -0.161380
 C   -4.411572   -2.131333   -0.112174
 N   -5.701742    1.846438    0.100908
 O   -6.888961    2.054956   -0.031690
 O   -4.869827    2.701265    0.302968
 H    6.148994    2.163261    1.332577
 H    6.635207    0.694729    1.944282
 H    4.629529   -2.043513    0.400183
 H    2.263994   -2.802995    0.521394
 H    0.968675    1.156096   -0.466858
 H    3.348188    1.873276   -0.595916
 H    0.093421   -2.343682    0.281192
 H   -1.959927   -2.470935    0.063930
 H   -3.191421    1.023379    0.148841
 H   -7.249320   -0.283381   -0.133769
 H   -6.477018   -2.649435   -0.249193
 H   -4.082173   -3.159744   -0.161348
