57 
3n2u_ligand_xtb.xyz
 C    3.017514    0.041836   -0.226122
 N   -0.548508    2.932769   -0.703141
 O    0.526256    2.515318    1.212093
 S   -2.708281    0.487835   -1.639793
 C    3.513484    0.692338    1.077684
 N   -1.281088    0.262767   -0.825731
 O   -2.935684    1.910502   -1.682029
 C   -0.304165    2.188568    0.369424
 O   -2.616563   -0.229048   -2.873470
 C    5.181172   -2.918442   -0.516553
 O    3.223697    2.059012    1.136953
 C    4.880528   -1.427918   -0.331954
 O    5.523504    1.023332    2.392426
 C    5.468024   -0.893788    0.977649
 O    6.863975   -1.008228    0.934617
 C    5.038571    0.564165    1.154473
 O   -6.617753   -2.108340    1.926803
 C    1.029858   -0.349931   -1.433306
 O    3.470187   -1.289818   -0.339726
 C   -0.400780   -0.820722   -1.172089
 O    4.672099   -3.406603   -1.726586
 C   -1.133829    0.912297    0.450503
 O    1.630732    0.022685   -0.200814
 C   -4.936971   -2.221659    0.319149
 O    0.127795    4.140865   -0.853315
 C   -3.941897   -0.251273   -0.586073
 C   -4.755957    0.541104    0.196920
 C   -4.027504   -1.632912   -0.530079
 C   -5.672340   -0.042306    1.055766
 C   -5.767931   -1.432113    1.126191
 C   -7.496815   -1.386755    2.761914
 H    3.392834    0.634190   -1.087247
 H   -1.342156    2.801311   -1.327835
 H    3.055982    0.148647    1.917643
 H    4.755261   -3.467225    0.334659
 H    6.261578   -3.062238   -0.536874
 H    2.257926    2.185693    1.207724
 H    5.313238   -0.861586   -1.171336
 H    5.084036    1.865500    2.566855
 H    5.060292   -1.478001    1.818974
 H    7.209859   -0.473852    1.661797
 H    5.472560    1.167703    0.339524
 H    1.025905    0.508194   -2.118687
 H    1.597372   -1.170712   -1.883077
 H   -0.803448   -1.251713   -2.089135
 H   -0.381367   -1.575932   -0.376367
 H    3.737009   -3.171755   -1.756231
 H   -2.127699    1.173022    0.830088
 H   -0.643270    0.243541    1.162667
 H   -5.034094   -3.293357    0.383095
 H    0.725002    4.178763   -0.078855
 H   -4.677087    1.613903    0.115035
 H   -3.389428   -2.224377   -1.166493
 H   -6.303683    0.590175    1.658387
 H   -6.949864   -0.770703    3.481614
 H   -8.073742   -2.138883    3.296926
 H   -8.175087   -0.756774    2.179367
