54 
3n3g_ligand_xtb.xyz
 N   -4.746311    0.449777   -0.223430
 C   -3.822901   -0.505141   -0.210881
 C   -4.138409   -1.829533   -0.539442
 C   -5.445632   -2.151564   -0.857823
 C   -6.411226   -1.158050   -0.851635
 C   -5.997037    0.136586   -0.532842
 C   -2.469688   -0.073875    0.156146
 C   -1.493613   -0.965653    0.591399
 C   -0.237136   -0.511040    0.945029
 C    0.095242    0.854018    0.870712
 C   -0.893227    1.741527    0.441818
 C   -2.145922    1.281892    0.097814
 O    1.343866    1.181135    1.240886
 C    1.713579    2.545015    1.369087
 C    2.109478    3.201362    0.044702
 C    3.507646    2.757200   -0.433666
 N    3.660263    1.369075   -0.778807
 C   -6.946855    1.196583   -0.533652
 N   -7.735866    2.026397   -0.546980
 C    0.808121   -1.468716    1.441139
 F    1.874404   -1.534833    0.626601
 F    0.346894   -2.727837    1.540962
 F    1.274936   -1.149557    2.657711
 C    5.004778   -1.214212    1.085844
 N    4.807948   -0.667028   -2.396868
 C    3.371514   -0.508628   -2.307067
 C    2.991860    0.934061   -1.981613
 C    4.788944   -0.419844    2.113854
 C    5.201981   -1.995225   -2.809810
 H   -3.373880   -2.588854   -0.561397
 H   -5.711398   -3.167180   -1.112161
 H   -7.443340   -1.362764   -1.088569
 H   -1.707838   -2.018083    0.689123
 H   -0.688448    2.797612    0.376023
 H   -2.905740    1.975670   -0.226047
 H    2.574909    2.525589    2.042957
 H    0.905635    3.103227    1.856264
 H    2.114872    4.283206    0.186578
 H    1.372974    2.962050   -0.724033
 H    4.231643    2.979850    0.356690
 H    3.777223    3.352576   -1.312355
 H    3.415298    0.764125   -0.002987
 H    5.255727   -0.833877    0.109168
 H    4.923897   -2.285643    1.177781
 H    5.189939    0.026287   -3.033255
 H    3.020988   -1.164463   -1.505540
 H    2.853177   -0.804970   -3.240117
 H    3.314681    1.592633   -2.797139
 H    1.887166    0.987428   -1.925377
 H    4.523078   -0.794538    3.089512
 H    4.870461    0.651905    2.026960
 H    6.288382   -2.046263   -2.855328
 H    4.850145   -2.709044   -2.064463
 H    4.792209   -2.293632   -3.788909
