37 
3n45_ligand_xtb.xyz
 N   -1.183571    0.015511   -0.783909
 C   -1.058197    1.466717   -0.739071
 C   -2.341415    1.970462   -0.039470
 C   -3.082931    0.704400    0.280496
 C   -2.362529   -0.402840   -0.166658
 C   -2.833840   -1.689485    0.013854
 C   -4.053974   -1.845485    0.656838
 C   -4.777108   -0.751621    1.101417
 C   -4.293000    0.537750    0.916912
 C    0.189688    1.878409    0.037036
 O    0.833670    2.863870   -0.191353
 O    0.454625    1.042879    1.041671
 C   -0.150208   -0.770699   -1.184288
 O   -0.119582   -1.973589   -1.141212
 O    0.843801    0.010218   -1.674712
 C    2.109416   -0.628296   -1.874168
 C    2.884621   -0.580336   -0.584054
 C    3.533617    0.590143   -0.209029
 C    4.172154    0.670744    1.016459
 C    4.164811   -0.416080    1.876031
 C    3.514120   -1.581729    1.508457
 C    2.872074   -1.663395    0.284647
 H   -0.957695    1.872450   -1.751602
 H   -2.108208    2.534066    0.866375
 H   -2.919397    2.620778   -0.697136
 H   -2.263985   -2.535661   -0.330506
 H   -4.443244   -2.840431    0.811465
 H   -5.724504   -0.899260    1.597094
 H   -4.853412    1.392518    1.264763
 H    1.268348    1.304389    1.502019
 H    2.600300   -0.053410   -2.661832
 H    1.942439   -1.659773   -2.198788
 H    3.526841    1.440730   -0.874814
 H    4.676209    1.583087    1.300470
 H    4.664990   -0.353162    2.831397
 H    3.503055   -2.428886    2.177826
 H    2.349351   -2.565004    0.003015
