53 
3n51_ligand_dft.xyz
 N   -0.239729    2.975482   -1.596304
 C   -1.488277    3.122707   -1.140385
 N   -2.169280    2.344174   -0.303414
 C   -1.437425    1.284047    0.073904
 C   -0.140775    0.962795   -0.334456
 C    0.467532    1.907245   -1.198655
 N    1.721032    1.774460   -1.672864
 N   -1.836494    0.289863    0.905421
 N   -0.880079   -0.679615    1.025902
 N   -6.295773   -1.884495   -0.610443
 C    6.456834   -1.671396   -0.870933
 C    5.290249   -2.360684   -1.269254
 C    3.793745    1.263343    1.919345
 C    2.617822    0.599100    1.504542
 C    6.361886   -0.618855    0.000481
 C    5.009298    0.876559    1.426238
 C    4.059358   -1.979186   -0.799230
 C   -6.672112   -0.635660    0.153402
 C   -4.958310   -1.770961   -1.309057
 C   -5.584578   -0.306967    1.165208
 C   -3.878511   -1.443524   -0.291568
 C    1.374318   -1.132657    0.164998
 C   -3.126934    0.151112    1.526349
 C    2.655606   -0.444280    0.608113
 C    0.145110   -0.289344    0.295640
 C    5.104393   -0.202919    0.509832
 C    3.921481   -0.884698    0.097976
 C   -4.213961   -0.171070    0.494377
 H   -2.011393    4.004354   -1.503392
 H    2.093904    2.559665   -2.186734
 H    2.377796    1.165362   -1.204599
 H   -7.027055   -2.109670   -1.290550
 H   -6.258132   -2.672904    0.043926
 H    7.424440   -1.982322   -1.251720
 H    5.370698   -3.202492   -1.950114
 H    3.721476    2.083610    2.626327
 H    1.662845    0.928711    1.903283
 H    7.253652   -0.086981    0.320913
 H    5.918926    1.385931    1.732166
 H    3.184172   -2.540023   -1.109565
 H   -7.642347   -0.822834    0.618193
 H   -6.780792    0.154580   -0.594073
 H   -5.072126   -0.976064   -2.050981
 H   -4.785099   -2.717999   -1.824271
 H   -5.555736   -1.083827    1.942572
 H   -5.867002    0.625168    1.664611
 H   -2.932795   -1.324759   -0.828061
 H   -3.736800   -2.290833    0.393918
 H    1.220623   -2.058030    0.731894
 H    1.461985   -1.421616   -0.889235
 H   -3.377289    1.084722    2.040366
 H   -3.033637   -0.644583    2.270866
 H   -4.248524    0.675506   -0.205038
