25 
3n5j_ligand_dft.xyz
Cl    1.285148   75.340940   29.771970
 C    2.878842   75.917051   29.363382
 C    3.913634   74.997748   29.159065
 N    3.920678   73.638639   29.224128
 C    5.196546   73.189428   28.945340
 C    6.027384   74.258517   28.696936
 C    5.215651   75.432006   28.827141
 C    5.483877   76.803438   28.689722
 C    4.447928   77.685367   28.901430
 C    3.145220   77.261897   29.237476
Cl    4.731848   79.404259   28.745151
 C    7.489677   74.213347   28.395310
 C    7.844132   74.765178   27.029892
 O    7.094553   75.305795   26.255257
 O    9.155274   74.593542   26.776489
 C    5.504349   71.756641   28.947196
 O    6.587605   71.263121   28.728812
 O    4.410369   71.016511   29.230074
 H    6.467338   77.159365   28.407001
 H    2.359554   77.991895   29.391308
 H    8.054032   74.798886   29.133332
 H    7.863147   73.188473   28.461275
 H    9.315467   74.973730   25.897944
 H    4.692497   70.088416   29.210322
 H    3.134250   73.044808   29.435045
