31 
3n6k_ligand_xtb.xyz
 O   -1.288268    3.576677    0.408184
 C   -1.017276    2.277119    0.604127
 O   -0.667204    1.857171    1.664202
 C   -1.207596    1.405012   -0.640280
 N   -0.930651    0.024066   -0.359080
 C   -1.924238   -0.913826   -0.154862
 C   -1.334452   -2.124169    0.158187
 C    0.055018   -1.920396    0.157845
 C    1.119159   -2.821806    0.373377
 C    2.387331   -2.354375    0.282820
 C    2.662103   -0.984068    0.009828
 C    3.997468   -0.551013   -0.051739
 C    4.312316    0.761891   -0.281978
 C    3.287300    1.694618   -0.442082
 C    1.972826    1.303298   -0.395458
 C    1.612743   -0.040822   -0.188910
 C    0.284963   -0.558594   -0.140090
 C   -3.354260   -0.646479   -0.320075
 O   -4.172898   -1.606361    0.140063
 O   -3.825501    0.339467   -0.841706
 H   -1.638390    3.767445   -0.472269
 H   -0.578500    1.759947   -1.463676
 H   -2.258802    1.473765   -0.950418
 H   -1.815989   -3.068358    0.332922
 H    0.905196   -3.856207    0.594941
 H    3.229017   -3.015370    0.428361
 H    4.780772   -1.280920    0.094830
 H    5.342990    1.080383   -0.325411
 H    3.529831    2.735534   -0.596698
 H    1.220165    2.065909   -0.489781
 H   -3.691198   -2.324562    0.570559
