31 
3n7h_ligand_xtb.xyz
 C   -0.571040    0.122241   -0.584592
 C   -1.298664   -0.890992    0.024820
 C   -1.205933    1.302032   -0.949505
 C   -2.651780   -0.733262    0.296151
 C   -3.268334    0.460205   -0.057470
 C   -2.552560    1.468011   -0.679336
 C   -3.427677   -1.842380    0.939326
 C    0.873171   -0.083423   -0.931307
 C    3.640755   -1.536974    0.172562
 C    1.390156    0.463780    1.422733
 C    3.169714   -0.132722   -0.195238
 C    1.361534    1.985234    1.567307
 N    1.757651    0.050075    0.085905
 O    1.216165   -0.358376   -2.066882
 H   -0.805837   -1.818036    0.285272
 H   -0.645641    2.079389   -1.447926
 H   -4.320082    0.597741    0.149536
 H   -3.047623    2.386812   -0.957789
 H   -3.693489   -2.590666    0.192292
 H   -2.835572   -2.334914    1.708102
 H   -4.345398   -1.467478    1.385911
 H    3.488814   -1.735984    1.231636
 H    3.085529   -2.272275   -0.403925
 H    4.698447   -1.644078   -0.052305
 H    0.406946    0.059398    1.671871
 H    2.119363    0.040115    2.118182
 H    3.307973    0.026428   -1.267307
 H    3.741125    0.619514    0.355136
 H    2.322831    2.415806    1.296938
 H    0.597617    2.408235    0.919949
 H    1.136071    2.255971    2.595443
