43 
3n7o_ligand_dft.xyz
 C   -3.011874    0.394101    0.189602
 C   -5.745563   -2.137198   -0.529340
 C    2.200601    1.188528    1.710996
 C    3.742659   -0.757021    1.717447
 C    4.974695   -2.609457    0.841351
 C    3.210202   -0.482004    0.444979
 C    0.930671    3.522247   -2.390177
 P    1.364358    2.992892   -0.725368
 O    0.386332    3.334491    0.351779
 O    2.842631    3.634349   -0.576142
 C    1.664411    1.182367   -0.797019
 C    0.400233    0.364016   -1.106448
 O    0.420161   -0.540863   -1.921054
 N   -0.699753    0.711397   -0.375186
 C   -1.913812    0.039910   -0.487526
 C   -4.313433   -0.281010    0.111539
 C   -4.489658   -1.546222   -0.465337
 C   -6.844516   -1.476489   -0.005814
 F   -8.060727   -2.030483   -0.051171
 C   -6.684230   -0.227779    0.582163
 F   -7.752759    0.396395    1.088992
 C   -5.437264    0.365828    0.643518
 C    2.333716    0.671291    0.461049
 S    3.137285    0.358774    2.914088
 C    4.630909   -1.815668    1.920324
 C    4.422357   -2.350838   -0.422307
Cl    4.858585   -3.391988   -1.756390
 C    3.544761   -1.307368   -0.639413
 H   -2.964887    1.262749    0.845169
 H   -5.886007   -3.116015   -0.974742
 H    1.570876    2.020632    2.002374
 H    5.663115   -3.437752    0.965470
 H    0.794221    4.606592   -2.390533
 H    1.712478    3.253728   -3.104587
 H   -0.010112    3.047179   -2.681031
 H    3.223246    3.442118    0.293911
 H    2.334785    1.008507   -1.644790
 H   -0.633527    1.531398    0.225443
 H   -1.874874   -0.789160   -1.185183
 H   -3.637959   -2.090174   -0.859713
 H   -5.352887    1.343984    1.106475
 H    5.045781   -2.017991    2.902274
 H    3.095329   -1.155951   -1.615072
