43 
3n7o_ligand_xtb.xyz
 C   -2.748138    0.331386    0.182403
 C   -5.717451   -1.556912   -1.157289
 C    2.214334    1.162067    1.708072
 C    3.454863   -0.972127    1.718864
 C    4.468415   -2.935861    0.841426
 C    3.056540   -0.572522    0.429689
 C    0.991491    3.677034   -2.262602
 P    1.389063    3.092151   -0.581750
 O    0.378785    3.381186    0.449963
 O    2.799440    3.787999   -0.249314
 C    1.825466    1.311632   -0.797104
 C    0.569281    0.594061   -1.277928
 O    0.516853   -0.019055   -2.320322
 N   -0.469936    0.710809   -0.411067
 C   -1.704527    0.136162   -0.630423
 C   -4.072460   -0.235874    0.026832
 C   -4.441336   -1.042013   -1.054523
 C   -6.657397   -1.278086   -0.179594
 F   -7.899338   -1.782205   -0.284363
 C   -6.308613   -0.478345    0.901089
 F   -7.211974   -0.199192    1.857701
 C   -5.033534    0.037676    1.003996
 C    2.347331    0.676640    0.451194
 S    2.940764    0.170895    2.924565
 C    4.160808   -2.148004    1.928982
 C    4.065199   -2.550105   -0.439283
Cl    4.459352   -3.570642   -1.776449
 C    3.364514   -1.384524   -0.662786
 H   -2.613004    0.971805    1.044557
 H   -6.003691   -2.178067   -1.991118
 H    1.718725    2.061578    2.017321
 H    5.016824   -3.854896    0.970812
 H    0.649442    4.706856   -2.186830
 H    1.868520    3.623593   -2.899564
 H    0.194779    3.065872   -2.678580
 H    2.731297    4.281685    0.570126
 H    2.578755    1.238711   -1.586606
 H   -0.370554    1.335565    0.381005
 H   -1.732135   -0.482083   -1.514997
 H   -3.725451   -1.268452   -1.826953
 H   -4.794142    0.655781    1.855303
 H    4.459349   -2.436140    2.924309
 H    3.046168   -1.115319   -1.657235
