16 
3n8k_ligand_dft.xyz
 O    2.844623   -1.010295    0.508174
 O   -2.021446    2.341898    0.180611
 O    2.910623    0.954373   -0.521998
 O   -2.059716   -2.245482   -0.145839
 C    0.036232   -1.176163   -0.105567
 C    0.111711    1.262711    0.033711
 N   -1.963600    0.074016    0.033414
 C    2.254510    0.064223   -0.054999
 C   -1.326844   -1.122892   -0.076772
 C    0.746023    0.059047   -0.041574
 C   -1.330757    1.343725    0.086930
 H    2.183910   -1.558470    0.953673
 H   -2.991418   -2.053985   -0.309498
 H    0.517767   -2.131144   -0.272970
 H    0.669320    2.189973    0.065676
 H   -2.972305    0.127653    0.111265
