40 
3n8n_ligand_xtb.xyz
 C   -3.569137   -1.218251    0.297370
 C   -2.507485   -0.291438   -0.296419
 O   -4.058823   -1.107121    1.386657
 C   -2.640277    1.107295    0.306853
 O   -3.862079   -2.228523   -0.531677
 C   -1.480372    1.983950   -0.152661
 O   -1.518306    3.274787    0.429805
 C   -0.126984    1.377958    0.247692
 O    0.907126    2.217811   -0.221366
 C    0.017538   -0.027096   -0.347399
 C   -1.150096   -0.906807    0.094183
 C    1.334273   -0.696694    0.088357
 N    2.422839   -0.062873   -0.374064
 C    3.803741   -0.404085   -0.029917
 C    3.997604   -0.312384    1.486435
 C    4.105089   -1.822013   -0.519982
 C    4.703041    0.605404   -0.741643
 O    1.344571   -1.717283    0.748302
 O   -2.646527   -0.184158   -1.694412
 H   -3.586158    1.545367   -0.020061
 H   -2.647925    1.029518    1.394361
 H   -4.504964   -2.827178   -0.119561
 H   -1.509563    2.069472   -1.249896
 H   -2.390305    3.655026    0.284586
 H   -0.084374    1.320722    1.347242
 H    0.642458    3.120551   -0.001506
 H    0.021294    0.069230   -1.437974
 H   -1.108392   -1.040883    1.176045
 H   -1.044337   -1.891236   -0.366253
 H    2.273801    0.857669   -0.761773
 H    3.763768    0.691314    1.835081
 H    5.024954   -0.546864    1.751577
 H    3.336122   -1.017705    1.981334
 H    3.962690   -1.886540   -1.596314
 H    3.434403   -2.525786   -0.036507
 H    5.131164   -2.090341   -0.283901
 H    4.549825    0.558527   -1.817489
 H    5.747052    0.388737   -0.532291
 H    4.484996    1.615396   -0.400919
 H   -2.705674   -1.074014   -2.063026
