29 
3n9r_ligand_dft.xyz
 O   -0.523686    3.379604   -0.025163
 N    0.159843    2.235169    0.366468
 C   -0.696419    1.265613    1.008723
 C   -1.668382    0.582475    0.045735
 C   -2.443181   -0.533866    0.747772
 C   -3.376206   -1.288497   -0.185242
 O   -4.300712   -0.370346   -0.726123
 C    1.387184    2.098868   -0.170483
 O    1.873903    3.009511   -0.842971
 C    2.150297    0.814104    0.114594
 O    1.541997   -0.264369   -0.611070
 P    1.333558   -1.698060    0.091402
 O    2.644623   -2.555865   -0.209343
 O    0.289588   -2.363755   -0.925178
 O    0.990513   -1.629886    1.519383
 H    0.161840    3.832209   -0.562498
 H   -1.244068    1.796015    1.794432
 H   -0.059052    0.524882    1.497995
 H   -1.091122    0.183447   -0.800529
 H   -2.360497    1.316749   -0.373341
 H   -3.041601   -0.109710    1.562911
 H   -1.745867   -1.248129    1.207250
 H   -3.882548   -2.091324    0.371327
 H   -2.792869   -1.774337   -0.991134
 H   -4.909062   -0.849785   -1.299055
 H    2.176941    0.587040    1.184690
 H    3.163922    0.959989   -0.260329
 H    2.820537   -2.658084   -1.154799
 H   -0.568391   -1.915590   -0.916106
