43 
3nc4_ligand_xtb.xyz
 C    0.555108    1.107488   -0.326963
 C    1.363047    0.776896   -1.595952
 O    0.513742    0.385557   -2.652012
 C    2.316321   -0.382223   -1.296708
 O    3.191431   -0.630003   -2.369404
 C    3.167583   -0.059339   -0.060005
 O    3.935951   -1.166244    0.316522
 C    2.252220    0.327641    1.107815
 O    1.415331    1.413733    0.742733
 C    3.054087    0.771660    2.334862
 O    2.227598    1.014994    3.435635
 N   -0.311346    2.222162   -0.580258
 C   -1.582936    2.279320   -0.059482
 N   -2.260462    1.173918    0.074030
 S   -2.470882    3.687366   -0.016312
 N   -2.731251    0.452697    0.950926
 C   -3.519829   -0.664332    0.489073
 C   -2.531296   -1.805299    0.396041
 C   -1.687360   -1.874667   -0.719695
 C   -0.723622   -2.872758   -0.793563
 C   -0.587384   -3.788779    0.233822
 C   -1.415841   -3.719145    1.340318
 C   -2.377225   -2.726140    1.418983
 O   -1.840445   -0.947693   -1.700999
 H   -0.067972    0.233856   -0.071820
 H    1.952561    1.660775   -1.884558
 H   -0.162704    1.067713   -2.760204
 H    1.715753   -1.282553   -1.083414
 H    2.669780   -0.655688   -3.180334
 H    3.816201    0.797115   -0.307048
 H    4.395765   -1.477841   -0.474088
 H    1.633064   -0.542813    1.375714
 H    3.630441    1.668456    2.067824
 H    3.737977   -0.029746    2.616611
 H    1.552773    1.649754    3.165001
 H    0.143397    3.122843   -0.651127
 H   -4.274669   -0.869870    1.247728
 H   -3.972497   -0.478016   -0.489629
 H   -0.081485   -2.922962   -1.663142
 H    0.171085   -4.553687    0.168713
 H   -1.309462   -4.431241    2.143328
 H   -3.017704   -2.660858    2.285251
 H   -1.122874   -1.019224   -2.347798
