42 
3ncr_ligand_dft.xyz
 P    2.684620   -1.339069    0.361117
 O    3.209126   -2.697354    0.115476
 O    3.000874   -0.211725   -0.724659
 O    3.022217   -0.663602    1.729050
 P    0.395378   -2.076096   -1.001454
 O    0.658512   -3.630189   -0.799862
 O    0.926062   -1.416009   -2.209994
 O    1.029983   -1.404887    0.339908
 O   -1.161397   -1.904919   -0.820840
 C   -1.943255   -2.492561    0.233191
 C   -2.930263   -1.467588    0.767882
 O   -2.255129   -0.524432    1.611603
 C   -3.650192   -0.635803   -0.296057
 O   -4.903590   -0.257058    0.216221
 C   -2.744718    0.590376   -0.423210
 O   -3.470989    1.686181   -0.891093
 C   -2.252204    0.748395    1.030660
 N   -0.883190    1.262023    1.092548
 C    0.103664    0.821432    1.920810
 N    1.274144    1.359056    1.670703
 C    1.042751    2.207061    0.603564
 C    1.880467    3.008712   -0.195882
 N    3.213327    3.095529   -0.000611
 N    1.325607    3.729014   -1.181938
 C    0.010732    3.633715   -1.387655
 N   -0.875552    2.877438   -0.740534
 C   -0.297219    2.172462    0.242765
 H    2.513178   -0.408771   -1.554707
 H    2.513182    0.200060    1.843012
 H    1.600787   -3.763259   -0.551864
 H   -2.473231   -3.347551   -0.194328
 H   -1.296930   -2.837864    1.044149
 H   -3.665741   -1.995013    1.383350
 H   -3.745069   -1.171535   -1.249720
 H   -5.120792    0.588252   -0.205985
 H   -1.896077    0.351863   -1.071921
 H   -2.808378    2.386924   -1.051981
 H   -2.912859    1.424374    1.583733
 H   -0.085939    0.064324    2.665839
 H    3.674504    2.356300    0.507486
 H    3.742844    3.548696   -0.730693
 H   -0.383741    4.243995   -2.195369
