42 
3ncr_ligand_xtb.xyz
 P    2.469107   -1.455332    0.323657
 O    2.875941   -2.815733   -0.025339
 O    2.815545   -0.332877   -0.734786
 O    2.944064   -0.902038    1.686001
 P    0.170316   -1.998036   -0.956962
 O    0.396093   -3.547649   -0.814729
 O    0.722405   -1.326684   -2.131491
 O    0.820151   -1.387986    0.403993
 O   -1.374652   -1.779123   -0.807876
 C   -2.165852   -2.279494    0.266747
 C   -3.088115   -1.170881    0.796120
 O   -2.387250   -0.288787    1.666595
 C   -3.674022   -0.293320   -0.319728
 O   -4.930927    0.186247    0.061896
 C   -2.638954    0.839084   -0.414552
 O   -3.204108    2.016983   -0.896135
 C   -2.154413    0.946820    1.052095
 N   -0.748430    1.267093    1.112771
 C    0.159005    0.799816    2.007648
 N    1.379522    1.187678    1.766365
 C    1.293347    1.963742    0.634950
 C    2.232779    2.630621   -0.174824
 N    3.550916    2.649359    0.080848
 N    1.774852    3.313402   -1.228269
 C    0.481853    3.329392   -1.486505
 N   -0.491787    2.718564   -0.831700
 C   -0.045012    2.026937    0.220414
 H    2.327115   -0.510343   -1.556250
 H    2.492676   -0.034148    1.903693
 H    1.340344   -3.709460   -0.632402
 H   -2.765467   -3.107442   -0.119170
 H   -1.527120   -2.631993    1.078349
 H   -3.891875   -1.626136    1.384016
 H   -3.740015   -0.846823   -1.265263
 H   -5.039939    1.054980   -0.351781
 H   -1.805183    0.505948   -1.043374
 H   -2.459468    2.616015   -1.095622
 H   -2.724281    1.733219    1.577943
 H   -0.129725    0.165664    2.821347
 H    3.924986    1.973471    0.724150
 H    4.149674    3.021667   -0.636939
 H    0.179622    3.908093   -2.348461
