48 
3nee_ligand_dft.xyz
 O    6.385395   -2.001119   -0.500891
 C    5.464621   -1.330234    0.229675
 O    4.677260   -1.910200    0.917591
 C    5.553206    0.193926    0.097785
 O    4.570797    0.864705    0.816343
 C    3.298176    0.907632    0.309788
 C    2.879172    0.251707   -0.840316
 C    1.557826    0.380233   -1.279098
 C    1.124791   -0.375675   -2.513469
 C    0.654068    1.177382   -0.565968
 C    1.081555    1.819376    0.611665
 C    2.397994    1.684297    1.033137
 C    0.121969    2.647261    1.430668
 C   -0.785621    1.299559   -1.010368
 C   -1.743198    0.325404   -0.337392
 C   -3.120678    0.564022   -0.398696
 C   -4.062595   -0.290290    0.163890
 C   -5.559924   -0.051591    0.075626
 C   -5.937361    1.416680   -0.132760
 C   -6.175137   -0.929791   -1.025733
 C   -3.584264   -1.438369    0.817058
 O   -4.512017   -2.278144    1.366083
 C   -2.220790   -1.693247    0.900173
 C   -1.304778   -0.815373    0.325887
 H    6.942010   -1.389526   -1.002479
 H    5.547152    0.475988   -0.967091
 H    6.511456    0.516736    0.520899
 H    3.547128   -0.395288   -1.398934
 H    0.887235    0.303631   -3.340967
 H    1.913279   -1.051308   -2.856466
 H    0.230732   -0.977954   -2.318077
 H    2.746821    2.173325    1.937424
 H   -0.198190    3.544824    0.887462
 H   -0.780418    2.077235    1.677346
 H    0.585079    2.973002    2.365848
 H   -0.851994    1.161626   -2.095733
 H   -1.143689    2.319381   -0.827775
 H   -3.464748    1.462683   -0.905203
 H   -5.990795   -0.375055    1.030586
 H   -5.465739    2.064697    0.613530
 H   -5.646105    1.773199   -1.127883
 H   -7.022819    1.536848   -0.051880
 H   -5.765655   -0.656466   -2.005395
 H   -5.962997   -1.987549   -0.847165
 H   -7.262815   -0.799132   -1.061797
 H   -4.053315   -3.006217    1.801330
 H   -1.865184   -2.581040    1.419981
 H   -0.242081   -1.023040    0.410121
