35 
3neg_ligand_xtb.xyz
 S   -2.889878   -0.970229    0.469793
Br    3.528612   -0.955174    0.038338
 C    1.650795   -0.967118    0.308866
 N   -3.256178    0.346288   -0.484633
 O   -3.461104   -0.691444    1.753893
 C    1.038010    0.098457    1.008411
 N   -0.317743    0.151162   -2.349695
 O   -3.304182   -2.141436   -0.235203
 C   -0.380563    0.066920    1.149187
 C   -1.093653   -0.990453    0.549476
 C   -0.459780   -2.006084   -0.104453
 C    0.935543   -2.009650   -0.214452
 C   -1.015815    1.101100    1.866392
 C   -0.291188    2.138169    2.386539
 C    1.099357    2.187048    2.217441
 C    1.750083    1.184373    1.553770
 C   -2.657549    0.388831   -1.799043
 C   -1.246651    0.926621   -1.808987
 C    0.933329    0.576890   -2.373382
 C    1.336626    1.792778   -1.845059
 C    0.368891    2.608045   -1.279285
 C   -0.945258    2.173817   -1.266249
 H   -3.226716    1.213626    0.027356
 H   -1.051804   -2.788595   -0.549940
 H    1.434323   -2.810785   -0.737000
 H   -2.079285    1.029384    2.029516
 H   -0.787249    2.922650    2.937833
 H    1.658619    3.013849    2.628312
 H    2.824162    1.215395    1.447349
 H   -3.291680    1.001857   -2.449258
 H   -2.658536   -0.636449   -2.171804
 H    1.642062   -0.095386   -2.839065
 H    2.372463    2.091051   -1.877001
 H    0.632774    3.567747   -0.859689
 H   -1.725831    2.792839   -0.849375
