35 
3neg_ligand_dft.xyz
 S   -2.928873   -1.013418    0.232761
Br    3.473720   -0.973051   -0.150982
 C    1.612597   -1.078730    0.187022
 N   -3.200975    0.473321   -0.461822
 O   -3.560420   -0.943166    1.540913
 C    0.999559   -0.151835    1.078811
 N   -0.238307    0.635578   -2.336813
 O   -3.308139   -2.019334   -0.741654
 C   -0.420138   -0.195044    1.219334
 C   -1.149251   -1.126072    0.417410
 C   -0.510121   -2.024504   -0.393452
 C    0.894449   -2.019483   -0.495197
 C   -1.036852    0.711331    2.122777
 C   -0.294126    1.634199    2.812569
 C    1.104702    1.694161    2.648566
 C    1.735498    0.814409    1.809297
 C   -2.585052    0.820694   -1.743927
 C   -1.156104    1.329264   -1.658855
 C    1.034205    1.031814   -2.249752
 C    1.453756    2.120429   -1.494758
 C    0.491510    2.850216   -0.804911
 C   -0.835160    2.452372   -0.892901
 H   -3.220499    1.206566    0.237701
 H   -1.095596   -2.703748   -1.001956
 H    1.391116   -2.713680   -1.162470
 H   -2.103438    0.637026    2.300154
 H   -0.786065    2.311248    3.504240
 H    1.685008    2.425857    3.201897
 H    2.812867    0.844638    1.694967
 H   -3.231264    1.574052   -2.207391
 H   -2.608023   -0.066846   -2.379307
 H    1.757409    0.431663   -2.797418
 H    2.506419    2.376490   -1.442195
 H    0.770960    3.707595   -0.200752
 H   -1.610512    2.999016   -0.363100
