48 
3nes_ligand_xtb.xyz
 O   -5.922015   -2.556083    0.332033
 C   -5.422477   -1.345001    0.010184
 O   -5.310919   -0.998499   -1.123165
 C   -5.044352   -0.490704    1.226260
 O   -4.437078    0.718829    0.885493
 C   -3.188638    0.692954    0.308740
 C   -2.431275   -0.444795    0.088578
 C   -1.167583   -0.348784   -0.480027
 C   -0.380983   -1.603811   -0.712716
 C   -0.647220    0.896846   -0.832744
 C   -1.407994    2.047543   -0.603255
 C   -2.665985    1.932618   -0.037497
 C   -0.900246    3.415948   -0.958856
 C    0.733451    0.972906   -1.431628
 C    1.809656    0.700813   -0.409404
 C    2.931441   -0.045900   -0.742485
 C    3.943107   -0.312608    0.166439
 C    5.148136   -1.137991   -0.215140
 C    4.729857   -2.545765   -0.644015
 C    5.949068   -0.448491   -1.321125
 C    3.819356    0.199847    1.460717
 O    4.807330   -0.053956    2.371887
 C    2.703394    0.950435    1.805937
 C    1.706768    1.198420    0.881533
 H   -5.977764   -2.709697    1.284089
 H   -4.414990   -1.081194    1.913127
 H   -5.968208   -0.212138    1.747983
 H   -2.808555   -1.426372    0.333219
 H   -0.916623   -2.470054   -0.332839
 H   -0.208289   -1.752946   -1.778227
 H    0.589050   -1.547622   -0.221312
 H   -3.271277    2.806734    0.144229
 H    0.063101    3.613128   -0.490946
 H   -0.781348    3.512933   -2.037740
 H   -1.604405    4.174810   -0.627990
 H    0.903221    1.960980   -1.861668
 H    0.821554    0.247854   -2.243778
 H    3.016201   -0.437329   -1.745863
 H    5.784848   -1.222542    0.669521
 H    4.158960   -3.028749    0.146000
 H    4.115555   -2.513156   -1.540692
 H    5.609617   -3.150213   -0.853615
 H    5.359057   -0.360892   -2.230385
 H    6.245891    0.549571   -1.006859
 H    6.845942   -1.021074   -1.547252
 H    4.579049    0.364908    3.209839
 H    2.616122    1.341297    2.812229
 H    0.839848    1.772551    1.171963
