39 
3nf8_ligand_dft.xyz
 C   -3.989317   -1.193466   -0.547985
 C   -3.024029   -1.647088    0.341680
 C   -2.046979   -0.776575    0.828761
 C   -2.073913    0.538438    0.391432
 C   -3.057655    0.997757   -0.493172
 C   -4.024677    0.136316   -0.972874
 C   -2.831809    2.462482   -0.732613
 C   -1.590089    2.766460    0.104320
 O   -1.015432    3.832363    0.208619
 N   -1.216101    1.594441    0.731720
 C   -0.035532    1.495074    1.576095
 C    1.198369    1.086634    0.779509
 C    1.705082    2.057282   -0.090426
 C    2.798569    1.810634   -0.899892
 C    3.409020    0.564433   -0.875555
 C    2.898147   -0.431061   -0.039666
 C    1.805678   -0.184440    0.816928
 C    1.315844   -1.253388    1.769728
 O    0.711460   -1.002510    2.787608
 O    1.531846   -2.529716    1.440235
 O    3.473598   -1.683611   -0.034417
 C    4.309322   -1.962480   -1.154058
 C    5.242919   -0.792672   -1.376416
 O    4.486961    0.362917   -1.686611
Cl   -5.198900   -2.308776   -1.148350
 H   -3.031100   -2.682653    0.663147
 H   -1.312342   -1.128733    1.543606
 H   -4.794844    0.474328   -1.658280
 H   -3.662062    3.092918   -0.397581
 H   -2.630862    2.714550   -1.778995
 H   -0.235629    0.814285    2.398491
 H    0.127822    2.494530    1.986576
 H    1.223323    3.029565   -0.118584
 H    3.203412    2.573310   -1.556616
 H    2.151497   -2.581174    0.691076
 H    3.689888   -2.129893   -2.043453
 H    4.852113   -2.875869   -0.906395
 H    5.905545   -0.969993   -2.225463
 H    5.846094   -0.618634   -0.475873
