57 
3nht_ligand_dft.xyz
 C    2.936686    1.990264    1.168846
 O    2.363295    0.982964    1.986825
 C    2.037974    2.199084   -0.037042
 C    0.634547    2.681179    0.327726
 C   -0.249305    2.885930   -0.910398
 C   -1.639368    3.339451   -0.559875
 C   -2.759003    2.621969   -0.681056
 C   -2.838781    1.203125   -1.182187
 C   -2.550302    0.186847   -0.064828
 C   -3.600388    0.171443    1.043239
 C   -3.973226   -1.246780    1.415420
 C   -4.959745   -0.392014    0.693749
 O   -4.904198   -1.134855   -0.518109
 C   -3.779946   -1.886494    0.027159
 C   -2.498174   -1.298260   -0.560629
 C   -1.262002   -1.988252   -0.063726
 C   -0.218959   -2.325122   -0.820011
 C    1.072994   -2.882781   -0.295195
 C    2.182835   -1.821838   -0.259572
 C    3.528647   -2.389733    0.194357
 C    4.613734   -1.328809    0.399320
 C    4.970321   -0.541592   -0.863947
 C    6.195943    0.351689   -0.680498
 H    3.035080    2.935124    1.727198
 H    3.940962    1.694083    0.831341
 H    2.939685    0.846127    2.746777
 H    2.522881    2.923574   -0.705119
 H    1.969948    1.251954   -0.588143
 H    0.704685    3.623062    0.890187
 H    0.166052    1.952316    0.997760
 H   -0.279511    1.948666   -1.477745
 H    0.224568    3.631847   -1.564544
 H   -1.712485    4.344225   -0.142380
 H   -3.694722    3.070612   -0.350262
 H   -3.830420    0.996034   -1.597078
 H   -2.117569    1.043259   -1.992664
 H   -1.581247    0.443438    0.378596
 H   -3.572265    0.927336    1.822210
 H   -3.974612   -1.708378    2.394401
 H   -5.912280    0.035819    0.988041
 H   -3.921434   -2.962401   -0.093354
 H   -2.541343   -1.344594   -1.654988
 H   -1.206665   -2.151946    1.015465
 H   -0.263292   -2.134016   -1.894130
 H    0.922304   -3.279900    0.717037
 H    1.398807   -3.726038   -0.920233
 H    2.283087   -1.374604   -1.258108
 H    1.883668   -1.013079    0.419063
 H    3.878537   -3.133564   -0.536165
 H    3.383117   -2.931411    1.138874
 H    4.279998   -0.629028    1.177143
 H    5.521182   -1.816004    0.781814
 H    5.153059   -1.245341   -1.687736
 H    4.114955    0.074175   -1.169991
 H    7.081394   -0.242851   -0.427079
 H    6.044105    1.074503    0.130495
 H    6.420109    0.916280   -1.591526
