34 
3nif_ligand_dft.xyz
 C    3.455944   -0.180013   -0.202003
 N    2.908505    0.981620   -0.149433
 O    1.201784    3.150270   -0.078844
 S    2.324582   -1.539350   -0.209192
 C    1.021746   -0.385718   -0.137909
 N    1.547398    0.869152   -0.113061
 C   -1.093176    0.386045   -0.056087
 N   -0.244121   -0.681239   -0.104488
 C   -0.683116    1.693014   -0.068011
 N   -5.155506   -0.799198    0.103737
 C    0.715802    2.047269   -0.079983
 N   -2.443339    0.008118    0.034961
 C    4.937191   -0.383954   -0.234710
 C    5.469728   -1.106770    1.008588
 C   -2.848507   -1.204068   -0.651027
 C   -4.045306   -1.823069    0.045425
 C   -4.708797    0.475233    0.775208
 C   -3.469585    1.022243    0.078905
 H   -1.358848    2.536412   -0.090273
 H   -5.970533   -1.184684    0.589233
 H   -5.461715   -0.586499   -0.852272
 H    5.383234    0.610255   -0.322915
 H    5.200423   -0.943863   -1.139487
 H    5.224095   -0.550590    1.917647
 H    5.057083   -2.116953    1.099819
 H    6.557059   -1.195558    0.945273
 H   -2.018865   -1.911259   -0.625952
 H   -3.091663   -1.009058   -1.711171
 H   -4.428700   -2.695179   -0.487593
 H   -3.810918   -2.087856    1.078276
 H   -4.488669    0.215149    1.812421
 H   -5.541685    1.179946    0.737976
 H   -3.728273    1.407171   -0.923407
 H   -3.131720    1.869554    0.677849
