34 
3nif_ligand_xtb.xyz
 C    3.329714   -0.087950   -0.082431
 N    2.750616    1.030446    0.063658
 O    1.032187    3.186231    0.322419
 S    2.205993   -1.430951   -0.419075
 C    0.920603   -0.272438   -0.342620
 N    1.421773    0.961406   -0.074441
 C   -1.206647    0.493704   -0.446340
 N   -0.334882   -0.549016   -0.506281
 C   -0.803762    1.772131   -0.170464
 N   -4.523977   -1.089323    0.852336
 C    0.570308    2.110326    0.053229
 N   -2.515571    0.138928   -0.727766
 C    4.788613   -0.307110    0.010181
 C    5.136513   -1.396259    1.024098
 C   -2.838654   -1.250461   -0.924857
 C   -3.345782   -1.871991    0.378627
 C   -4.175783    0.345576    1.046950
 C   -3.643910    0.906037   -0.280166
 H   -1.478748    2.608978   -0.133744
 H   -4.893260   -1.488652    1.722480
 H   -5.259758   -1.149762    0.135602
 H    5.249122    0.641697    0.287916
 H    5.162010   -0.598543   -0.975295
 H    4.787986   -1.120344    2.016159
 H    4.681104   -2.343505    0.742424
 H    6.213398   -1.529211    1.062573
 H   -1.932207   -1.765735   -1.244337
 H   -3.599156   -1.333996   -1.708404
 H   -3.633909   -2.912808    0.231197
 H   -2.563545   -1.818088    1.137318
 H   -3.401536    0.412545    1.813578
 H   -5.057482    0.895590    1.377572
 H   -4.429622    0.860507   -1.043491
 H   -3.370770    1.950222   -0.145471
