55 
3nii_ligand_xtb.xyz
 N   -4.517804    0.911483   -0.872029
 C   -3.476207    0.949061    0.182755
 C   -2.187638    1.272146   -0.628479
 O   -2.290402    1.205750   -1.846838
 C   -3.352319   -0.395067    0.913438
 C   -3.006808   -1.567298   -0.013647
 C   -2.770802   -2.873460    0.757127
 C   -1.406548   -2.997022    1.430594
 N   -0.323305   -3.141343    0.428882
 N   -1.103508    1.613295    0.043772
 C    0.198699    1.720636   -0.592759
 C    0.736917    0.291745   -0.756746
 O    0.002437   -0.662669   -0.498420
 C    1.128503    2.636344    0.223846
 C    1.398381    2.056334    1.623430
 C    0.547818    4.047076    0.292957
 C    2.726581    2.539803    2.196478
 N    1.986001    0.153619   -1.183569
 C    2.629881   -1.146468   -1.338761
 C    2.993167   -1.652699    0.068833
 O    2.303017   -2.438203    0.678157
 C    3.848599   -1.028276   -2.237945
 O    4.075986   -1.093979    0.542116
 H   -5.140733    1.722866   -0.873393
 H   -5.079498    0.057005   -0.863528
 H   -3.868973    0.952561   -1.756654
 H   -3.682816    1.744980    0.901445
 H   -4.287280   -0.600241    1.438981
 H   -2.576681   -0.292650    1.672497
 H   -3.828703   -1.749140   -0.707512
 H   -2.127759   -1.313842   -0.604654
 H   -3.537601   -2.978103    1.525300
 H   -2.894830   -3.713079    0.071271
 H   -1.183862   -2.121101    2.039109
 H   -1.407874   -3.874129    2.079436
 H    0.609853   -3.277834    0.857617
 H   -0.517034   -3.918732   -0.207621
 H   -0.213205   -2.242083   -0.108932
 H   -1.101664    1.608057    1.053369
 H    0.038138    2.134192   -1.596061
 H    2.081441    2.699447   -0.309704
 H    1.414622    0.962197    1.573290
 H    0.599817    2.350292    2.308340
 H   -0.412688    4.058896    0.802426
 H    1.224507    4.700005    0.834995
 H    0.414991    4.457836   -0.704402
 H    3.558607    2.219393    1.573767
 H    2.872805    2.138923    3.195522
 H    2.747032    3.622981    2.265322
 H    2.557757    0.962757   -1.379222
 H    1.893117   -1.839073   -1.763124
 H    3.555111   -0.655292   -3.215543
 H    4.584808   -0.358309   -1.801819
 H    4.309727   -2.002954   -2.369912
 H    4.331538   -1.419520    1.423158
