50 
3nil_ligand_dft.xyz
 N    1.445324    0.649915   -0.232460
 C    1.737237   -0.729536   -0.751827
 C    0.364815   -1.292040   -1.155801
 O   -0.022003   -1.192754   -2.299539
 C    2.553105   -1.558787    0.260627
 C    3.825340   -2.192485   -0.325589
 C    4.955691   -1.223864   -0.709108
 N    5.392019   -0.367367    0.385982
 C    4.687816    0.749593    0.747121
 N    4.636897    1.034244    2.080749
 N    4.008373    1.505883   -0.070385
 N   -0.417435   -1.762215   -0.121126
 C   -1.825813   -1.395741   -0.175390
 C   -1.886286    0.083044    0.275939
 O   -1.056253    0.508530    1.087655
 C   -2.677235   -2.316315    0.695753
 C   -4.150808   -2.161168    0.394549
 O   -4.894732   -2.967112    1.149187
 O   -4.613838   -1.411441   -0.438367
 N   -2.815814    0.846749   -0.306851
 C   -2.885914    2.284461   -0.136820
 C   -1.600180    2.937362   -0.649833
 O   -1.652471    4.259155   -0.496447
 C   -3.242158    2.718287    1.291288
 O   -0.660625    2.371203   -1.164800
 H    0.825014    0.623215    0.592504
 H    0.903056    1.204968   -0.911620
 H    2.376924    1.153546   -0.033085
 H    2.287869   -0.585764   -1.683175
 H    2.810363   -0.945265    1.131561
 H    1.935601   -2.377235    0.644080
 H    3.566275   -2.785169   -1.211807
 H    4.212420   -2.903553    0.413380
 H    5.820423   -1.797890   -1.051075
 H    4.667107   -0.595798   -1.555775
 H    5.936894   -0.823733    1.103868
 H    5.191994    0.511767    2.740367
 H    4.462599    1.999902    2.317025
 H    4.279789    1.326041   -1.033911
 H   -0.035592   -1.606685    0.805098
 H   -2.140947   -1.482299   -1.216118
 H   -2.511177   -2.136317    1.764358
 H   -2.398012   -3.357922    0.504565
 H   -5.824559   -2.837320    0.897689
 H   -3.517063    0.374503   -0.865714
 H   -3.674864    2.635529   -0.810805
 H   -0.839902    4.637980   -0.870234
 H   -4.183319    2.244262    1.580251
 H   -3.367362    3.801588    1.338124
 H   -2.463358    2.413667    1.992126
