70 
3nim_ligand_xtb.xyz
 N   -2.357631   -0.928353    0.224361
 C   -3.309239    0.000975   -0.424219
 C   -2.504948    1.101368   -1.136133
 O   -2.626611    1.312334   -2.319914
 C   -4.313910    0.559852    0.600185
 C   -5.785303    0.433805    0.181329
 C   -6.440127   -0.930330    0.464886
 N   -6.079967   -1.980981   -0.462012
 C   -4.910057   -2.675780   -0.404108
 N   -4.492276   -3.235186   -1.580239
 N   -4.137672   -2.790415    0.622959
 N   -1.667749    1.786741   -0.320314
 C   -0.491154    2.398693   -0.899895
 C    0.547983    1.278976   -1.085872
 O    0.265305    0.115359   -0.846011
 C   -0.024800    3.642364   -0.125987
 C    0.942628    3.450384    1.049141
 C    0.358875    2.808803    2.323967
 N    0.775615    1.431810    2.472878
 C    0.022646    0.347777    2.183396
 N    0.716109   -0.778391    1.906100
 N   -1.278756    0.298778    2.218812
 N    1.726286    1.663640   -1.590979
 C    2.801129    0.720038   -1.820983
 C    3.262240    0.124979   -0.482340
 O    2.950042    0.608216    0.593948
 C    3.963465    1.413724   -2.521623
 N    4.009274   -0.977168   -0.605574
 C    4.722728   -1.593173    0.493045
 C    6.138006   -1.890155    0.003283
 O    6.464093   -1.789109   -1.148983
 C    4.055744   -2.893850    0.950934
 O    6.937178   -2.282792    0.980346
 H   -1.553202   -1.084385   -0.389729
 H   -1.942649   -0.486941    1.177878
 H   -2.893938   -1.850011    0.424940
 H   -3.837232   -0.537200   -1.217514
 H   -4.100970    1.617873    0.760046
 H   -4.167527    0.053268    1.555519
 H   -5.884195    0.675132   -0.878342
 H   -6.358688    1.175217    0.738991
 H   -6.197870   -1.252285    1.481106
 H   -7.524507   -0.814931    0.408982
 H   -6.527095   -1.925740   -1.364528
 H   -3.801717   -3.962078   -1.483075
 H   -5.176251   -3.393532   -2.301646
 H   -4.535209   -2.414671    1.475533
 H   -1.539855    1.417884    0.617187
 H   -0.792128    2.708459   -1.910169
 H   -0.921749    4.155414    0.227249
 H    0.459362    4.315134   -0.836981
 H    1.801931    2.854125    0.736932
 H    1.314028    4.442582    1.308850
 H    0.716161    3.357462    3.200494
 H   -0.731251    2.869832    2.319658
 H    1.771198    1.295291    2.361334
 H    1.640936   -0.658912    1.521501
 H    0.198124   -1.593309    1.629613
 H   -1.722598    1.088001    2.669547
 H    1.923686    2.641496   -1.729542
 H    2.408763   -0.100145   -2.435878
 H    4.770675    0.712626   -2.714879
 H    3.633730    1.827208   -3.471647
 H    4.351861    2.219037   -1.900932
 H    4.309688   -1.287688   -1.520997
 H    4.766628   -0.883819    1.326443
 H    3.993100   -3.596065    0.122982
 H    3.053181   -2.690652    1.317428
 H    4.639488   -3.339482    1.750791
 H    7.827958   -2.490297    0.651796
