69 
3nin_ligand_xtb.xyz
 N    0.492074    1.929783   -1.769963
 C   -0.338079    2.237086   -0.586156
 C   -1.542904    1.284544   -0.686464
 O   -1.904610    0.909836   -1.789889
 C   -0.818969    3.702100   -0.559470
 C   -0.419857    4.502015    0.690834
 C    0.928919    5.239943    0.623209
 N    2.088044    4.392282    0.809709
 C    2.589217    3.580793   -0.149531
 N    3.373144    2.546147    0.274095
 N    2.330107    3.660581   -1.417881
 N   -2.109175    0.964313    0.481117
 C   -3.038433   -0.154869    0.667840
 C   -2.174441   -1.411278    0.510653
 O   -1.804915   -2.044738    1.489573
 C   -4.267279   -0.087958   -0.238432
 C   -5.153472   -1.336904   -0.135800
 C   -5.660538   -1.563900    1.286460
 C   -6.330664   -1.191363   -1.097875
 N   -1.788674   -1.694222   -0.741221
 C   -0.720967   -2.632091   -0.998222
 C    0.642792   -1.940420   -0.897782
 O    0.809177   -0.771117   -1.221044
 N    1.622565   -2.702699   -0.408054
 C    2.989214   -2.262389   -0.250812
 C    3.897267   -3.398975   -0.717564
 O    5.156023   -3.005225   -0.854404
 C    3.329285   -1.925360    1.213798
 C    2.652306   -0.645667    1.702279
 C    1.145204   -0.744469    1.832225
 O    0.418469    0.209775    1.647965
 O    0.726408   -1.934216    2.183283
 O    3.505917   -4.514786   -0.913198
 H   -0.095962    2.001994   -2.606476
 H    1.401568    2.613446   -1.786608
 H    0.774999    0.936797   -1.695458
 H    0.239669    1.985198    0.305751
 H   -0.464899    4.217493   -1.453252
 H   -1.909129    3.701688   -0.617850
 H   -1.178330    5.268491    0.851927
 H   -0.428050    3.848375    1.564604
 H    0.954775    5.991074    1.414355
 H    1.016358    5.769760   -0.329058
 H    2.327435    4.181919    1.766178
 H    3.957118    2.143453   -0.442293
 H    3.802800    2.622453    1.181812
 H    1.842360    4.508650   -1.678910
 H   -1.577743    1.194812    1.309469
 H   -3.356278   -0.117113    1.712952
 H   -3.962179    0.046526   -1.275422
 H   -4.849431    0.790208    0.049528
 H   -4.563580   -2.209976   -0.436672
 H   -4.849403   -1.831983    1.958366
 H   -6.381491   -2.377030    1.296465
 H   -6.152539   -0.670447    1.664475
 H   -5.983369   -1.030357   -2.115655
 H   -6.944396   -2.087777   -1.084322
 H   -6.953031   -0.347634   -0.809187
 H   -2.030141   -1.044495   -1.480984
 H   -0.835696   -3.039572   -2.005529
 H   -0.787515   -3.441210   -0.267505
 H    1.466736   -3.681487   -0.205629
 H    3.148629   -1.382093   -0.882635
 H    5.727900   -3.741077   -1.131010
 H    3.030130   -2.760919    1.847741
 H    4.410113   -1.799970    1.286676
 H    2.875821    0.195947    1.044105
 H    3.031921   -0.410253    2.699939
 H   -0.265118   -2.019449    2.162083
