21 
3njy_ligand_xtb.xyz
 O    3.589949   -0.569736   -0.006957
 O    2.755368    1.452210    0.007039
 O   -2.617811   -2.087006    0.002069
 C   -1.198428    2.572502   -0.000742
 C   -2.397346    1.845980   -0.003448
 C   -0.253837   -2.324313    0.001340
 C    0.998642   -1.713807    0.000710
 C   -0.003524    1.900137    0.001289
 N   -2.431697    0.541643   -0.002546
 C    2.535796    0.268170    0.000681
 C   -1.393022   -1.553139    0.001093
 C    1.175996   -0.340306    0.000604
 C    0.008697    0.486584    0.000623
 C   -1.265469   -0.134795   -0.000275
 H    3.348718   -1.503732   -0.012405
 H   -3.245732   -1.339033    0.001504
 H   -1.224167    3.650927   -0.000202
 H   -3.356913    2.346482   -0.006327
 H   -0.338691   -3.398935    0.002034
 H    1.843702   -2.390489    0.001202
 H    0.929883    2.437460    0.003558
