56 
3nlb_ligand_xtb.xyz
 C    2.431244   -2.516003   -1.172359
 C    0.124361    1.297144   -0.061793
 C    1.364328    1.940670   -0.055578
 C    2.737931    1.551581    0.031923
 C    3.413888    2.764192   -0.100824
 N    2.520196    3.771791   -0.242612
 N    1.317597    3.300874   -0.222616
 C    4.875383    3.018311   -0.076545
 C    3.326399    0.236923    0.251866
 O    4.434572   -0.086553   -0.140688
 N    2.492156   -0.616629    0.929972
 C    2.787767   -2.001901    1.242322
 C    3.372750   -2.702495    0.017250
 N    1.025207   -2.447141   -0.758510
 C    0.794952   -3.314221    0.389830
 C    1.491435   -2.732221    1.629240
 N   -1.003848    2.052883   -0.062928
 N   -0.234198   -0.009896   -0.033795
 C   -1.613866   -0.078798   -0.008418
 C   -2.104483    1.240716   -0.032936
 C   -3.459628    1.516258   -0.011623
 C   -4.345359    0.448930    0.047236
 C   -3.850895   -0.856359    0.098490
 C   -2.497275   -1.141048    0.075777
 C   -5.831864    0.708177    0.073311
 C   -6.437375    0.247584    1.401247
 C   -6.530181    0.031608   -1.107997
 C    0.167725   -2.765462   -1.885449
 H    2.583678   -3.344782   -1.880697
 H    2.667272   -1.583050   -1.690602
 H    5.143431    3.585317    0.814965
 H    5.412880    2.074367   -0.085581
 H    5.159367    3.609483   -0.945188
 H    1.760340   -0.189905    1.474968
 H    3.505604   -2.054260    2.075305
 H    4.344752   -2.280145   -0.227329
 H    3.501415   -3.759656    0.254979
 H    0.390169   -0.820687   -0.199980
 H    1.158345   -4.334713    0.191134
 H   -0.280247   -3.383853    0.571267
 H    0.821631   -2.040474    2.145006
 H    1.722342   -3.543049    2.320582
 H   -3.814178    2.534714   -0.035886
 H   -4.546269   -1.678752    0.161859
 H   -2.152144   -2.160484    0.134937
 H   -5.988504    1.788536   -0.014306
 H   -6.326397   -0.826439    1.526292
 H   -5.943859    0.743267    2.234187
 H   -7.497091    0.489284    1.433416
 H   -6.086662    0.355848   -2.046714
 H   -6.446154   -1.050058   -1.043851
 H   -7.585943    0.292026   -1.116076
 H    0.318881   -3.791852   -2.249476
 H   -0.878132   -2.646129   -1.608662
 H    0.390325   -2.076129   -2.699103
 H   -0.934628    3.059308   -0.106325
