20 
3nm6_ligand_xtb.xyz
 C   -0.001216   -0.000996   -0.185468
 C   -0.151167    1.464979   -0.619452
 C   -1.196137   -0.863377   -0.619488
 C    1.342983   -0.602495   -0.623065
 N    0.000572   -0.001708    1.307574
 O    0.715431    2.211383    0.208738
 O   -2.275740   -0.487163    0.209112
 O    1.564712   -1.721277    0.209255
 H   -1.193032    1.779037   -0.478551
 H    0.112906    1.565228   -1.676781
 H   -0.947276   -1.922932   -0.479188
 H   -1.415402   -0.684232   -1.676631
 H    2.133984    0.146300   -0.490223
 H    1.293275   -0.886468   -1.678825
 H   -0.985294   -0.068091    1.609896
 H    0.551950   -0.822800    1.607412
 H    0.436704    0.885421    1.608595
 H    0.736225    3.130524   -0.076487
 H   -3.082350   -0.926975   -0.077923
 H    2.352308   -2.195271   -0.076304
