57 
3nnv_ligand_dft.xyz
 C   -6.221910    1.638858   -0.508989
 C   -5.227218    2.478901   -0.929455
 C   -3.871104    2.093694   -0.859659
 C   -5.899004    0.373143    0.043522
 C   -4.534647   -0.016001    0.164339
 C   -3.525182    0.870324   -0.334769
 N   -2.188045    0.420295   -0.290709
 C   -1.055922    1.210420   -0.246580
 O   -1.056471    2.425019   -0.242062
 N    0.103914    0.448867   -0.216692
 C    1.380582    0.994526   -0.109215
 C    1.835881    2.276189    0.079942
 C    3.244911    2.139032    0.172431
 C    4.249803    3.251801    0.374231
 C    4.174401    4.211666   -0.826755
 C    5.669607    2.684940    0.487909
 C    3.898264    4.017734    1.661792
 N    3.625678    0.878836    0.051118
 N    2.475730    0.176941   -0.145253
 C    2.521783   -1.232313   -0.267177
 C    1.789839   -1.883516   -1.260301
 C    3.314480   -1.969087    0.611745
 C    3.366197   -3.351479    0.500350
 C    2.617157   -4.018925   -0.470567
 C    2.700540   -5.519085   -0.614578
 C    1.828414   -3.271852   -1.342956
 O    3.012856   -6.095882    0.635949
 C   -4.241125   -1.260710    0.783169
 C   -5.242467   -2.090609    1.219175
 C   -6.596169   -1.719547    1.064077
 C   -6.910764   -0.512418    0.497723
 H   -7.266008    1.929620   -0.583831
 H   -5.471821    3.451768   -1.344612
 H   -3.096703    2.760069   -1.213833
 H   -2.059631   -0.570895   -0.422339
 H    0.036689   -0.542400   -0.032608
 H    1.230675    3.163546    0.152370
 H    4.418755    3.688808   -1.757578
 H    3.171520    4.639573   -0.931944
 H    4.884604    5.037266   -0.699193
 H    5.753937    1.998555    1.335964
 H    5.947879    2.132084   -0.413948
 H    6.384672    3.503312    0.630766
 H    2.893111    4.449802    1.609060
 H    3.936083    3.354486    2.532633
 H    4.609739    4.836303    1.822443
 H    1.213882   -1.305469   -1.976486
 H    3.889841   -1.442888    1.365040
 H    3.975814   -3.930250    1.185314
 H    3.474084   -5.761080   -1.361273
 H    1.744556   -5.901824   -1.004862
 H    1.248347   -3.773944   -2.113761
 H    3.243771   -7.019384    0.489415
 H   -3.210110   -1.552572    0.958554
 H   -4.993047   -3.032492    1.698350
 H   -7.381803   -2.385181    1.408160
 H   -7.948928   -0.208592    0.391418
