57 
3nnv_ligand_xtb.xyz
 C   -6.236143    1.659550   -0.281252
 C   -5.239727    2.559901   -0.528192
 C   -3.897085    2.176052   -0.455664
 C   -5.922816    0.326983    0.054457
 C   -4.563106   -0.084015    0.136653
 C   -3.548113    0.885059   -0.131840
 N   -2.210800    0.485280   -0.062152
 C   -1.077453    1.255187   -0.186725
 O   -1.049456    2.442810   -0.399014
 N    0.062708    0.487214   -0.052865
 C    1.350782    1.002567   -0.049471
 C    1.815743    2.289268    0.072139
 C    3.221209    2.161818    0.119415
 C    4.221297    3.274057    0.237302
 C    4.124500    4.153279   -1.015607
 C    5.632286    2.697971    0.357702
 C    3.895869    4.111332    1.479813
 N    3.576014    0.896535    0.042816
 N    2.442335    0.181680   -0.079320
 C    2.501957   -1.210685   -0.194234
 C    1.629132   -1.913298   -1.022717
 C    3.481164   -1.901599    0.513344
 C    3.565392   -3.276037    0.418543
 C    2.673069   -3.985834   -0.374118
 C    2.762630   -5.485192   -0.488793
 C    1.712656   -3.291064   -1.098013
 O    3.486138   -6.018329    0.596171
 C   -4.304993   -1.428341    0.483834
 C   -5.319522   -2.311717    0.731497
 C   -6.656223   -1.901978    0.645497
 C   -6.945742   -0.609498    0.314343
 H   -7.274660    1.950411   -0.337107
 H   -5.474927    3.581749   -0.784916
 H   -3.124127    2.898621   -0.652584
 H   -2.074656   -0.494085    0.136298
 H   -0.008225   -0.502739    0.135789
 H    1.220731    3.175055    0.116649
 H    4.355848    3.569726   -1.903923
 H    3.121724    4.559584   -1.122161
 H    4.829582    4.979201   -0.949463
 H    5.711911    2.081711    1.248869
 H    5.857597    2.075002   -0.502839
 H    6.362705    3.501842    0.417205
 H    2.902173    4.544933    1.403608
 H    3.934080    3.492693    2.373891
 H    4.618055    4.918002    1.586060
 H    0.915066   -1.386439   -1.638828
 H    4.171773   -1.338731    1.120443
 H    4.317144   -3.817267    0.969622
 H    3.259394   -5.734216   -1.441631
 H    1.746557   -5.908138   -0.522353
 H    1.031094   -3.830914   -1.740240
 H    3.554892   -6.971806    0.488423
 H   -3.290305   -1.795159    0.568190
 H   -5.091589   -3.333786    0.997015
 H   -7.445919   -2.611250    0.843791
 H   -7.971753   -0.277406    0.246101
