54 
3nnw_ligand_dft.xyz
 C   -2.207967   -0.772209    0.348317
 C   -1.487994   -1.560938    1.245105
 C   -1.768361   -2.923016    1.325030
 C   -2.775436   -3.482857    0.549170
 C   -3.516641   -2.690495   -0.333764
 C   -3.211124   -1.335019   -0.440077
 C   -4.656781   -3.280747   -1.123573
 C   -6.029895   -3.239854   -0.436598
 N   -6.244097   -2.194775    0.405225
 O   -6.879680   -4.074461   -0.686931
 N   -1.958438    0.614822    0.237274
 N   -3.008998    1.479124    0.165219
 C   -2.464341    2.675990    0.031206
 C   -1.047431    2.608498   -0.008216
 C   -0.765299    1.270472    0.114080
 C   -3.312108    3.925800   -0.055344
 C   -4.803357    3.571618   -0.024680
 C   -2.985916    4.661354   -1.367207
 C   -2.975307    4.837011    1.138598
 N    0.424889    0.547975    0.086388
 C    1.677129    1.137581    0.059030
 N    2.684510    0.191252   -0.015303
 C    4.062826    0.416702   -0.075571
 O    1.848210    2.339199    0.104808
 C    4.629615    1.693447   -0.144991
 C    6.007905    1.838320   -0.211999
 C    6.853147    0.737578   -0.212797
 C    6.300511   -0.535527   -0.144202
 C    4.917423   -0.702703   -0.075532
Cl    4.230483   -2.306797    0.011401
Cl    7.365252   -1.909954   -0.145229
 H   -0.748769   -1.108288    1.898622
 H   -1.212208   -3.543399    2.020961
 H   -3.000642   -4.542215    0.634258
 H   -3.758322   -0.690759   -1.121592
 H   -4.473559   -4.331248   -1.360436
 H   -4.771694   -2.753493   -2.078167
 H   -7.140766   -2.133610    0.861714
 H   -5.520104   -1.542510    0.661795
 H   -0.331640    3.404932   -0.118477
 H   -5.073359    2.923427   -0.863987
 H   -5.066097    3.047031    0.898656
 H   -5.402283    4.487180   -0.087191
 H   -1.928423    4.942544   -1.416545
 H   -3.209659    4.030853   -2.234408
 H   -3.582625    5.577500   -1.446042
 H   -3.195549    4.334131    2.086267
 H   -1.915962    5.115627    1.141302
 H   -3.568204    5.757929    1.092247
 H    0.336976   -0.442695   -0.091837
 H    2.421054   -0.781914    0.037000
 H    3.977300    2.554215   -0.139752
 H    6.430639    2.836210   -0.264713
 H    7.929519    0.850609   -0.265154
