48 
3nox_ligand_dft.xyz
 C    1.342540   -0.948128   -0.361840
 C    1.707842   -2.264686   -0.528550
 C    0.688237   -3.285441   -0.541070
 N   -0.578547   -3.006367   -0.387366
 N    0.018584   -0.680318   -0.211601
 C   -0.943087   -1.723446   -0.217150
 N   -2.147871   -1.241104   -0.045646
 C   -1.993349    0.112748    0.075377
 C   -0.672441    0.487809   -0.024188
 C   -3.033714    1.182384    0.273897
 O   -2.613508    2.337247    0.247786
 N   -4.336872    0.875020    0.469210
 C    1.040546   -4.734603   -0.763677
 C    2.267941    0.215013   -0.375349
 C    3.152734   -2.620693   -0.668319
 N    3.727222   -3.008316    0.691301
 C    2.412083    0.961636   -1.549275
 C    3.238296    2.075643   -1.596128
 C    3.930516    2.459484   -0.449861
 C    3.803915    1.743082    0.737979
 C    2.973809    0.631884    0.755484
Cl    2.809185   -0.247237    2.270598
Cl    4.962915    3.845748   -0.490392
 C   -4.966646   -0.442686    0.543383
 C   -6.113444   -0.504120   -0.462595
 O   -7.040368    0.536862   -0.255420
 C   -6.425404    1.801396   -0.378348
 C   -5.294008    1.968653    0.630671
 H   -0.212281    1.460680    0.023838
 H    1.478641   -4.895921   -1.755685
 H    1.746929   -5.127143   -0.019425
 H    0.128371   -5.327829   -0.694519
 H    3.757886   -1.782518   -1.016953
 H    3.319860   -3.477824   -1.322042
 H    4.727916   -3.224838    0.645798
 H    3.586310   -2.232044    1.359881
 H    3.241549   -3.827408    1.069844
 H    1.857054    0.666271   -2.434428
 H    3.340125    2.648296   -2.510700
 H    4.333778    2.054199    1.630689
 H   -5.368263   -0.572811    1.556729
 H   -4.240490   -1.227292    0.346771
 H   -6.662469   -1.442000   -0.349452
 H   -5.703137   -0.455211   -1.484843
 H   -7.203610    2.547816   -0.203574
 H   -6.029480    1.935652   -1.398148
 H   -4.769477    2.913125    0.490315
 H   -5.699704    1.931264    1.649545
