48 
3nox_ligand_xtb.xyz
 C    1.292416   -0.891039   -0.374394
 C    1.657193   -2.210862   -0.557068
 C    0.647426   -3.219104   -0.512416
 N   -0.610082   -2.930889   -0.311894
 N   -0.013996   -0.617425   -0.183707
 C   -0.979471   -1.678899   -0.149264
 N   -2.171006   -1.195556    0.063285
 C   -2.036209    0.148444    0.174108
 C   -0.709134    0.519807    0.023833
 C   -3.078938    1.180859    0.423184
 O   -2.711713    2.349190    0.460151
 N   -4.355083    0.816328    0.628011
 C    0.965951   -4.669405   -0.693959
 C    2.227249    0.257382   -0.392814
 C    3.093983   -2.567704   -0.796686
 N    3.711347   -3.042269    0.482177
 C    2.199031    1.156117   -1.458437
 C    3.022417    2.263828   -1.482989
 C    3.890335    2.503830   -0.423075
 C    3.926225    1.631298    0.660141
 C    3.099656    0.524621    0.660032
Cl    3.116188   -0.509158    2.074702
Cl    4.914921    3.877905   -0.432507
 C   -4.940257   -0.499153    0.499771
 C   -5.945864   -0.476952   -0.661599
 O   -6.927929    0.510581   -0.467177
 C   -6.352187    1.790586   -0.353145
 C   -5.360146    1.846527    0.814313
 H   -0.277992    1.498172    0.060150
 H    1.514460   -4.847173   -1.616711
 H    1.539314   -5.069978    0.142531
 H    0.026434   -5.211811   -0.740697
 H    3.650677   -1.694161   -1.138586
 H    3.175227   -3.359981   -1.542006
 H    4.700267   -3.282712    0.366225
 H    3.610158   -2.256005    1.185523
 H    3.198413   -3.864290    0.822383
 H    1.518350    0.974449   -2.276049
 H    2.986961    2.948575   -2.314386
 H    4.585702    1.828657    1.490181
 H   -5.477487   -0.725619    1.427270
 H   -4.169809   -1.246340    0.326110
 H   -6.475149   -1.428308   -0.725323
 H   -5.406016   -0.295751   -1.604281
 H   -7.176397    2.485603   -0.189933
 H   -5.830217    2.055663   -1.285343
 H   -4.862357    2.815492    0.856049
 H   -5.888586    1.656241    1.753460
