38 
3np9_ligand_xtb.xyz
 C   -1.800503   -0.929783    0.541685
 O   -1.433180   -2.127237    1.080061
 C   -0.829601   -0.003441    0.167295
 C   -1.195874    1.213028   -0.387996
 C   -2.535063    1.535902   -0.571009
 O   -2.990920    2.699535   -1.098917
 C   -3.514026    0.614946   -0.194770
 C   -3.139435   -0.593402    0.350477
Cl   -4.351259   -1.746837    0.825945
 C   -2.049045    3.672724   -1.489572
 C    0.622956   -0.357945    0.349213
 C    1.144491   -1.160931   -0.859658
 O    0.410526   -2.327507   -1.128624
 C    2.621640   -1.504371   -0.610217
 O    3.181868   -2.166134   -1.719340
 C    3.416910   -0.219714   -0.351577
 O    4.740766   -0.504684    0.009392
 C    2.752103    0.566982    0.784569
 O    1.385942    0.817015    0.502475
 C    3.413027    1.933026    0.986588
 O    2.853273    2.622778    2.069364
 H   -2.246555   -2.609126    1.304306
 H   -0.404962    1.893068   -0.653612
 H   -4.552195    0.865256   -0.337193
 H   -2.633096    4.507022   -1.874180
 H   -1.447751    4.011439   -0.640590
 H   -1.389390    3.297909   -2.277852
 H    0.725508   -0.989895    1.249244
 H    1.076907   -0.536820   -1.760241
 H    0.038449   -2.664498   -0.301914
 H    2.693383   -2.154066    0.280529
 H    2.500836   -2.754363   -2.071898
 H    3.392306    0.386593   -1.272372
 H    5.072709   -1.153068   -0.625214
 H    2.841512   -0.017827    1.713584
 H    4.471973    1.790852    1.203367
 H    3.305407    2.512615    0.058492
 H    1.894669    2.598882    1.959031
