35 
3npa_ligand_dft.xyz
 C   -1.201742    1.230618   -0.788080
 O   -0.723485    2.333568   -1.428396
 C   -0.358150    0.229183   -0.279296
 C   -0.910934   -0.874613    0.357842
 C   -2.290175   -1.031200    0.477060
 O   -2.754432   -2.140817    1.101214
 C   -3.109800   -0.040728   -0.064312
Br   -4.995293   -0.242950    0.074254
 C   -2.580087    1.082017   -0.684527
 C    1.138814    0.342569   -0.454579
 C    1.802005    1.283868    0.563297
 O    1.279283    2.589786    0.400893
 C    3.301115    1.295212    0.330202
 O    3.868706    2.161153    1.290382
 C    3.873822   -0.109216    0.403094
 O    5.241056    0.003071    0.083430
 C    3.097102   -1.008638   -0.571426
 O    1.709955   -0.944459   -0.309690
 C    3.453913   -2.481706   -0.424856
 O    4.855461   -2.615589   -0.615646
 H    0.041006    2.667862   -0.923997
 H   -0.268262   -1.655847    0.745669
 H   -3.722936   -2.113661    1.098869
 H   -3.225616    1.854100   -1.086318
 H    1.345417    0.733413   -1.465208
 H    1.586790    0.911595    1.574827
 H    1.885758    3.195351    0.849912
 H    3.488428    1.680932   -0.686129
 H    4.827380    2.111893    1.175498
 H    3.731432   -0.497938    1.425600
 H    5.573380   -0.899873   -0.043800
 H    3.314730   -0.676278   -1.599378
 H    3.153689   -2.810971    0.579941
 H    2.890868   -3.065463   -1.163579
 H    5.105513   -3.529781   -0.444835
