77 
3npc_ligand_xtb.xyz
 C    1.515726    0.578858   -0.181339
 O    1.307607    1.748147   -0.395425
 N    0.532015   -0.399956   -0.113803
 C   -0.834740   -0.244362   -0.293337
 C   -1.704686   -1.348803   -0.026629
 C   -3.102257   -1.188456   -0.234977
 C   -3.600924    0.065874   -0.672449
 C   -1.255158   -2.603741    0.436592
 C   -2.118315   -3.640653    0.663458
 C   -3.488637   -3.482837    0.429519
 C   -3.965677   -2.280060   -0.007563
 C   -2.745684    1.103539   -0.918675
 C   -1.369708    0.943952   -0.736315
 N    2.760083    0.048107    0.022110
 C    3.933391    0.797178    0.047586
 C    4.149460    2.149066    0.157913
 C    5.553743    2.282273    0.232557
 N    6.132916    1.101310    0.183094
 N    5.155504    0.190351    0.053303
 C    5.469214   -1.171930   -0.034366
 C    5.892120    4.286319    1.632748
 C    7.828314    3.253734    0.424149
 C    6.036019    4.436636   -0.865479
 C    6.331982    3.558662    0.356399
 C    6.531329   -1.665417    0.718233
 C    6.862127   -3.002747    0.650453
 C    6.146733   -3.880055   -0.159632
 C    5.105209   -3.372045   -0.924442
 C    4.768846   -2.030449   -0.876570
 C    6.522657   -5.327122   -0.230755
 O   -4.990521    0.150772   -0.796105
 C   -5.525576    1.294962   -1.404347
 C   -7.029395    1.090344   -1.582570
 N   -7.741106    1.043852   -0.278347
 C   -7.614253   -0.272053    0.404088
 C   -8.305921   -0.203871    1.767191
 O   -9.660895    0.135226    1.620692
 C   -9.815612    1.383587    1.004312
 C   -9.180047    1.390720   -0.392449
 H    0.836029   -1.332434    0.119909
 H   -0.205868   -2.772686    0.630545
 H   -1.743441   -4.587986    1.019090
 H   -4.159554   -4.311678    0.595098
 H   -5.019564   -2.152712   -0.203411
 H   -3.095727    2.064688   -1.259604
 H   -0.716732    1.775051   -0.937012
 H    2.879970   -0.940640    0.194413
 H    3.402294    2.912168    0.177275
 H    4.831467    4.522445    1.596550
 H    6.077909    3.664835    2.506074
 H    6.449512    5.213518    1.743805
 H    8.048081    2.634581    1.289183
 H    8.142276    2.713634   -0.464289
 H    8.396689    4.177898    0.497372
 H    6.340816    3.928589   -1.777596
 H    4.973762    4.658360   -0.932953
 H    6.582207    5.374257   -0.792506
 H    7.087661   -0.979787    1.336854
 H    7.688343   -3.377171    1.236275
 H    4.556622   -4.030289   -1.583109
 H    3.996952   -1.649371   -1.530242
 H    7.395246   -5.451779   -0.872009
 H    6.778778   -5.708448    0.755334
 H    5.711910   -5.923412   -0.641920
 H   -5.076338    1.457418   -2.393391
 H   -5.337858    2.191875   -0.791871
 H   -7.211128    0.152811   -2.110871
 H   -7.429020    1.917399   -2.171869
 H   -7.300529    1.740869    0.337635
 H   -6.556827   -0.518150    0.508795
 H   -8.104956   -1.022730   -0.218654
 H   -7.792810    0.521375    2.417810
 H   -8.282480   -1.182920    2.246927
 H   -9.368744    2.179498    1.621222
 H  -10.889195    1.560517    0.926639
 H   -9.662696    0.640707   -1.022335
 H   -9.290143    2.374282   -0.850800
