77 
3npc_ligand_dft.xyz
 C    1.182352    0.209279   -0.626014
 O    0.814419    1.352532   -0.811803
 N    0.324933   -0.885894   -0.671074
 C   -1.045392   -0.801265   -0.974880
 C   -1.956380   -1.666130   -0.285851
 C   -3.339129   -1.627978   -0.620259
 C   -3.782404   -0.671046   -1.577392
 C   -1.542047   -2.555345    0.739996
 C   -2.434605   -3.389796    1.363055
 C   -3.795450   -3.385442    0.988073
 C   -4.238031   -2.518064    0.022735
 C   -2.894589    0.154647   -2.213819
 C   -1.517249    0.076565   -1.919873
 N    2.480194   -0.149117   -0.347801
 C    3.523348    0.765352   -0.192605
 C    3.562655    2.136743   -0.152479
 C    4.923595    2.439809    0.113943
 N    5.655458    1.344656    0.227970
 N    4.794012    0.313523    0.019285
 C    5.248375   -1.024347    0.121989
 C    4.788986    4.590608    1.351080
 C    7.020697    3.717667    0.608944
 C    5.378361    4.560762   -1.090450
 C    5.533953    3.817512    0.248640
 C    6.046249   -1.394479    1.204489
 C    6.491092   -2.703411    1.309782
 C    6.144759   -3.672127    0.359786
 C    5.350949   -3.280759   -0.717038
 C    4.914573   -1.964265   -0.851076
 C    6.645552   -5.087587    0.494049
 O   -5.147322   -0.630705   -1.778257
 C   -5.724020    0.582985   -2.183246
 C   -7.057292    0.737048   -1.470687
 N   -6.921597    1.226357   -0.049951
 C   -6.049174    0.363857    0.834365
 C   -6.039077    0.924728    2.249199
 O   -7.339114    1.030824    2.772161
 C   -8.117167    1.918895    2.015836
 C   -8.275803    1.414908    0.586303
 H    0.710185   -1.810946   -0.556284
 H   -0.505398   -2.555772    1.059318
 H   -2.093770   -4.057899    2.147328
 H   -4.488539   -4.071462    1.464704
 H   -5.278239   -2.522504   -0.284902
 H   -3.220606    0.852211   -2.978623
 H   -0.826617    0.730598   -2.434595
 H    2.706159   -1.111167   -0.135467
 H    2.730592    2.806459   -0.287450
 H    3.723538    4.695359    1.117752
 H    4.876684    4.077943    2.315023
 H    5.210628    5.596542    1.458708
 H    7.163284    3.195132    1.559706
 H    7.577758    3.170463   -0.156776
 H    7.447463    4.722870    0.698700
 H    5.898518    4.028048   -1.893476
 H    4.324208    4.656204   -1.373656
 H    5.802451    5.568811   -1.016538
 H    6.317289   -0.644851    1.939445
 H    7.118213   -2.984040    2.152091
 H    5.090078   -4.006343   -1.482992
 H    4.352706   -1.659456   -1.729553
 H    7.732235   -5.130986    0.360914
 H    6.422761   -5.494544    1.486104
 H    6.192083   -5.746408   -0.251780
 H   -5.904984    0.589082   -3.264716
 H   -5.065854    1.434085   -1.954665
 H   -7.576836   -0.222921   -1.431185
 H   -7.690562    1.465583   -1.983795
 H   -6.475685    2.149525   -0.091288
 H   -5.044059    0.339308    0.414083
 H   -6.471958   -0.641604    0.803702
 H   -5.529727    1.902594    2.270737
 H   -5.480859    0.239803    2.889467
 H   -7.677100    2.930229    2.019010
 H   -9.101502    1.976721    2.483610
 H   -8.761314    0.436292    0.574732
 H   -8.844214    2.113198   -0.032764
