32 
3nrm_ligand_xtb.xyz
 C   -4.152395    0.187544    0.016804
 N    1.789784    0.993698    0.068597
 S    3.358908   -1.208239   -0.078801
 C   -1.470484   -1.463296   -0.137183
 N   -0.981026    2.010417    0.105218
 C   -0.189525   -1.916344   -0.165410
 N   -1.674803   -0.115535   -0.017563
 N   -6.321591    0.060586   -0.253246
 C    0.706312    0.182865    0.005822
 N   -5.989537   -1.064553    0.368347
 C   -0.593342    0.747990    0.035077
 N    4.986756   -1.010338   -0.063119
 C   -2.792678    0.665869    0.024485
 N    0.890728   -1.115867   -0.085331
 C   -4.686958   -1.011231    0.541896
 C   -2.322594    1.969456    0.095077
 C   -5.258059    0.853283   -0.484523
 C    3.064990    0.492195    0.036021
 C    4.257200    1.165555    0.082814
 C    6.770770    0.638120    0.044758
 C    5.331608    0.247537    0.021789
 H    1.630191    1.988819    0.136700
 H   -2.332957   -2.100413   -0.223681
 H    0.027412   -2.968834   -0.257235
 H   -4.183746   -1.804691    1.056666
 H   -2.900375    2.870402    0.152711
 H   -5.340182    1.799542   -0.977947
 H    4.364045    2.231984    0.155398
 H    7.388771   -0.254429    0.055973
 H    7.012956    1.229521   -0.837340
 H    6.984950    1.238738    0.927213
 H   -7.284829    0.235077   -0.492543
