64 
3nsh_ligand_dft.xyz
 C   -2.344513   -0.574647    3.250932
 C   -1.753811   -1.225040    2.029161
 N   -2.631064   -1.631866    1.075901
 C   -2.294490   -1.926147   -0.320271
 C   -1.630034   -3.340664   -0.516770
 C   -0.147865   -3.369390   -0.887298
 N    0.699004   -3.096818    0.310250
 C    2.092894   -2.649467    0.022062
 C    2.129256   -1.259915   -0.492865
 C    1.972742   -0.116257    0.241428
 C    1.938305    1.076085   -0.546597
 C    2.063991    0.786288   -1.878063
 S    2.242019   -0.896534   -2.186519
 C    1.817241    2.467595    0.013795
 C    3.145888    3.112097    0.491691
 C    4.127972    3.243252   -0.678565
 C    2.808535    4.507894    1.034231
 C    3.784295    2.275654    1.608364
 O   -0.532116   -1.348509    1.906553
 C   -1.544642   -0.772631   -1.021957
 C   -2.206390    0.562043   -0.787378
 C   -3.363535    0.921539   -1.477685
 C   -3.954737    2.147930   -1.204387
 C   -3.443019    3.033283   -0.265958
 C   -2.293770    2.643415    0.402871
 C   -1.669583    1.427624    0.165032
 F   -5.058449    2.490095   -1.869139
 F   -1.764436    3.463160    1.316694
 O   -1.731028   -4.163140    0.621763
 C    3.144647   -3.154010    0.971266
 C    3.057039   -3.712582   -0.424002
 H   -3.381065   -0.867152    3.435006
 H   -1.733137   -0.819210    4.120407
 H   -2.311382    0.510950    3.105400
 H   -3.586837   -1.339872    1.224265
 H   -3.275439   -1.999768   -0.798660
 H   -2.147600   -3.798605   -1.372064
 H    0.099900   -2.638446   -1.655377
 H    0.117103   -4.361787   -1.256893
 H    0.225642   -2.359594    0.901529
 H    0.689714   -3.934446    0.897621
 H    1.865251   -0.121413    1.321270
 H    2.092306    1.490492   -2.699439
 H    1.118487    2.459641    0.860180
 H    1.369578    3.118603   -0.746542
 H    5.046417    3.743005   -0.352658
 H    3.696537    3.838271   -1.492542
 H    4.406809    2.264294   -1.083608
 H    3.712642    5.013244    1.390031
 H    2.357415    5.136339    0.257742
 H    2.104191    4.449478    1.872396
 H    3.086716    2.129515    2.442647
 H    4.099754    1.290610    1.245884
 H    4.672717    2.779893    2.002906
 H   -0.511924   -0.712254   -0.672012
 H   -1.512032   -0.994683   -2.095062
 H   -3.800673    0.279940   -2.236337
 H   -3.916823    3.987950   -0.073926
 H   -0.767464    1.169754    0.708848
 H   -2.555166   -3.967899    1.085772
 H    2.838301   -3.791500    1.796380
 H    3.949415   -2.467524    1.207911
 H    2.683773   -4.726397   -0.540221
 H    3.811604   -3.425907   -1.148344
