70 
3nu3_ligand_xtb.xyz
 C    6.564241    0.888878    0.909356
 C    6.829949   -0.383286   -1.131700
 C    3.565343    0.683718    0.090377
 C    5.795925   -0.047035   -0.050238
 C    1.247344    1.397921   -0.070048
 C    0.491620    0.160562   -0.611233
 C    0.588156    2.723920   -0.467670
 C   -0.799370    2.861624    0.087369
 C   -1.904407    2.822206   -0.753309
 C   -1.003915    3.015025    1.453629
 C   -3.185373    2.927994   -0.240731
 C   -2.284051    3.110095    1.968938
 C   -3.378996    3.064412    1.122572
 C   -0.706305   -0.223674    0.281825
 C   -0.702771   -2.511547    1.285210
 C    0.778995   -2.915174    1.305727
 C   -3.591876   -1.044249   -0.522651
 C   -4.217932   -0.292491   -1.499736
 C   -5.332486    0.454011   -1.180324
 C   -5.826980    0.464666    0.129158
 C   -5.176107   -0.300704    1.104516
 C   -4.070853   -1.055292    0.775237
 C    1.130031   -3.665202    0.024533
 C    1.056533   -3.779304    2.532917
 C    8.125207    0.224692   -0.578477
 N    2.611535    1.391064   -0.555958
 N   -1.024018   -1.626309    0.194055
 N   -6.958274    1.166112    0.439357
 O    4.686299    0.600722   -0.663059
 O    3.455776    0.217695    1.199289
 O    0.109598    0.411621   -1.936550
 O   -2.471196   -3.424864   -0.766458
 O   -1.687555   -1.605226   -2.222230
 O    7.721235    1.308466    0.225922
 S   -2.164529   -2.035287   -0.928964
 H    6.833448    0.341081    1.823090
 H    5.983080    1.771420    1.176398
 H    6.531775    0.116544   -2.052287
 H    6.916023   -1.451310   -1.312640
 H    5.424149   -0.925629    0.486740
 H    1.319297    1.310277    1.018378
 H    1.200998   -0.683493   -0.579182
 H    0.553127    2.768189   -1.556005
 H    1.220179    3.534761   -0.098300
 H   -1.756758    2.697105   -1.815340
 H   -0.152711    3.062458    2.117523
 H   -4.033360    2.901692   -0.908464
 H   -2.428419    3.226265    3.033302
 H   -4.378454    3.143672    1.524843
 H   -1.580778    0.354096   -0.034650
 H   -0.488670    0.023359    1.323639
 H   -0.974445   -2.041763    2.240787
 H   -1.315005   -3.403074    1.136572
 H    1.388045   -2.007082    1.372606
 H   -3.815321   -0.304456   -2.499871
 H   -5.835047    1.034510   -1.939962
 H   -5.553271   -0.298997    2.116419
 H   -3.569988   -1.656352    1.517670
 H    2.196989   -3.872207   -0.018148
 H    0.587626   -4.607069   -0.018983
 H    0.849099   -3.079399   -0.847671
 H    2.103974   -4.068062    2.559371
 H    0.449749   -4.681847    2.505835
 H    0.829395   -3.236290    3.447554
 H    8.665193   -0.517654    0.029312
 H    8.790720    0.611642   -1.349562
 H    2.746174    1.559111   -1.541370
 H   -7.284076    1.859675   -0.210692
 H   -7.174120    1.319441    1.408722
 H   -0.485643   -0.310023   -2.221177
