17 
3nuy_ligand_xtb.xyz
 C    2.391459    1.005816   -0.002760
 C    2.694322   -0.355008    0.001692
 C    1.078860    1.420779   -0.002963
 C    1.691824   -1.298456    0.003514
 C   -1.844068   -1.466275   -0.002676
 C    0.048721    0.478729   -0.000652
 C    0.352765   -0.896388    0.000772
 C   -1.348228    0.905118    0.001041
 N   -0.631331   -1.858384   -0.001476
 N   -2.241762   -0.165221   -0.000057
 O   -1.758558    2.045095    0.003537
 H    3.189708    1.732670   -0.005735
 H    3.727254   -0.670305    0.003414
 H    0.814176    2.467279   -0.005045
 H    1.908608   -2.354782    0.006854
 H   -2.628250   -2.212375   -0.006013
 H   -3.225316    0.076091    0.001159
