66 
3nw3_ligand_xtb.xyz
 C   -1.544475   -2.819955   -0.221245
 O   -0.151511   -2.778867   -0.238355
 C   -2.240658   -1.635216   -0.930575
 N   -1.821117   -1.327224   -2.288525
 C   -0.781763   -1.725677   -3.036760
 O   -0.037041   -2.663117   -2.772147
 C   -0.627405   -0.922395   -4.303296
 C   -2.160320   -0.315591   -0.138541
 O   -3.123787    0.500170   -0.793281
 C   -2.457565   -0.511945    1.360700
 O   -2.110325    0.616372    2.120857
 C   -1.715690   -1.753544    1.877473
 O   -2.007457   -2.902612    1.088015
 C   -2.131612   -2.103187    3.309147
 O   -1.358843   -3.147270    3.829886
 C   -3.198504    1.867805   -0.419877
 C   -4.173466    2.533704   -1.385251
 C   -1.821579    2.536227   -0.544833
 O   -1.230826    2.629267   -1.600227
 N   -1.348122    3.044830    0.618719
 C    0.041633    3.446399    0.717560
 C    0.260002    4.316090    1.949419
 C    0.885033    2.172583    0.817055
 O    0.528419    1.224431    1.504491
 N    2.029990    2.145923    0.124106
 C    2.773538    0.897458    0.065999
 C    3.842249    0.954295   -1.023784
 C    4.664714   -0.336414   -1.088400
 C    5.463003   -0.521142    0.197789
 N    4.917222   -1.387279    1.076860
 O    6.499183    0.067266    0.412652
 C    1.756971   -0.212288   -0.240973
 O    0.917778   -0.095245   -1.096117
 O    1.919917   -1.288435    0.501847
 H   -1.885923   -3.753879   -0.697844
 H    0.086212   -2.833602   -1.213573
 H   -3.307782   -1.898781   -0.973906
 H   -2.285732   -0.478983   -2.590384
 H   -0.300313    0.080268   -4.034177
 H    0.123217   -1.386538   -4.936263
 H   -1.570038   -0.853603   -4.839974
 H   -1.153544    0.111320   -0.251403
 H   -3.537996   -0.649741    1.489097
 H   -1.138665    0.733769    2.067880
 H   -0.634477   -1.553974    1.857586
 H   -1.980022   -1.237802    3.956356
 H   -3.197909   -2.370414    3.303796
 H   -1.369412   -3.860708    3.179519
 H   -3.564926    1.951920    0.612216
 H   -5.102030    1.971046   -1.411451
 H   -3.736753    2.550060   -2.380392
 H   -4.373705    3.552280   -1.065466
 H   -1.777936    2.732000    1.479601
 H    0.288347    3.987482   -0.201176
 H   -0.392115    5.184654    1.911416
 H    0.038204    3.745597    2.848799
 H    1.292933    4.650784    1.994830
 H    2.236937    2.859320   -0.556518
 H    3.218781    0.701353    1.047914
 H    3.349498    1.119336   -1.985039
 H    4.514491    1.790530   -0.819560
 H    4.017456   -1.194410   -1.267985
 H    5.376738   -0.251963   -1.910132
 H    3.996231   -1.772779    0.948654
 H    5.375953   -1.524103    1.962959
 H    1.179788   -1.933112    0.325887
