62 
3nw9_ligand_xtb.xyz
 C    3.679864   -0.411731   -1.392937
 C    4.230050    0.352493   -0.163108
 O    4.702110    1.628436   -0.463932
 C    5.367040   -0.578927    0.278536
 O    6.518040   -0.392735   -0.493156
 C    4.728461   -1.946530   -0.014933
 C   -2.068962    1.653339   -2.132809
 N    0.116161   -0.660424   -2.058456
 C    1.319876   -1.132534   -1.967545
 N    2.248230   -0.232385   -1.523206
 C    1.561622    0.926376   -1.318382
 C    0.217913    0.653489   -1.673399
 O    4.010959   -1.760101   -1.235623
 C    3.825165   -2.335890    1.120627
 C    2.555778   -2.665518    0.966660
 C    1.577945   -2.869499    2.082215
 N    0.422519   -2.013333    1.866256
 C    0.541846   -0.681711    1.720693
 O    1.636246   -0.120397    1.838361
 C   -0.697676    0.082189    1.463451
 C   -1.872134   -0.506450    0.987839
 C   -3.024297    0.237641    0.800352
 C   -3.012670    1.600433    1.105843
 C   -4.242789   -0.392093    0.269139
 C   -4.163519   -1.331012   -0.758640
 C   -5.304090   -1.917393   -1.273548
 C   -5.496288   -0.053755    0.775569
 C   -6.645148   -0.635451    0.274701
 C   -6.532084   -1.560520   -0.747209
 F   -7.650221   -2.130686   -1.244146
 C   -0.678182    1.461356    1.703565
 O    0.421903    2.136863    2.101945
 C   -1.856478    2.215907    1.538717
 O   -1.841959    3.541190    1.797503
 C   -0.670002    1.728777   -1.636484
 N   -0.218028    2.894743   -1.186753
 C    1.048475    3.022770   -0.837073
 N    2.004558    2.109543   -0.904815
 H    4.154647   -0.027742   -2.313306
 H    3.458271    0.371752    0.616764
 H    3.914849    2.184912   -0.621319
 H    5.597180   -0.454028    1.344950
 H    6.575787    0.553664   -0.686857
 H    5.494908   -2.703328   -0.207996
 H   -2.076711    1.897143   -3.195268
 H   -2.686698    2.377944   -1.611637
 H   -2.461000    0.649140   -2.009517
 H    1.600482   -2.134238   -2.228152
 H    4.271222   -2.272777    2.102372
 H    2.131713   -2.727707   -0.025426
 H    2.047269   -2.618845    3.039126
 H    1.225616   -3.902534    2.113139
 H   -0.485163   -2.437540    1.783712
 H   -1.892005   -1.556734    0.741010
 H   -3.892911    2.206556    0.965280
 H   -3.201405   -1.589768   -1.175819
 H   -5.252424   -2.637709   -2.074620
 H   -5.569514    0.658886    1.582560
 H   -7.618752   -0.382891    0.663955
 H    1.168818    1.488739    2.105873
 H   -0.932390    3.790010    2.018744
 H    1.349418    3.995679   -0.473271
