34 
3nyx_ligand_xtb.xyz
 C    6.377172    0.540423    0.039269
 N    4.828299    2.324854    0.012608
 O   -4.090172   -1.414583   -0.033511
 S    1.351623   -0.644814   -0.082044
Cl    8.269183   -1.366751    0.072753
 C    5.043747    0.995696    0.010460
 N   -1.679147    1.774990    0.016204
 S   -1.628452   -0.796661   -0.053038
 C    3.982271    0.045682   -0.019803
 N   -0.389478    1.464238   -0.007799
 S   -7.057326   -1.479401    0.020043
 C    4.300007   -1.325496   -0.022157
 N   -3.814752    0.823958    0.015857
 C    5.600021   -1.746960    0.005484
 C    6.638131   -0.802107    0.036743
 C    3.598263    2.749846   -0.013450
 C    2.465980    1.917833   -0.042792
 C    2.658693    0.560147   -0.044848
 C   -0.162590    0.195507   -0.044407
 C   -2.453679    0.742052   -0.002234
 C   -4.597572   -0.309586   -0.001257
 C   -6.033446   -0.082383    0.021633
 C   -6.767406    1.079573    0.043041
 C   -8.150334    0.841480    0.058584
 C   -8.449323   -0.489304    0.048921
 H    7.164780    1.275553    0.062851
 H    3.498278   -2.048480   -0.046056
 H   -4.212002    1.750790    0.046145
 H    5.840257   -2.798272    0.003990
 H    3.467061    3.823887   -0.012001
 H    1.477023    2.342318   -0.059667
 H   -6.345840    2.069330    0.046101
 H   -8.890422    1.620813    0.076062
 H   -9.421427   -0.941178    0.057276
