60 
3nzk_ligand_dft.xyz
 C    7.522931   -0.936673   -0.816374
 C    6.027127   -0.860161   -0.860536
 C    3.226973   -0.675127   -0.857455
 C    1.805990   -0.576141   -0.853439
 O    9.797714    1.739220    1.613017
 C    0.598605   -0.486949   -0.850676
 C   -0.825460   -0.369142   -0.851482
 C   -7.762978   -1.364222    1.233193
 C   -3.608051   -0.122185   -0.842998
 C   -5.095650    0.067703   -0.891818
 C   -7.253685   -0.334414    0.207470
 C   -7.554159   -2.794787    0.769277
 C   -7.650477    1.078653    0.643476
 C    8.426244    2.017563    1.488715
 C   10.026951    0.367851    1.803300
 C    7.835942    1.319611    0.269842
 C    9.537085   -0.437269    0.604081
 N    8.077169   -0.162931    0.370399
 C    5.378155    0.038231   -1.711650
 C    5.264577   -1.675917   -0.017862
 C    3.994343    0.131433   -1.712976
 C    3.881565   -1.584577   -0.010486
 C   -1.607199   -1.233438   -0.073111
 C   -1.449843    0.611199   -1.636622
 C   -2.988905   -1.109285   -0.072254
 C   -2.830193    0.726311   -1.633033
 O   -5.629504    0.651697   -1.833945
 N   -5.806603   -0.435135    0.143432
 O   -7.055896   -1.185941    2.446444
 N   -7.699404    1.986769   -0.341486
 O   -7.920454    1.383050    1.811013
 O   -7.847034    3.314918    0.021122
 H    7.877977   -1.963296   -0.689995
 H    7.995899   -0.510004   -1.704295
 H   -8.835410   -1.180507    1.382929
 H   -7.658987   -0.537436   -0.788317
 H   -8.106829   -2.988308   -0.155137
 H   -7.905987   -3.484014    1.540582
 H   -6.493631   -2.994765    0.586912
 H    8.321017    3.096777    1.367500
 H    7.882198    1.721077    2.400750
 H    9.537666    0.011897    2.725210
 H   11.103193    0.227095    1.915059
 H    8.331306    1.652319   -0.645890
 H    6.759630    1.477726    0.182757
 H   10.060681   -0.138002   -0.307126
 H    9.658639   -1.512089    0.758049
 H    7.559177   -0.493202    1.192671
 H    5.957017    0.663114   -2.387512
 H    5.751317   -2.407040    0.625535
 H    3.493482    0.824415   -2.379910
 H    3.292946   -2.222755    0.639216
 H   -1.126767   -2.004073    0.520284
 H   -0.845129    1.273998   -2.246434
 H   -3.579255   -1.808029    0.512638
 H   -3.329859    1.470440   -2.243448
 H   -5.369987   -0.706925    1.015820
 H   -7.317513   -0.303638    2.763730
 H   -7.153102    1.857163   -1.190335
 H   -8.015748    3.243986    0.981652
