47 
3nzs_ligand_dft.xyz
 C    1.252634    2.720553    0.172475
 N    2.557991    0.758516   -0.509655
 O   -4.060458   -1.257490    0.179719
 S    1.248940   -3.655068    0.527453
 C    2.442371    2.023416   -0.079113
 N    0.152190    0.726346   -0.483462
 O    1.260009   -4.684675   -0.513465
 C    1.372687    0.187330   -0.712502
 N    2.991888    4.082624    0.632308
 O    1.202371   -4.024078    1.938499
 C    0.069948    1.973512   -0.046905
 N    3.453386    2.874222    0.208401
 C    1.678727    4.000903    0.616950
 N   -1.151450    2.529373    0.196539
 C    4.870793    2.621819    0.109784
 N    1.359959   -1.095626   -1.218033
 C   -2.435236    1.959908    0.082629
 C   -2.664505    0.593042    0.184052
 C   -3.965091    0.093394    0.085165
 C   -5.047274    0.955327   -0.089771
 C   -4.801505    2.325949   -0.168207
 C   -3.516447    2.835833   -0.089864
 C   -5.345270   -1.836574    0.118490
 C    2.567367   -1.899553   -1.128219
 C    2.674084   -2.589292    0.238834
 C   -0.107985   -2.530301    0.155703
 C    0.122270   -1.860104   -1.204306
 H    1.091709    4.856937    0.923087
 H   -1.137784    3.511682    0.424973
 H    5.338573    2.711820    1.093310
 H    5.000351    1.607296   -0.269602
 H    5.330787    3.335862   -0.577374
 H   -1.849881   -0.098093    0.334012
 H   -6.062732    0.585982   -0.165494
 H   -5.636731    3.006378   -0.303298
 H   -3.344961    3.905658   -0.172630
 H   -5.986861   -1.477701    0.933224
 H   -5.832684   -1.632680   -0.843411
 H   -5.196070   -2.911514    0.225301
 H    3.433255   -1.256476   -1.278840
 H    2.543524   -2.653439   -1.920651
 H    3.546190   -3.246584    0.301844
 H    2.714403   -1.856740    1.049858
 H   -0.158371   -1.792448    0.961548
 H   -1.017331   -3.137740    0.167713
 H    0.185842   -2.626561   -1.982490
 H   -0.712800   -1.199751   -1.432206
