102 
3nzw_ligand_dft.xyz
 O   -7.189508    0.765957    1.026089
 C   -7.280899    0.297212   -0.096987
 O   -8.383284    0.280033   -0.868543
 C   -9.621550    0.890118   -0.408738
 C  -10.571358    0.648065   -1.579273
 C  -10.128722    0.184334    0.848396
 C   -9.419107    2.388350   -0.183816
 O   -4.263703   -1.098021   -2.337599
 C   -3.935973   -0.586867   -1.271485
 C   -4.949390   -0.397727   -0.142951
 N   -6.249526   -0.291641   -0.750934
 C   -4.877775   -1.571252    0.870907
 C   -3.555867   -1.595967    1.590348
 C   -3.249881   -0.586413    2.511381
 C   -1.977006   -0.463167    3.042348
 C   -0.974521   -1.361432    2.667030
 C   -1.277240   -2.415629    1.806371
 C   -2.559092   -2.512774    1.268257
 O    0.254612   -1.123082    3.190194
 C    1.384170   -1.696828    2.549436
 C    2.551673   -0.776421    2.789024
 C    2.575143    0.473999    2.161935
 C    3.645971    1.341232    2.357109
 C    4.701605    0.967503    3.190111
 C    4.676098   -0.268579    3.831995
 C    3.601499   -1.137152    3.630392
 N   -2.673036   -0.180886   -1.012323
 C   -1.599585   -0.475519   -1.933477
 C   -0.290822   -0.547187   -1.156547
 O   -0.100113    0.104638   -0.138273
 C   -1.466528    0.599143   -3.024609
 N    0.652863   -1.352705   -1.721442
 C    2.064689   -1.149455   -1.429593
 C    2.855861   -2.369493   -1.904717
 C    4.284125   -2.491183   -1.351549
 O    4.882881   -3.678325   -1.826182
 C    4.236737   -2.521272    0.198422
 O    3.652599   -3.361270    0.856528
 N    4.954567   -1.455171    0.654757
 C    5.513941   -0.716232   -0.395671
 C    6.263277    0.444726   -0.319301
 C    6.696382    1.005968   -1.523575
 C    6.372398    0.430083   -2.749562
 C    5.594861   -0.731265   -2.801935
 C    5.170962   -1.300984   -1.617502
 C    2.484651    0.143421   -2.149174
 O    2.304851    0.269236   -3.354162
 N    2.968419    1.108738   -1.347933
 C    3.324028    2.432655   -1.821494
 C    3.200566    3.414000   -0.681734
 C    1.980348    3.551715   -0.011775
 C    1.867239    4.412828    1.073602
 C    2.972680    5.147021    1.502268
 C    4.189834    5.013448    0.841634
 C    4.302022    4.146534   -0.244211
 H  -10.694934   -0.424137   -1.759414
 H  -11.552752    1.080670   -1.361161
 H  -10.181322    1.110378   -2.491115
 H  -10.220977   -0.891448    0.666455
 H   -9.450233    0.346863    1.686758
 H  -11.118402    0.573361    1.110351
 H   -9.010329    2.852782   -1.087287
 H  -10.382860    2.858990    0.037247
 H   -8.737167    2.569636    0.648237
 H   -4.740387    0.532311    0.396560
 H   -6.359492   -0.658651   -1.685919
 H   -5.055969   -2.508383    0.332199
 H   -5.704591   -1.422492    1.572791
 H   -4.018968    0.130491    2.791110
 H   -1.724796    0.335842    3.731499
 H   -0.524682   -3.147060    1.532595
 H   -2.775243   -3.308790    0.559571
 H    1.583870   -2.701345    2.940608
 H    1.194663   -1.783620    1.473791
 H    1.740192    0.758964    1.523612
 H    3.656446    2.311614    1.870591
 H    5.533051    1.648186    3.349557
 H    5.487375   -0.557788    4.493745
 H    3.585553   -2.105879    4.121585
 H   -2.404150    0.145027   -0.091279
 H   -1.812967   -1.440702   -2.405919
 H   -2.389686    0.627340   -3.608028
 H   -0.624149    0.388994   -3.691919
 H   -1.305027    1.577262   -2.561727
 H    0.466753   -1.654400   -2.669754
 H    2.153082   -1.033427   -0.345838
 H    2.909508   -2.371034   -2.999189
 H    2.311749   -3.265129   -1.582492
 H    4.442933   -4.409547   -1.367150
 H    5.045257   -1.231043    1.637881
 H    6.499238    0.900740    0.636528
 H    7.294190    1.912688   -1.498476
 H    6.718656    0.888524   -3.669990
 H    5.318294   -1.170745   -3.754749
 H    3.134593    0.901154   -0.373259
 H    2.640827    2.679125   -2.640606
 H    4.340164    2.433968   -2.230671
 H    1.126190    2.958208   -0.329588
 H    0.916858    4.508014    1.589730
 H    2.884700    5.817519    2.351776
 H    5.055649    5.578438    1.174273
 H    5.256942    4.029502   -0.750537
