102 
3nzx_ligand_xtb.xyz
 O    0.750133    1.421903   -1.877826
 C    1.688245    1.030305   -1.209287
 O    2.656009    1.781165   -0.681652
 C    2.647473    3.223308   -0.819333
 C    2.818771    3.604916   -2.289242
 C    3.858189    3.670716   -0.000130
 C    1.361740    3.814009   -0.240466
 O    0.379515   -3.501772   -0.704057
 C    0.614065   -2.339768   -0.438877
 C    1.176014   -1.362602   -1.486565
 N    1.871001   -0.261928   -0.861390
 C    2.084823   -2.114798   -2.484309
 C    3.454125   -2.298242   -1.895401
 C    3.715488   -3.327641   -0.996329
 C    4.940873   -3.421067   -0.372302
 C    5.941410   -2.481484   -0.627253
 C    5.697837   -1.466394   -1.544204
 C    4.462556   -1.383770   -2.163738
 O    7.100981   -2.645241    0.073016
 C    8.114153   -1.674688   -0.059533
 C    7.723673   -0.294380    0.415870
 C    6.697429   -0.121578    1.334453
 C    6.348429    1.146893    1.762841
 C    7.031067    2.253491    1.288669
 C    8.062537    2.086855    0.379602
 C    8.403805    0.820129   -0.058833
 N    0.389914   -1.787336    0.762690
 C   -0.134877   -2.530713    1.885236
 C   -1.451650   -1.921806    2.382142
 O   -1.801724   -1.963607    3.543644
 C    0.880461   -2.579187    3.023715
 N   -2.189286   -1.340950    1.417634
 C   -3.443090   -0.680523    1.684286
 C   -3.236540    0.600022    2.514894
 C   -2.541735    1.780700    1.802520
 O   -2.166655    2.747867    2.762740
 C   -1.297371    1.341772    0.996632
 O   -0.267517    0.902961    1.476915
 N   -1.526945    1.597326   -0.305060
 C   -2.740781    2.241010   -0.498969
 C   -3.290130    2.706771   -1.675364
 C   -4.513616    3.357848   -1.598212
 C   -5.157584    3.536402   -0.384338
 C   -4.602075    3.053923    0.795606
 C   -3.393468    2.400880    0.726481
 C   -4.113858   -0.428761    0.331807
 O   -3.511457   -0.587668   -0.712103
 N   -5.393910   -0.035701    0.407119
 C   -6.209240    0.219419   -0.765104
 C   -7.300415   -0.810392   -0.899010
 C   -6.965314   -2.138251   -1.136989
 C   -7.952573   -3.100557   -1.242319
 C   -9.285194   -2.744955   -1.111427
 C   -9.625684   -1.424959   -0.872915
 C   -8.636521   -0.462198   -0.763065
 H    3.742281    3.182361   -2.679412
 H    2.856049    4.686240   -2.385509
 H    1.983891    3.228163   -2.874227
 H    3.994321    4.744029   -0.092617
 H    4.752804    3.163764   -0.352810
 H    3.710657    3.417738    1.046107
 H    0.520326    3.628444   -0.901940
 H    1.477395    4.886828   -0.114120
 H    1.151349    3.365330    0.728074
 H    0.319346   -0.938649   -2.025130
 H    2.733694   -0.482012   -0.384069
 H    2.148988   -1.545291   -3.412327
 H    1.616695   -3.079289   -2.684651
 H    2.944187   -4.051513   -0.781958
 H    5.149922   -4.212784    0.329941
 H    6.449167   -0.727258   -1.772697
 H    4.282943   -0.581506   -2.865815
 H    8.472959   -1.628742   -1.098081
 H    8.933095   -2.055008    0.562547
 H    6.169816   -0.985241    1.711583
 H    5.542913    1.269642    2.471281
 H    6.762126    3.243264    1.626497
 H    8.600205    2.946558    0.007174
 H    9.204731    0.692682   -0.773871
 H    0.540757   -0.794071    0.909364
 H   -0.345416   -3.545622    1.523037
 H    1.766079   -3.129638    2.717925
 H    1.165083   -1.566905    3.301698
 H    0.431129   -3.061312    3.886775
 H   -1.916630   -1.372764    0.442538
 H   -4.072217   -1.354051    2.284837
 H   -4.195974    0.962692    2.888559
 H   -2.626445    0.316298    3.376504
 H   -1.404115    2.401033    3.244333
 H   -0.834804    1.455293   -1.042153
 H   -2.781442    2.570586   -2.616042
 H   -4.967570    3.737101   -2.501485
 H   -6.099992    4.062738   -0.352715
 H   -5.095535    3.202373    1.743770
 H   -5.845970    0.026758    1.305142
 H   -5.530724    0.175420   -1.621053
 H   -6.630947    1.226215   -0.695807
 H   -5.925010   -2.408658   -1.243535
 H   -7.683300   -4.129151   -1.430556
 H  -10.056615   -3.495589   -1.196706
 H  -10.663345   -1.143433   -0.770575
 H   -8.905216    0.568270   -0.577600
