30 
3o0j_ligand_xtb.xyz
 C   -2.561853   -2.010763    0.426719
 C   -1.475212   -1.193315    0.095987
 C   -3.844744   -1.510438    0.412836
 C   -1.696115    0.131396   -0.271676
 C   -4.078191   -0.179275    0.065804
 C   -2.990179    0.637630   -0.284915
 O   -0.255423   -1.779214    0.094277
 C    3.279775    0.377336    0.426543
 C    3.136653   -0.663410   -0.497557
 C    2.205591    0.700904    1.243544
 C    1.958059   -1.368402   -0.630617
 C    1.016284    0.003605    1.129090
 C    0.892315   -1.018199    0.190790
 C    4.416224   -0.843316   -1.259880
 O    5.324678    0.117534   -0.766580
 B    4.763995    0.880279    0.218787
 O    5.475231    1.851921    0.815406
 C   -5.392416    0.338871    0.064610
 C   -3.201820    1.986785   -0.658759
 N   -6.464954    0.742444    0.072653
 N   -3.349208    3.081679   -0.960856
 H   -2.369298   -3.037989    0.692445
 H   -4.680253   -2.141786    0.674942
 H   -0.871902    0.768020   -0.558689
 H    2.288215    1.491148    1.975853
 H    1.844775   -2.172223   -1.341049
 H    0.181383    0.238546    1.773891
 H    4.278837   -0.681489   -2.335432
 H    4.842507   -1.842371   -1.112336
 H    5.022782    2.349512    1.493931
