45 
3o0u_ligand_xtb.xyz
 C    2.074256   -1.362148   -0.488009
 C    2.806475   -0.184504   -0.392028
 C    2.159301    0.993100   -0.041987
 C    0.785099    0.989802    0.160874
 C    0.053197   -0.187863    0.057035
 C    0.710645   -1.376611   -0.255014
 C    2.811446   -2.620620   -0.852121
 F    3.827599   -2.866354   -0.000374
 F    3.369211   -2.545628   -2.074677
 F    2.041597   -3.712946   -0.850224
 N   -1.913776   -1.385536    0.666785
 C   -1.401112   -0.220918    0.271523
 C   -2.221509    0.885190    0.061852
 C   -3.585886    0.727891    0.303835
 N   -4.073020   -0.434211    0.714715
 C   -3.220255   -1.441742    0.871766
 C   -4.560574    1.835327    0.067012
 C   -4.992229    1.846776   -1.406038
 C   -5.981730    2.969834   -1.684344
 C    2.881747    2.309570   -0.012782
 N    3.951106    2.411466    0.804069
 O    2.498289    3.224817   -0.719546
 C    4.725130    3.631976    0.799541
 C    4.370769    1.421740    1.764101
 C   -3.781440   -2.732565    1.316181
 N   -4.991076   -2.959939    1.564778
 H    3.866484   -0.192636   -0.596357
 H    0.302227    1.921009    0.414897
 H    0.141660   -2.290673   -0.318416
 H   -1.829282    1.824755   -0.290853
 H   -4.103882    2.794367    0.318556
 H   -5.436977    1.677487    0.696353
 H   -5.448118    0.884568   -1.647797
 H   -4.110578    1.968291   -2.040075
 H   -6.871478    2.856221   -1.069553
 H   -5.534595    3.937306   -1.466354
 H   -6.282019    2.958256   -2.729137
 H    5.775492    3.406569    0.606360
 H    4.338413    4.277650    0.013843
 H    4.641817    4.143452    1.761241
 H    3.613142    0.652227    1.887931
 H    5.308829    0.952183    1.453893
 H    4.536004    1.906509    2.729392
 H   -3.063187   -3.537434    1.430692
 H   -5.588561   -2.142165    1.428405
