24 
3o3j_ligand_dft.xyz
Br    1.926743   21.591165  -28.796174
 N   -1.048112   17.256074  -26.723522
 O   -3.202639   17.869735  -26.639499
 N   -3.595231   20.227949  -30.694435
 C   -3.716443   18.956513  -30.182588
 C   -2.573720   18.608003  -29.522930
 C   -1.687750   19.737021  -29.618220
 C   -0.395427   19.988814  -29.137306
 C    0.175310   21.211560  -29.428395
 C   -0.493373   22.196357  -30.175675
 C   -1.772370   21.965627  -30.649555
 C   -2.359541   20.731560  -30.362820
 C   -2.292843   17.314732  -28.822520
 C   -2.257421   17.486354  -27.314165
 O   -1.057528   17.229311  -25.333077
 H   -0.427391   16.544212  -27.083095
 H   -4.305986   20.715711  -31.212651
 H   -4.624614   18.388259  -30.327262
 H    0.134328   19.256560  -28.537599
 H    0.000134   23.140838  -30.374378
 H   -2.295036   22.725034  -31.222928
 H   -3.085228   16.591450  -29.041146
 H   -1.347697   16.885484  -29.179845
 H   -1.971167   17.532677  -25.146213
