24 
3o3j_ligand_xtb.xyz
Br   -3.285610   -1.106197    0.185312
 N    2.298312   -1.620698   -0.519866
 O    4.364632   -1.250980    0.224472
 N    1.160318    2.868231   -0.326120
 C    2.171916    2.172929    0.275645
 C    1.724143    0.951893    0.692192
 C    0.345581    0.881759    0.322921
 C   -0.645750   -0.088553    0.479501
 C   -1.899855    0.196372   -0.009611
 C   -2.208958    1.401516   -0.646514
 C   -1.244837    2.372132   -0.802966
 C    0.029720    2.108613   -0.315328
 C    2.526737   -0.122051    1.350222
 C    3.171408   -1.027012    0.312140
 O    2.808605   -2.392945   -1.569613
 H    1.330453   -1.375405   -0.648448
 H    3.152307    2.597391    0.372003
 H   -0.446585   -1.025300    0.978214
 H   -3.210951    1.564788   -1.010516
 H   -1.476100    3.307521   -1.288849
 H    1.890015   -0.727120    1.997959
 H    3.329888    0.310103    1.947351
 H    3.771597   -2.396535   -1.390075
 H    1.238792    3.794519   -0.709749
