29 
3o75_ligand_xtb.xyz
 C   -0.470456   -1.849202    0.508974
 O   -1.729430   -1.518141   -0.016434
 P   -2.356791   -0.036354    0.213055
 C    0.583011   -0.907381   -0.076614
 O    0.493902   -0.852965   -1.471670
 C    2.061630   -1.200216    0.241837
 O    2.630278   -2.168520   -0.575582
 C    2.675756    0.217778    0.082766
 O    3.746918    0.475147    0.943226
 C    1.504636    1.155779    0.422395
 O    0.342504    0.339872    0.517035
 C    1.241981    2.262585   -0.606268
 O   -0.038413    2.825939   -0.414484
 O   -3.835686   -0.348142   -0.273311
 O   -2.246795    0.508480    1.565398
 O   -1.864497    0.829780   -1.011929
 H   -0.470375   -1.737072    1.596547
 H   -0.267991   -2.883730    0.221532
 H   -0.427706   -0.661648   -1.707547
 H    2.173325   -1.528969    1.279598
 H    2.267751   -2.046076   -1.465365
 H    2.980067    0.346559   -0.967771
 H    4.421156   -0.200906    0.805180
 H    1.671787    1.594804    1.413439
 H    2.023978    3.028220   -0.533667
 H    1.232827    1.847458   -1.616755
 H   -0.164102    3.007814    0.525903
 H   -4.375647   -0.601832    0.472666
 H   -1.282793    1.573044   -0.756118
