39 
3o84_ligand_dft.xyz
 C   -3.450357   -2.490119    0.766971
 C   -2.877264   -1.844411   -0.325591
 C   -3.152634   -0.495866   -0.525946
 C   -3.987502    0.143178    0.388462
 C   -4.506530   -0.593277    1.447113
 N   -4.253066   -1.889699    1.646379
 C   -2.539536    0.269508   -1.677772
 N   -1.555886    1.230040   -1.217484
 C   -0.316016    0.950012   -0.735317
 C    0.241835    2.173274   -0.317421
 C   -0.777238    3.129389   -0.602127
 N   -1.838033    2.545616   -1.125527
 N    0.243387   -0.257911   -0.693323
 C    1.483159   -0.290654   -0.210849
 C    2.157949    0.874679    0.242084
 C    1.546215    2.110516    0.209558
 C    2.283570    3.303502    0.745814
 O    3.481446    3.393209    0.747783
 O    1.510907    4.291726    1.241417
 C    2.130082   -1.623652   -0.129321
 C    1.336187   -2.762642    0.041841
 C    1.919617   -4.020046    0.127069
 C    3.302875   -4.157664    0.033979
 C    4.099118   -3.030407   -0.145178
 C    3.517216   -1.769687   -0.223843
 H   -3.250828   -3.544719    0.945130
 H   -2.218151   -2.382002   -1.000724
 H   -4.222224    1.198418    0.280918
 H   -5.162500   -0.119186    2.173895
 H   -3.293888    0.842985   -2.220352
 H   -2.046885   -0.413741   -2.374500
 H   -0.768694    4.204980   -0.484274
 H    3.155369    0.801023    0.659011
 H    0.591969    3.996088    1.307764
 H    0.260084   -2.644313    0.117882
 H    1.294188   -4.896029    0.270712
 H    3.758440   -5.141128    0.099565
 H    5.176803   -3.131217   -0.229368
 H    4.148216   -0.900763   -0.386739
