27 
3o86_ligand_dft.xyz
 O    0.020556    1.922770    0.636005
 O   -0.176899   -0.455094    1.500577
 O   -5.053762   -1.409140   -0.335204
 O   -4.546746    0.955843   -0.113033
 C    4.844054   -0.361453    0.147895
 C    4.015214   -1.472792    0.275081
 C    4.327300    0.836474   -0.338188
 C    2.675558   -1.387582   -0.087974
 C    2.987813    0.920921   -0.702098
 C   -2.650613   -0.703453   -0.050553
 C    0.703020   -0.091474   -0.961163
 N   -1.822388    0.487380   -0.236135
 C    2.155044   -0.193579   -0.588271
 S   -0.290117    0.516121    0.419978
 B   -4.189677   -0.363400   -0.185494
 H   -5.986319   -1.172229   -0.367146
 H   -5.487905    1.146812   -0.176651
 H    5.890391   -0.427750    0.430891
 H    4.411092   -2.407161    0.661364
 H    4.967354    1.708599   -0.431456
 H    2.024814   -2.250073    0.025618
 H    2.579006    1.859122   -1.066326
 H   -2.480016   -1.157924    0.936450
 H   -2.378974   -1.464816   -0.791906
 H    0.278287   -1.062296   -1.233184
 H    0.527487    0.612579   -1.777820
 H   -2.287780    1.365130   -0.024190
