30 
3o87_ligand_xtb.xyz
 O    5.338557    0.604780    1.071534
 O   -0.701850    1.678359   -1.461389
 O   -1.103428    1.705609    0.972612
 O    5.581827   -0.808635   -0.616693
 O   -4.967680   -1.425939    1.295700
 O   -3.847189   -1.508390   -0.814062
 C    1.195188   -0.358674    1.130260
 C    1.392593   -0.776103   -1.225289
 C    2.565608   -0.216263    1.223719
 C    2.764336   -0.658187   -1.131388
 C   -3.845539    0.683943    0.452669
 C   -0.882326   -0.656146   -0.201548
 N   -2.977716    1.196531   -0.596232
 C    4.847388   -0.226765    0.133128
 C    0.593792   -0.630892   -0.095094
 C    3.363199   -0.360155    0.090079
 S   -1.350018    1.125449   -0.312637
 B   -4.246969   -0.861027    0.309150
 H    4.638272    1.061856    1.556423
 H   -5.236674   -2.341851    1.205442
 H   -4.114812   -2.422497   -0.923653
 H    0.579710   -0.238373    2.008153
 H    0.932832   -0.976668   -2.180614
 H    3.007218   -0.025386    2.193119
 H    3.394659   -0.778063   -1.998979
 H   -4.746688    1.305485    0.478406
 H   -3.319659    0.881882    1.388506
 H   -1.375245   -1.039731    0.685474
 H   -1.245299   -1.135940   -1.103578
 H   -3.202494    0.860707   -1.519460
