43 
3o88_ligand_dft.xyz
 O   -4.784455   -0.994718   -0.533806
 O    2.106873    2.358783   -1.205296
 O    3.511811    1.179335    0.544007
 O   -3.435845   -1.128527   -2.316427
 O    4.400523   -2.100249    0.562915
 O    3.947064   -1.125175   -1.620523
 C   -2.865087    2.924021   -0.026404
 C   -2.597064    1.699271    0.577263
 C   -1.836260    3.841915   -0.221275
 C   -1.817258   -2.338970    2.033694
 C   -1.302449    1.390890    0.983087
 C   -0.544855    3.537756    0.193502
 C   -0.525272   -2.503611    1.542482
 C   -2.840588   -1.938471    1.181696
 C   -1.260156   -1.873475   -0.649262
 C    1.184947   -2.415223   -0.308088
 C    1.124800    1.987317    1.251085
 N    1.511513    0.003269   -0.552722
 C   -3.599086   -1.258594   -1.125582
 C   -0.270425    2.311738    0.803309
 C   -0.230240   -2.273024    0.196126
 C   -2.557064   -1.705398   -0.164815
 C    2.078528   -1.216032    0.061769
 S    2.215798    1.442255   -0.081134
 B    3.599274   -1.464987   -0.342017
 H   -5.379006   -0.714404   -1.247298
 H    5.305886   -2.246830    0.269688
 H    4.880380   -1.208083   -1.839593
 H   -3.875422    3.162871   -0.345544
 H   -3.395232    0.979080    0.727585
 H   -2.038316    4.796659   -0.697234
 H   -2.026877   -2.527399    3.082049
 H   -1.093997    0.427443    1.440732
 H    0.260027    4.249094    0.032928
 H    0.269163   -2.819344    2.215456
 H   -3.849944   -1.806513    1.555111
 H   -1.069847   -1.676551   -1.699673
 H    1.184196   -2.546336   -1.397357
 H    1.643589   -3.316142    0.116679
 H    1.148520    1.184970    1.994197
 H    1.642419    2.854537    1.672738
 H    1.524566   -0.020152   -1.570200
 H    2.017580   -1.083184    1.148534
