57 
3o95_ligand_xtb.xyz
 C   -1.899892   -0.214941    0.495463
 C   -3.115039   -0.961384    0.952595
 C   -3.937563   -1.575727   -0.210583
 C   -3.103422   -2.590680   -0.994405
 C   -5.150806   -2.282004    0.397808
 C    0.147493    1.374768   -0.444153
 C    1.878748    2.866495    0.454791
 C    1.771952   -0.527021   -0.253195
 C    2.721838   -0.435468    0.769832
 C    3.965934   -1.033996    0.618643
 C    5.629009   -2.374969   -0.699118
 C    2.091472   -1.232473   -1.408922
 O    2.582616    3.986872    0.320008
 O    1.759127    2.329876    1.520936
 C    1.267807    2.296832   -0.827033
 C   -1.167827    1.838063   -0.272878
 C   -1.547874    3.261246   -0.558732
 C   -3.023048    3.538979   -0.303739
 N   -2.127132    1.044647    0.156766
 C   -4.415969   -0.471544   -1.151382
 C   -0.614909   -0.755516    0.402552
 C   -0.251150   -2.133969    0.880319
 N    0.667089   -2.000837    2.060549
 C    0.415109    0.057501   -0.096555
 C    3.332227   -1.826965   -1.543934
 C    4.285465   -1.744921   -0.531843
 H   -3.757749   -0.239547    1.456760
 H   -2.866271   -1.750166    1.663755
 H   -3.689797   -2.985531   -1.819698
 H   -2.209568   -2.128241   -1.408139
 H   -2.810519   -3.430106   -0.366300
 H   -5.764617   -1.579835    0.955829
 H   -5.762911   -2.717655   -0.387264
 H   -4.844544   -3.080884    1.070338
 H    2.538381    0.213589    1.617445
 H    4.699241   -0.933011    1.404699
 H    6.282118   -1.705641   -1.259185
 H    6.094763   -2.568859    0.263544
 H    5.555567   -3.306275   -1.255467
 H    1.366062   -1.302536   -2.206223
 H    2.618313    4.332755   -0.582051
 H    0.922612    3.100561   -1.477630
 H    2.058511    1.742778   -1.342460
 H   -1.310562    3.489487   -1.602398
 H   -0.936389    3.914596    0.070903
 H   -3.640835    2.901383   -0.928533
 H   -3.269849    3.340439    0.734515
 H   -3.248613    4.577969   -0.527288
 H   -5.051779   -0.891013   -1.926694
 H   -4.986035    0.274221   -0.604736
 H   -3.575668    0.025475   -1.628407
 H    0.284341   -2.687050    0.105697
 H   -1.134412   -2.698525    1.171780
 H    0.920027   -2.909880    2.459279
 H    1.537729   -1.489983    1.715412
 H    0.222753   -1.422702    2.782702
 H    3.568727   -2.360306   -2.452127
