57 
3o95_ligand_dft.xyz
 C   -1.944646   -0.163275    0.496656
 C   -3.192236   -0.891870    0.935873
 C   -4.070423   -1.463287   -0.216153
 C   -3.328717   -2.566258   -0.982798
 C   -5.329991   -2.058831    0.428664
 C    0.171032    1.386759   -0.404705
 C    2.237441    2.768386    0.223451
 C    1.757397   -0.550360   -0.223552
 C    2.725011   -0.312562    0.763333
 C    3.989090   -0.891150    0.666062
 C    5.710475   -2.290259   -0.544600
 C    2.089659   -1.371171   -1.305547
 O    1.674553    2.958205    1.438991
 O    3.399609    2.995790    0.047098
 C    1.310241    2.255710   -0.884145
 C   -1.134093    1.892761   -0.221792
 C   -1.467604    3.340617   -0.522461
 C   -2.897028    3.744571   -0.179648
 N   -2.131172    1.131462    0.220419
 C   -4.477383   -0.351083   -1.192012
 C   -0.679677   -0.752088    0.353785
 C   -0.434594   -2.201590    0.675792
 N    0.496385   -2.320768    1.872022
 C    0.390572    0.042798   -0.098841
 C    3.356335   -1.937222   -1.395561
 C    4.327545   -1.709110   -0.414694
 H   -3.792744   -0.165292    1.491273
 H   -2.962484   -1.706954    1.634559
 H   -3.954406   -2.950007   -1.794960
 H   -2.401823   -2.194992   -1.438494
 H   -3.090206   -3.419148   -0.333311
 H   -5.902859   -1.290133    0.958558
 H   -5.982716   -2.495759   -0.334223
 H   -5.078278   -2.849567    1.145786
 H    2.504705    0.364706    1.586612
 H    4.729977   -0.677716    1.431308
 H    6.352800   -1.611912   -1.117278
 H    6.177876   -2.437795    0.432711
 H    5.695237   -3.250049   -1.068419
 H    1.357087   -1.552036   -2.088219
 H    0.731681    2.742490    1.412178
 H    0.934576    3.132953   -1.419319
 H    1.951086    1.715429   -1.583704
 H   -1.281003    3.518264   -1.590554
 H   -0.759337    3.993405    0.006282
 H   -3.619966    3.148339   -0.741305
 H   -3.106469    3.602361    0.883693
 H   -3.049165    4.798993   -0.424798
 H   -5.186375   -0.743498   -1.928716
 H   -4.955957    0.481463   -0.666477
 H   -3.616740    0.050785   -1.736014
 H    0.067289   -2.735533   -0.132831
 H   -1.343901   -2.738294    0.934937
 H    0.685087   -3.296168    2.120377
 H    1.396707   -1.859210    1.642315
 H    0.100897   -1.848466    2.689999
 H    3.599206   -2.562380   -2.250436
