71 
3o96_ligand_xtb.xyz
 C   -6.998576   -0.762225    0.753083
 C   -8.548534   -2.616860    1.002571
 C   -9.206962   -1.866128    1.964872
 C   -8.770859   -0.595152    2.312200
 C   -5.057434    0.685431   -0.016987
 C   -4.023487    2.450620   -1.500310
 C   -0.266462    2.393753   -1.095838
 C    2.146809    1.063210   -0.591716
 C    1.667150    2.038178    0.293664
 C    0.478502    2.685784    0.046610
 C    4.484239    0.798503    0.380841
 C    4.302460   -3.101394   -0.918089
 C   -5.621825   -1.583850   -0.842996
 N   -6.582731   -2.516796   -0.570337
 C   -7.441664   -2.049492    0.403628
 N   -5.884968   -0.495299   -0.025985
 C   -7.659561   -0.020592    1.713082
 O   -4.713538   -1.663200   -1.644347
 C   -2.696920    1.514597    0.297801
 C   -3.631258    0.323853    0.427169
 C   -5.017005    1.301800   -1.424225
 C   -1.603961    3.018356   -1.334833
 C    0.204835    1.421562   -1.982756
 C    1.385550    0.766684   -1.732910
 N    5.425059   -0.021165    0.789068
 C    3.354674    0.303916   -0.340112
 N    3.334703   -0.948716   -0.778973
 C    4.324237   -1.778696   -0.449263
 C    5.273457   -3.957703   -0.466150
 C    6.298407   -3.511998    0.486395
 C    6.338442   -2.204800    0.931023
 C    5.374653   -1.321957    0.452006
 C    6.563068   -5.548913    0.017901
 N    5.499125   -5.270701   -0.725658
 N    7.090157   -4.565791    0.759578
 C    4.705574    2.227187    0.632673
 C    5.285117    2.634836    1.832552
 C    5.511222    3.974697    2.082427
 C    5.172568    4.927222    1.134851
 C    4.620500    4.528775   -0.071991
 C    4.390140    3.190191   -0.325016
 N   -2.678717    1.990196   -1.102880
 H   -8.885773   -3.604451    0.732221
 H  -10.075175   -2.279316    2.453298
 H   -9.306494   -0.039209    3.065619
 H   -5.500884    1.394756    0.689893
 H   -4.312263    3.264660   -0.830146
 H   -3.980016    2.840170   -2.519713
 H    2.222185    2.264596    1.190201
 H    0.115823    3.429550    0.743592
 H    3.532741   -3.411600   -1.608657
 H   -6.623275   -3.417144   -1.017231
 H   -7.333335    0.968154    1.995695
 H   -1.678201    1.237015    0.579056
 H   -3.023107    2.342920    0.931859
 H   -3.275185   -0.500050   -0.195124
 H   -3.641135   -0.019701    1.461734
 H   -6.009280    1.659475   -1.700695
 H   -4.733436    0.515899   -2.127776
 H   -1.705707    3.360971   -2.367674
 H   -1.784473    3.855926   -0.659063
 H   -0.360280    1.192300   -2.878635
 H    1.751723    0.003783   -2.400530
 H    7.092234   -1.857982    1.620879
 H    6.992761   -6.537703    0.027016
 H    5.554771    1.881168    2.556488
 H    5.956665    4.280460    3.018615
 H    5.349740    5.975444    1.329806
 H    4.376057    5.266604   -0.823888
 H    3.978935    2.883809   -1.276993
 H   -2.428296    1.176620   -1.681727
