80 
3o9a_ligand_xtb.xyz
 C   -4.652083    4.222854    0.166311
 O   -3.413974    4.722742   -0.294918
 C   -2.423582    3.845202   -0.563908
 C   -1.228090    4.395875   -1.044892
 C   -0.157190    3.583231   -1.349300
 C   -0.271188    2.214359   -1.174215
 C   -1.444085    1.660409   -0.701699
 C   -2.527001    2.464512   -0.397174
 S    1.111522    1.146732   -1.526561
 O    0.607566   -0.201849   -1.615717
 O    1.848768    1.639435   -2.650018
 N    2.120430    1.219492   -0.188565
 C    2.984753    2.383059   -0.165532
 C    4.337412    2.116988    0.507591
 C    5.102654    1.057689   -0.279650
 C    5.114975    3.434604    0.603184
 C    1.489777    0.869057    1.066200
 C    2.112642   -0.355411    1.780338
 C    6.415550    3.303980    1.387589
 O    1.781621   -0.318253    3.146097
 C    1.710562   -1.712748    1.151723
 N    0.338984   -1.720156    0.678740
 C   -0.707588   -1.660475    1.507605
 O   -0.656141   -1.676323    2.721914
 O   -1.875404   -1.593447    0.816389
 C   -3.054077   -1.633248    1.609072
 C   -3.443563   -0.236666    2.113808
 O   -4.301509    0.320484    1.144146
 C   -5.024696   -0.710635    0.498828
 O   -5.076120   -0.512091   -0.873409
 C   -4.041768   -1.278904   -1.479608
 C   -3.958207   -2.556475   -0.641312
 C   -4.272731   -2.043764    0.765761
 C    2.623903   -2.114832   -0.012234
 C    2.562563   -4.626301    0.036053
 C    2.133814   -5.842829   -0.464421
 C    1.326578   -5.884555   -1.588538
 C    0.953875   -4.704882   -2.210199
 C    1.384499   -3.488124   -1.710283
 C    2.192929   -3.438325   -0.581637
 H   -4.542182    3.695367    1.117828
 H   -5.109712    3.551676   -0.565436
 H   -5.285099    5.097558    0.305089
 H   -1.173122    5.464852   -1.175048
 H    0.760971    3.990851   -1.740976
 H   -1.511709    0.589396   -0.590564
 H   -3.431356    2.003690   -0.034860
 H    2.479401    3.220456    0.339822
 H    3.154292    2.650614   -1.209174
 H    4.154759    1.752724    1.523400
 H    4.452703    0.211602   -0.483664
 H    5.968553    0.706630    0.274952
 H    5.436284    1.465504   -1.231064
 H    5.331828    3.795946   -0.404348
 H    4.484018    4.180593    1.093148
 H    0.428049    0.681296    0.887701
 H    1.561155    1.710056    1.766106
 H    3.202770   -0.263583    1.739507
 H    6.883227    4.279102    1.502019
 H    6.223724    2.897768    2.378174
 H    7.116572    2.651143    0.875613
 H    0.902252   -0.719975    3.265449
 H    1.783596   -2.462896    1.951458
 H    0.212366   -1.479515   -0.300760
 H   -2.877225   -2.313164    2.448484
 H   -3.964556   -0.319806    3.077290
 H   -2.580836    0.421415    2.225714
 H   -6.060357   -0.700630    0.870221
 H   -4.333110   -1.448102   -2.515736
 H   -3.092413   -0.733543   -1.449859
 H   -2.980065   -3.024883   -0.703219
 H   -4.724654   -3.264998   -0.955042
 H   -4.887476   -2.742067    1.331957
 H    2.565949   -1.342976   -0.779700
 H    3.648529   -2.179804    0.357637
 H    3.193615   -4.598036    0.913251
 H    2.430135   -6.760344    0.022938
 H    0.991884   -6.834151   -1.979896
 H    0.326332   -4.732732   -3.089189
 H    1.098375   -2.567570   -2.198122
