80 
3o9b_ligand_xtb.xyz
 C   -4.178799   -2.906220    1.382742
 O   -4.477469   -3.446806    0.118391
 C   -2.725171   -2.511030    1.503236
 C   -2.353413   -1.232261    1.901958
 C   -1.013985   -0.882407    1.970480
 C   -0.049949   -1.818229    1.648747
 C   -0.400691   -3.097267    1.257941
 C   -1.738943   -3.437565    1.178092
 S    1.681938   -1.362838    1.754347
 O    2.400469   -2.385934    2.453898
 O    1.757439   -0.017295    2.247707
 N    2.256784   -1.336480    0.185633
 C    2.593133   -2.613798   -0.412336
 C    3.910341   -2.527174   -1.197433
 C    5.087545   -2.454995   -0.227579
 C    4.044702   -3.683713   -2.198114
 C    1.590348   -0.363020   -0.654078
 C    2.279356    1.008579   -0.535182
 C    3.967010   -5.078419   -1.586531
 O    3.656913    0.888616   -0.789524
 C    1.697085    2.003710   -1.558002
 N    0.281686    2.194713   -1.336841
 C   -0.658724    1.447677   -1.938153
 O   -0.481141    0.658999   -2.832079
 O   -1.883154    1.716908   -1.399187
 C   -2.953719    0.958595   -1.932455
 C   -2.881792   -0.521255   -1.513057
 O   -4.225430   -0.964241   -1.465774
 C   -5.020992    0.086529   -1.016454
 O   -5.164624    0.055345    0.385027
 C   -5.223432    1.390197    0.842691
 C   -4.228308    2.162834   -0.026633
 C   -4.307924    1.421483   -1.366683
 C    2.424865    3.357806   -1.503294
 C    3.042532    3.847264    0.883405
 C    2.804510    4.462909    2.099100
 C    1.718477    5.308861    2.250247
 C    0.875806    5.541676    1.177185
 C    1.113251    4.922260   -0.038201
 C    2.196186    4.064444   -0.197429
 H   -4.819080   -2.042861    1.598962
 H   -4.398365   -3.699703    2.105778
 H   -4.448154   -2.727449   -0.530999
 H   -3.117990   -0.512777    2.153961
 H   -0.694871    0.101441    2.278954
 H    0.371303   -3.817192    1.039421
 H   -2.037152   -4.425394    0.861562
 H    1.779871   -2.956580   -1.065862
 H    2.712659   -3.309990    0.417954
 H    3.889788   -1.600465   -1.782303
 H    5.213914   -3.398202    0.296518
 H    4.908400   -1.688725    0.523472
 H    6.008711   -2.222311   -0.756726
 H    3.255718   -3.586155   -2.948205
 H    5.001120   -3.576267   -2.714338
 H    0.537174   -0.273233   -0.361506
 H    1.629405   -0.695386   -1.693485
 H    2.115586    1.386336    0.484810
 H    4.085371   -5.826998   -2.366894
 H    3.007402   -5.241471   -1.103600
 H    4.753396   -5.231400   -0.853225
 H    3.977997    0.163174   -0.238249
 H    1.812122    1.572407   -2.557660
 H    0.014333    2.764470   -0.547207
 H   -2.936795    1.036354   -3.025548
 H   -2.345925   -1.145214   -2.226340
 H   -2.409571   -0.594042   -0.524625
 H   -6.005716   -0.028741   -1.492991
 H   -4.975146    1.389316    1.904082
 H   -6.242059    1.782633    0.711787
 H   -3.223401    2.083879    0.383994
 H   -4.490324    3.213376   -0.118589
 H   -4.868572    1.988973   -2.107564
 H    2.065755    3.973518   -2.329591
 H    3.486423    3.157203   -1.642446
 H    3.893022    3.193198    0.764724
 H    3.467972    4.282423    2.931478
 H    1.532935    5.790555    3.198839
 H    0.032561    6.208827    1.284994
 H    0.460027    5.120673   -0.877372
