79 
3o9c_ligand_xtb.xyz
 C   -6.649565   -0.557183   -0.649794
 O   -5.806795   -1.535911   -0.077997
 C   -4.529619   -1.110987   -0.290760
 O   -5.856428    0.484932   -1.181403
 C   -4.559483    0.119070   -0.963349
 C   -3.406500    0.779895   -1.307852
 C   -2.212021    0.156334   -0.953990
 C   -2.174162   -1.053673   -0.294922
 C   -3.346529   -1.721330    0.052229
 S   -0.680392    0.994614   -1.337349
 O    0.373428    0.013569   -1.380916
 O   -0.853350    1.815799   -2.496003
 N   -0.373865    2.017128   -0.046300
 C   -1.304624    3.128370    0.013894
 C   -0.714701    4.388924    0.658962
 C    0.424707    4.922529   -0.204273
 C   -1.829576    5.425737    0.839256
 C   -0.077241    1.360427    1.209884
 C    1.305562    1.729324    1.803995
 C   -1.369680    6.667908    1.593747
 O    1.322770    1.438861    3.178068
 C    2.490947    1.049495    1.073344
 N    2.189644   -0.310281    0.671731
 C    1.912030   -1.291430    1.539502
 O    2.020254   -1.238103    2.749031
 O    1.493233   -2.393806    0.874252
 C    1.149038   -3.520137    1.666218
 C   -0.209482   -3.324739    2.351145
 O   -1.180013   -3.687689    1.396432
 C   -0.666119   -4.725306    0.581706
 O   -0.950646   -4.515602   -0.760266
 C    0.193266   -3.951439   -1.393602
 C    1.389969   -4.587690   -0.681356
 C    0.878724   -4.726815    0.753222
 C    2.923105    1.829433   -0.174808
 C    3.806767    0.281114   -1.943942
 C    4.846253   -0.396394   -2.557316
 C    6.145374   -0.234384   -2.106829
 C    6.401858    0.609940   -1.039973
 C    5.362182    1.284515   -0.425086
 C    4.055965    1.127007   -0.870421
 H   -7.321884   -0.151968    0.122168
 H   -7.249912   -1.011267   -1.454131
 H   -3.407300    1.709910   -1.848321
 H   -1.225897   -1.509036   -0.067320
 H   -3.306277   -2.671740    0.555362
 H   -2.215420    2.828135    0.554889
 H   -1.566683    3.352320   -1.020756
 H   -0.330038    4.127092    1.649153
 H    1.086739    4.108237   -0.483309
 H    1.000811    5.674381    0.328066
 H    0.029284    5.364462   -1.115996
 H   -2.652828    4.965375    1.391351
 H   -2.211459    5.715850   -0.141921
 H   -0.129595    0.280702    1.057588
 H   -0.829370    1.627059    1.961390
 H    1.436082    2.813998    1.732788
 H   -2.212823    7.331241    1.771786
 H   -0.622819    7.215342    1.026127
 H   -0.941468    6.392682    2.554956
 H    1.533296    0.494214    3.296393
 H    3.322601    1.006295    1.790082
 H    1.826681   -0.418458   -0.271208
 H    1.944463   -3.699137    2.396385
 H   -0.390097   -2.292251    2.650410
 H   -0.276609   -3.974704    3.234818
 H   -1.146116   -5.671608    0.874757
 H    0.207411   -2.861650   -1.279720
 H    0.127024   -4.204212   -2.451688
 H    1.595940   -5.574832   -1.095425
 H    2.280790   -3.969846   -0.746051
 H    1.230367   -5.637036    1.237173
 H    2.066090    1.909338   -0.844926
 H    3.233778    2.829656    0.131787
 H    2.794415    0.159440   -2.302018
 H    4.641629   -1.052142   -3.391053
 H    6.956493   -0.761844   -2.587043
 H    7.414064    0.743299   -0.686722
 H    5.566149    1.943462    0.407154
