79 
3o9c_ligand_dft.xyz
 C   -6.670948   -0.312751   -0.651557
 O   -5.833560   -1.259369    0.004398
 C   -4.555453   -0.882349   -0.267853
 O   -5.852796    0.767581   -1.086273
 C   -4.566498    0.344503   -0.929403
 C   -3.411091    0.973733   -1.319755
 C   -2.214619    0.300942   -1.008184
 C   -2.193796   -0.922609   -0.347253
 C   -3.388422   -1.544617    0.036684
 S   -0.687299    1.109638   -1.413747
 O    0.345607    0.078763   -1.488710
 O   -0.916844    1.986961   -2.547872
 N   -0.301161    2.091156   -0.110010
 C   -1.113602    3.315477   -0.003898
 C   -0.384879    4.464445    0.701653
 C    0.853623    4.891511   -0.086461
 C   -1.378203    5.618383    0.906233
 C   -0.049930    1.411951    1.172957
 C    1.349840    1.625458    1.782272
 C   -0.803668    6.799386    1.686794
 O    1.278174    1.281614    3.148755
 C    2.494322    0.864615    1.068862
 N    2.109580   -0.475294    0.654483
 C    1.848464   -1.463476    1.524550
 O    2.008612   -1.423333    2.739730
 O    1.360697   -2.541269    0.872702
 C    0.951153   -3.648499    1.675446
 C   -0.364484   -3.350076    2.388067
 O   -1.363054   -3.543664    1.406280
 C   -0.994606   -4.654024    0.601431
 O   -1.296131   -4.427807   -0.732201
 C   -0.124170   -3.962373   -1.403975
 C    1.028827   -4.701538   -0.721604
 C    0.549081   -4.795914    0.733033
 C    3.051672    1.626471   -0.144609
 C    3.915285    0.243780   -2.071013
 C    4.922975   -0.478073   -2.705507
 C    6.183192   -0.579200   -2.124327
 C    6.431386    0.047638   -0.905202
 C    5.423452    0.769458   -0.275446
 C    4.154967    0.875800   -0.849897
 H   -7.418273    0.058402    0.053130
 H   -7.145344   -0.786143   -1.520240
 H   -3.414826    1.913949   -1.857619
 H   -1.256664   -1.423844   -0.133716
 H   -3.368176   -2.499965    0.544647
 H   -2.051693    3.088099    0.528016
 H   -1.365185    3.634757   -1.017718
 H   -0.074928    4.124399    1.699786
 H    1.474657    4.028038   -0.338921
 H    1.467802    5.596260    0.481915
 H    0.562184    5.374389   -1.027329
 H   -2.260131    5.235707    1.436583
 H   -1.732931    5.964219   -0.075091
 H   -0.231402    0.337843    1.076234
 H   -0.772124    1.779675    1.909727
 H    1.590654    2.693806    1.743618
 H   -1.576554    7.549463    1.881805
 H    0.004734    7.293692    1.138753
 H   -0.402471    6.471967    2.652994
 H    1.521051    0.342628    3.238060
 H    3.295536    0.758753    1.809572
 H    1.732945   -0.577996   -0.281047
 H    1.755481   -3.907088    2.366053
 H   -0.433726   -2.328795    2.763998
 H   -0.494911   -4.045549    3.231465
 H   -1.566352   -5.530819    0.925716
 H   -0.019966   -2.876327   -1.301023
 H   -0.242341   -4.205788   -2.461626
 H    1.129939   -5.706708   -1.141605
 H    1.981853   -4.180176   -0.824418
 H    0.821457   -5.746303    1.197595
 H    2.238938    1.837689   -0.844723
 H    3.422034    2.592441    0.217779
 H    2.929415    0.317269   -2.524027
 H    4.722019   -0.961178   -3.657405
 H    6.970475   -1.140205   -2.619370
 H    7.412750   -0.024663   -0.445288
 H    5.623078    1.258738    0.675657
