78 
3o9d_ligand_dft.xyz
 C    7.794676   -0.560178    0.142759
 N    7.507530    0.628014    0.547075
 S    6.575981   -1.404364   -0.788734
 C    6.234226    0.977918    0.126026
 C    5.552603   -0.006239   -0.616925
 C    4.267155    0.210621   -1.110053
 C    3.691717    1.444152   -0.847636
 C    4.355526    2.445367   -0.118271
 C    5.624858    2.214101    0.373623
 S    2.021711    1.757451   -1.388628
 O    1.902514    3.177461   -1.660182
 O    1.715435    0.759759   -2.412229
 N    1.041065    1.408854   -0.105204
 C    0.975017    2.365897    1.003931
 C   -0.445924    2.508162    1.562962
 C   -0.394434    3.337712    2.847885
 C   -1.392338    3.109080    0.515772
 C    0.833816   -0.008341    0.223261
 C   -0.492239   -0.537224   -0.353007
 C   -2.867384    2.956086    0.880729
 O   -0.377799   -0.982448   -1.684043
 C   -1.124902   -1.687332    0.449725
 N   -2.526622   -1.819925    0.084968
 C   -3.496247   -1.139296    0.746976
 O   -3.350834   -0.534945    1.794131
 O   -4.673000   -1.252336    0.090887
 C   -5.810141   -0.684073    0.739761
 C   -5.818803    0.851764    0.691269
 O   -7.183340    1.203326    0.598979
 C   -7.825277    0.264726   -0.218079
 O   -7.728652    0.560347   -1.592082
 C   -6.838684   -0.341041   -2.236029
 C   -6.925126   -1.629495   -1.421123
 C   -7.106249   -1.092351   -0.000809
 C   -0.453731   -3.057486    0.250634
 C    1.978099   -3.188697   -0.416098
 C    3.335102   -3.142679   -0.108794
 C    3.749582   -2.965828    1.208545
 C    2.797773   -2.857234    2.219186
 C    1.442672   -2.919331    1.910166
 C    1.015727   -3.072564    0.588618
 H    8.740958   -1.047442    0.349915
 H    3.733338   -0.532892   -1.691025
 H    3.873635    3.405357    0.029705
 H    6.164060    2.971030    0.932173
 H    1.668443    2.051594    1.799303
 H    1.305584    3.338152    0.629027
 H   -0.821606    1.507831    1.825258
 H   -1.387105    3.434847    3.295912
 H    0.261684    2.876949    3.595063
 H   -0.017515    4.347724    2.644030
 H   -1.141633    4.169133    0.372268
 H   -1.206608    2.621902   -0.448497
 H    1.669757   -0.614915   -0.133875
 H    0.835851   -0.091612    1.314180
 H   -1.206110    0.298967   -0.287754
 H   -3.130147    3.527292    1.777825
 H   -3.102991    1.904429    1.078620
 H   -3.512902    3.306806    0.068958
 H    0.168876   -0.342574   -2.170774
 H   -1.114690   -1.415186    1.509240
 H   -2.730406   -2.099304   -0.864455
 H   -5.825341   -1.030843    1.775007
 H   -5.249364    1.199016   -0.183216
 H   -5.404035    1.312019    1.587851
 H   -8.882313    0.296815    0.052492
 H   -7.169094   -0.453914   -3.271672
 H   -5.813768    0.057436   -2.239580
 H   -6.049252   -2.269887   -1.532370
 H   -7.815505   -2.196334   -1.711329
 H   -7.700018   -1.765124    0.620277
 H   -0.994799   -3.777643    0.874610
 H   -0.591413   -3.359536   -0.791921
 H    1.655521   -3.290599   -1.448465
 H    4.071784   -3.247989   -0.900924
 H    4.808285   -2.919225    1.445085
 H    3.111597   -2.728240    3.250915
 H    0.703355   -2.838525    2.704317
