83 
3o9f_ligand_xtb.xyz
 C    7.965723   -1.952852   -0.629290
 O    7.455797   -0.762073   -0.072805
 C    6.266545   -0.289572   -0.511044
 C    5.475947   -0.897841   -1.484225
 C    4.264177   -0.329510   -1.839293
 C    3.849302    0.843648   -1.244638
 C    4.632827    1.467753   -0.288432
 C    5.833265    0.902998    0.081263
 S    2.267213    1.561490   -1.671514
 O    2.428930    2.948918   -1.980927
 O    1.658560    0.713786   -2.666427
 N    1.352517    1.440321   -0.298169
 C    1.328797    2.538942    0.638806
 C   -0.086565    2.799296    1.176009
 C   -1.007557    3.243610    0.036237
 C   -0.046310    3.777212    2.358898
 C    1.184664    0.095342    0.201483
 C   -0.115653   -0.542541   -0.330219
 C    0.459876    5.177081    2.028556
 O    0.077993   -1.198756   -1.554662
 C   -0.737974   -1.546779    0.666089
 C   -2.482016    3.183613    0.419715
 N   -2.123659   -1.777731    0.310926
 C   -3.103897   -0.968266    0.764932
 O   -2.990716   -0.160583    1.653669
 O   -4.266105   -1.230796    0.113188
 C   -5.410836   -0.533624    0.571888
 C   -5.639445    0.805907   -0.153922
 O   -7.021841    1.050522    0.000820
 C   -7.688617   -0.162324   -0.143576
 O   -8.047561   -0.392095   -1.486606
 C   -7.868665   -1.762230   -1.771744
 C   -6.637706   -2.196629   -0.971680
 C   -6.709620   -1.299189    0.268505
 C   -0.013050   -2.898272    0.693004
 C    2.458746   -3.043081    0.279981
 C    3.772492   -2.918541    0.696647
 C    4.058329   -2.525129    1.991888
 C    3.020507   -2.278269    2.875075
 C    1.707732   -2.415125    2.460930
 C    1.410871   -2.786999    1.154702
 H    7.304795   -2.802522   -0.433036
 H    8.921440   -2.120531   -0.135778
 H    8.127740   -1.855398   -1.706750
 H    5.792334   -1.806054   -1.971445
 H    3.633152   -0.785562   -2.585613
 H    4.297252    2.395693    0.145703
 H    6.465432    1.362641    0.823837
 H    1.681245    3.405422    0.079253
 H    2.014022    2.340961    1.476508
 H   -0.476944    1.850323    1.562145
 H   -0.827216    2.581520   -0.813696
 H   -0.743972    4.251423   -0.285731
 H    0.592398    3.346625    3.135002
 H   -1.051544    3.852605    2.775496
 H    1.174509    0.121922    1.292482
 H    2.034444   -0.517982   -0.115580
 H   -0.845898    0.274823   -0.452933
 H   -0.186135    5.667258    1.306222
 H    1.468307    5.146026    1.625080
 H    0.473346    5.783540    2.931808
 H    0.560847   -0.586310   -2.142969
 H   -0.751779   -1.088818    1.659605
 H   -2.722581    3.934928    1.167777
 H   -2.725618    2.204615    0.828624
 H   -3.106644    3.364653   -0.452354
 H   -2.288934   -2.268182   -0.554959
 H   -5.307218   -0.351455    1.647944
 H   -5.098377    1.639780    0.289655
 H   -5.370552    0.702502   -1.213368
 H   -8.594279   -0.107684    0.478438
 H   -8.757197   -2.328177   -1.453792
 H   -7.748791   -1.860432   -2.850842
 H   -6.660449   -3.254240   -0.721580
 H   -5.727635   -1.985331   -1.530262
 H   -7.068225   -1.842853    1.141238
 H   -0.569077   -3.560646    1.360776
 H   -0.039232   -3.310866   -0.315646
 H    2.240562   -3.335513   -0.736435
 H    4.574956   -3.130321    0.005964
 H    5.083333   -2.417665    2.314753
 H    3.236029   -1.983306    3.891613
 H    0.902926   -2.232555    3.158513
