83 
3o9g_ligand_xtb.xyz
 C    3.787940   -3.498051   -1.404884
 O    4.004959   -4.126015   -0.164759
 C    2.419358   -2.862777   -1.493184
 C    1.298319   -3.614115   -1.153275
 C    0.033518   -3.057754   -1.215243
 C   -0.107002   -1.738530   -1.604595
 C    0.994281   -0.972646   -1.935578
 C    2.258749   -1.537794   -1.882594
 O    5.311695   -0.822588   -0.334894
 S   -1.744855   -1.015152   -1.720542
 O   -2.607855   -1.920423   -2.420666
 O   -1.603621    0.319834   -2.227487
 N   -2.321307   -0.886811   -0.158051
 C   -2.910969   -2.075729    0.423455
 C   -4.256479   -1.769203    1.098941
 C   -4.688111   -2.974893    1.941949
 C   -5.298734   -1.332556    0.057534
 C   -1.495902   -0.060031    0.697821
 C   -1.887672    1.421088    0.558498
 C   -5.747184   -2.418025   -0.915871
 O   -3.253907    1.595699    0.843019
 C   -1.091512    2.295935    1.546323
 C   -5.973739   -2.730206    2.723636
 N    0.328314    2.187016    1.303069
 C    1.115142    1.300573    1.933554
 O    0.791663    0.576704    2.841284
 O    2.373035    1.336113    1.405286
 C    3.287060    0.413939    1.971150
 C    2.972814   -1.034574    1.552894
 O    4.222937   -1.697711    1.507721
 C    5.184844   -0.793845    1.068438
 C    5.633547    0.484183   -0.761539
 C    4.809656    1.419506    0.128440
 C    4.716780    0.638655    1.444998
 C   -1.524711    3.770107    1.463151
 C   -2.071965    4.306613   -0.930655
 C   -1.732584    4.819052   -2.169865
 C   -0.497348    5.415024   -2.362210
 C    0.393341    5.503507   -1.306510
 C    0.053874    4.986786   -0.067492
 C   -1.180039    4.377361    0.132966
 H    3.864294   -4.290606   -2.157921
 H    4.561610   -2.747014   -1.602802
 H    4.116327   -3.436220    0.507397
 H    1.434267   -4.638469   -0.841642
 H   -0.843097   -3.641118   -0.984069
 H    0.837862    0.050790   -2.240403
 H    3.127851   -0.952098   -2.142776
 H   -3.072972   -2.774186   -0.396301
 H   -2.220595   -2.530744    1.145770
 H   -4.103289   -0.924421    1.781707
 H   -4.807451   -3.849180    1.300647
 H   -3.886666   -3.199350    2.650678
 H   -6.169025   -0.932317    0.581216
 H   -4.865484   -0.521406   -0.533307
 H   -0.438108   -0.188060    0.437031
 H   -1.632006   -0.368092    1.736585
 H   -1.672452    1.736318   -0.472775
 H   -6.150888   -3.282881   -0.396436
 H   -4.921106   -2.731512   -1.548353
 H   -6.525952   -2.020846   -1.563252
 H   -3.733269    0.945191    0.314070
 H   -1.275534    1.920942    2.558308
 H   -6.823758   -2.617235    2.056915
 H   -5.886002   -1.829639    3.327358
 H   -6.173158   -3.568840    3.386911
 H    0.698579    2.687183    0.507990
 H    3.251621    0.503322    3.062786
 H    2.338641   -1.559907    2.265165
 H    2.496811   -1.027656    0.563774
 H    6.138183   -1.085080    1.533833
 H    5.391181    0.556772   -1.821733
 H    6.709504    0.664444   -0.624989
 H    3.815483    1.564862   -0.289561
 H    5.284387    2.388735    0.255808
 H    5.350697    1.072354    2.216550
 H   -1.029048    4.319136    2.265512
 H   -2.601713    3.798127    1.623395
 H   -3.037595    3.848285   -0.780160
 H   -2.433137    4.752584   -2.988588
 H   -0.232080    5.815417   -3.329452
 H    1.354491    5.977247   -1.446440
 H    0.748358    5.073658    0.757521
