81 
3o9i_ligand_dft.xyz
 C    7.685390   -0.299395   -0.188134
 N    7.327233    0.888766    0.154715
 S    6.500323   -1.283245   -1.021217
 C    6.018601    1.121701   -0.238154
 C    5.385063    0.047942   -0.894222
 C    4.070549    0.142811   -1.347220
 C    3.415661    1.346303   -1.135463
 C    4.029893    2.434870   -0.493001
 C    5.329913    2.324577   -0.039677
 S    1.702279    1.492096   -1.609913
 O    1.427782    0.396571   -2.537712
 O    1.455816    2.872742   -1.983563
 N    0.819468    1.173209   -0.250730
 C    0.745031    2.205855    0.791459
 C   -0.614434    2.226834    1.518884
 C   -1.665426    3.088587    0.801301
 C   -0.418280    2.668763    2.980451
 C    0.804837   -0.223718    0.208102
 C   -0.455962   -0.962164   -0.276740
 C    0.142459    4.080260    3.167241
 O   -0.281135   -1.620758   -1.509984
 C   -1.006801   -1.991449    0.726282
 C   -2.103956    2.573044   -0.568360
 N   -2.425977   -2.212252    0.480549
 C   -3.319229   -1.270423    0.890512
 O   -3.092246   -0.390072    1.700416
 O   -4.513626   -1.457672    0.289425
 C   -5.550196   -0.557255    0.671732
 C   -5.357050    0.883394    0.184498
 O   -6.670315    1.410933    0.220457
 C   -7.549630    0.424061   -0.232366
 O   -7.771537    0.543992   -1.619466
 C   -7.788331   -0.750264   -2.190848
 C   -6.721987   -1.529802   -1.423667
 C   -6.866364   -0.955644   -0.005575
 C   -0.282814   -3.345882    0.707021
 C    2.114511   -3.373135   -0.091706
 C    3.475799   -3.175741    0.120871
 C    3.943308   -2.804870    1.378880
 C    3.041222   -2.654846    2.429025
 C    1.682592   -2.866817    2.216057
 C    1.200534   -3.215115    0.951847
 H    8.670162   -0.706568    0.012461
 H    3.571521   -0.672469   -1.858760
 H    3.483842    3.365015   -0.380029
 H    5.831187    3.150780    0.452006
 H    1.556609    2.034493    1.516842
 H    0.922067    3.173088    0.315556
 H   -1.011273    1.204264    1.561658
 H   -1.285793    4.113277    0.692865
 H   -2.545544    3.152471    1.454662
 H    0.249436    1.949875    3.474783
 H   -1.383703    2.591048    3.494335
 H    0.841465   -0.199645    1.300620
 H    1.704744   -0.754508   -0.115277
 H   -1.226467   -0.185102   -0.368657
 H    0.291306    4.296940    4.229836
 H   -0.536367    4.840361    2.767872
 H    1.111675    4.203223    2.669528
 H    0.134350   -0.987048   -2.118285
 H   -0.942253   -1.555509    1.727295
 H   -2.903793    3.200905   -0.975148
 H   -1.279701    2.569947   -1.286410
 H   -2.492177    1.551885   -0.486773
 H   -2.669137   -2.713215   -0.363370
 H   -5.645005   -0.563719    1.760666
 H   -4.725615    1.484209    0.837545
 H   -4.940400    0.891525   -0.833561
 H   -8.492979    0.566011    0.305670
 H   -8.780237   -1.214812   -2.073252
 H   -7.580594   -0.646501   -3.258296
 H   -5.732149   -1.309648   -1.832495
 H   -6.867363   -2.611857   -1.459730
 H   -7.471559   -1.607719    0.628236
 H   -0.452288   -3.822393   -0.263366
 H   -0.743865   -3.980757    1.471941
 H    1.746310   -3.620241   -1.082948
 H    4.175876   -3.312309   -0.699135
 H    5.004590   -2.640347    1.539708
 H    3.397011   -2.375864    3.416592
 H    0.982061   -2.749543    3.040400
