85 
3oag_ligand_dft.xyz
 C    5.417543   -3.071661    0.463368
 C    6.888047   -2.724591    0.338882
 N    7.053930   -1.756429   -0.808746
 C    6.304779   -0.467389   -0.581869
 C    4.814510   -0.759319   -0.448684
 C    4.520697   -1.836678    0.619390
 C    3.063316   -2.220916    0.521615
 C    2.226505   -1.647015    1.426612
 N    0.802463   -1.917105    1.442425
 C    0.378005   -2.669325    0.311559
 C    1.191120   -3.253040   -0.585835
 C    2.651985   -3.130037   -0.498411
 O   -1.001359   -2.784991    0.365416
 C   -1.642475   -3.089182   -0.837166
 C    4.189557    0.574404   -0.012690
 O    4.564073    1.067051    1.044767
 N    3.355031    1.226581   -0.878221
 C   -3.109224   -2.769627   -0.681067
 O   -3.225500   -1.353272   -0.487309
 C   -4.479965   -0.847907   -0.521335
 C   -5.267183   -0.744309    0.632168
 C   -6.525274   -0.159804    0.600167
 C   -7.043608    0.343922   -0.593687
 C   -6.270242    0.254035   -1.748748
 C   -5.011623   -0.333754   -1.706845
Cl   -4.637562   -1.343738    2.139981
Cl   -4.054180   -0.417950   -3.160227
 C   -8.417894    0.964235   -0.624914
 C    3.067082    2.624815   -0.586927
 C    3.099557    0.734018   -2.210578
 C    1.666698    2.933409   -0.093668
 C    0.705132    1.953928    0.144758
 C   -0.614739    2.284688    0.468921
 C   -0.949725    3.624307    0.635330
 C    0.001408    4.623153    0.459677
 C    1.287091    4.268640    0.084778
Cl    2.457018    5.556895   -0.181017
 C   -1.678406    1.211323    0.562782
 N   -1.365387    0.179293    1.528290
 C    2.150238   -0.412078   -2.434157
 C    1.764920    0.970522   -2.867390
 C   -1.554936    0.561694    2.896887
 C   -0.354931    1.057476    3.659042
 C   -0.925795   -0.308328    3.944817
 H    5.077749   -3.669230   -0.391511
 H    5.284998   -3.715454    1.337571
 H    7.275517   -2.207610    1.221585
 H    7.521206   -3.588747    0.119742
 H    6.682919   -2.202058   -1.653976
 H    8.043264   -1.564304   -0.977755
 H    6.540593    0.193064   -1.421694
 H    6.691518   -0.031947    0.342975
 H    4.415731   -1.102306   -1.407024
 H    4.725865   -1.374105    1.592993
 H    2.591477   -1.131324    2.311238
 H    0.757194   -3.902184   -1.344309
 H    3.197107   -3.121038   -1.451167
 H   -1.211411   -2.502810   -1.662218
 H   -1.540487   -4.156513   -1.092567
 H   -3.530301   -3.289864    0.186478
 H   -3.656020   -3.062484   -1.585945
 H   -7.100217   -0.095053    1.518670
 H   -6.641041    0.645418   -2.690510
 H   -8.608890    1.458486   -1.581282
 H   -8.533358    1.708536    0.169641
 H   -9.193593    0.203942   -0.479665
 H    3.243609    3.195831   -1.505895
 H    3.794667    2.960660    0.155706
 H    3.959743    0.808148   -2.880161
 H    0.986358    0.905618    0.059168
 H   -1.967823    3.894994    0.902318
 H   -0.252140    5.668601    0.598020
 H   -1.770664    0.720850   -0.412305
 H   -2.651521    1.697403    0.764905
 H   -1.876858   -0.669783    1.303487
 H    0.272543   -1.043372    1.449504
 H    2.415935   -1.146421   -3.188058
 H    1.672589   -0.838931   -1.555350
 H    1.787041    1.212649   -3.925556
 H    0.993903    1.484239   -2.305521
 H   -2.518143    1.021174    3.143417
 H   -0.499015    1.845423    4.392624
 H    0.581084    1.104903    3.111163
 H   -1.470351   -0.452474    4.873301
 H   -0.373466   -1.174763    3.589511
