90 
3ob0_ligand_dft.xyz
 C   -4.129458    0.980600   -1.001666
 O   -3.757871    1.183717    0.338571
 C   -5.639072    1.228634   -1.073453
 O   -6.001257    1.288568   -2.430527
 C   -6.384958    0.096643   -0.369131
 O   -7.761977    0.280131   -0.639592
 C   -5.911846   -1.260470   -0.874305
 O   -6.620473   -2.233566   -0.136363
 C   -4.394328   -1.351717   -0.704872
 O   -3.781752   -0.302781   -1.441400
 C   -3.760311   -2.649585   -1.202809
 O   -4.295400   -3.673494   -0.357338
 C    4.922545   -1.526290   -1.091784
 C    4.271596   -0.680914   -0.001542
 C    5.281750    0.309216    0.579916
 C    6.519030   -0.476226    1.046364
 O    7.053651   -1.282406    0.034177
 C    6.145502   -2.237741   -0.523266
 C    6.941847   -2.991636   -1.575802
 O    3.140034   -0.076341   -0.607741
 O    5.627122    1.224795   -0.438156
 C    1.491339    2.962385   -0.975708
 C    1.041550    1.656600   -1.616189
 C    0.882484    0.582932   -0.547090
 C    2.180965    0.462844    0.256595
 O    2.572538    1.695709    0.795832
 C    2.771796    2.730235   -0.165331
 C    3.167061    3.939216    0.669899
 O    1.677228    3.871558   -2.039188
 O   -0.185338    1.827050   -2.291786
 O    3.335250    5.049753   -0.201430
 O   -0.136094    0.941725    0.365139
 O    8.081944   -3.596868   -1.011965
 O    4.032034   -2.512135   -1.561304
 C   -2.488074    0.065115    2.668943
 C   -2.302794    1.485451    2.135328
 C   -2.393306    1.466336    0.612811
 C   -1.406399    0.424384    0.065294
 O   -1.587321   -0.847168    0.626876
 C   -1.480641   -0.901953    2.045453
 C   -1.738721   -2.353787    2.443451
 O   -2.325474    0.045937    4.074808
 O   -3.260227    2.346996    2.719240
 O   -1.441794   -2.595323    3.795324
 O    6.128091   -1.210069    2.172638
 C   -4.019461   -2.943031   -2.672996
 H   -3.594493    1.666448   -1.667925
 H   -5.854294    2.180491   -0.565914
 H   -6.956063    1.123346   -2.443528
 H   -6.191930    0.145312    0.712388
 H   -8.195128   -0.551825   -0.402082
 H   -6.151807   -1.324644   -1.945989
 H   -6.096109   -3.051108   -0.158624
 H   -4.145140   -1.262556    0.359130
 H   -2.682304   -2.549507   -1.023764
 H   -3.944870   -4.522572   -0.650305
 H    5.240206   -0.854780   -1.902703
 H    3.938361   -1.346062    0.807196
 H    4.843865    0.819322    1.445664
 H    7.332190    0.223528    1.289294
 H    5.824169   -2.939997    0.256395
 H    7.212229   -2.294269   -2.384645
 H    6.321569   -3.784237   -1.998233
 H    6.210071    1.894880   -0.062861
 H    0.696743    3.303348   -0.293312
 H    1.828321    1.334754   -2.314605
 H    0.660773   -0.389916   -1.000604
 H    2.022517   -0.186740    1.125716
 H    3.589792    2.461365   -0.843508
 H    2.376931    4.126549    1.410160
 H    4.098002    3.714885    1.208807
 H    2.121962    4.649695   -1.667696
 H   -0.082650    2.631566   -2.819632
 H    3.425420    5.847422    0.330646
 H    8.561777   -2.886416   -0.566488
 H    3.218932   -2.045753   -1.796167
 H   -3.501503   -0.274602    2.400402
 H   -1.318177    1.853197    2.436639
 H   -2.125998    2.439106    0.181442
 H   -1.532499    0.286929   -1.007325
 H   -0.469070   -0.618662    2.364678
 H   -1.085992   -2.997258    1.845606
 H   -2.780185   -2.613664    2.187968
 H   -2.853066    0.783689    4.413403
 H   -4.080340    2.197057    2.225172
 H   -1.871892   -1.895125    4.309266
 H    6.880619   -1.750393    2.446148
 H   -5.082153   -3.134408   -2.853335
 H   -3.707129   -2.093476   -3.286115
 H   -3.453528   -3.824667   -2.995933
