48 
3ocg_ligand_dft.xyz
 N    4.659780    0.073154   -0.014072
 N    4.617507    1.441896   -0.110877
 C    3.342120    1.741858   -0.040308
 C    2.516110    0.594885    0.086065
 C    3.419219   -0.470375    0.085124
 N    3.159770   -1.805428    0.200061
 C    1.068586    0.403117    0.127390
 O    0.566152   -0.719063    0.102116
 N    0.327151    1.562449    0.186334
 C   -1.067833    1.724106    0.196232
 C   -1.568224    3.040699    0.109005
 C   -2.946350    3.230057    0.128632
 C   -3.829400    2.160170    0.211200
 C   -3.323616    0.863713    0.286675
 C   -1.947338    0.645483    0.296154
 C   -4.204765   -0.347718    0.400419
 O   -3.868656   -1.356116    0.978070
 N   -5.433034   -0.205967   -0.234126
 C   -6.451858   -1.146721   -0.293627
 N   -6.511035   -2.212911    0.470361
 O   -7.686153   -2.848468    0.096703
 C   -8.290004   -2.152035   -0.865662
 C   -7.571091   -1.049369   -1.176046
 C   -0.639403    4.224153    0.004296
 C    5.909130   -0.595170   -0.085876
 C    6.166455   -1.697142    0.728872
 C    7.395309   -2.343928    0.632538
 C    8.366143   -1.883396   -0.250974
 C    8.106057   -0.766753   -1.042919
 C    6.877731   -0.122055   -0.969611
 H    3.054151    2.785273   -0.091423
 H    3.793293   -2.435221   -0.272775
 H    2.169313   -2.000006    0.079859
 H    0.862549    2.414080    0.233893
 H   -3.336126    4.243446    0.083430
 H   -4.897573    2.351121    0.263645
 H   -1.567007   -0.362807    0.379911
 H   -5.540190    0.585469   -0.849220
 H   -9.219066   -2.559458   -1.235973
 H   -7.783846   -0.288629   -1.911469
 H    0.001378    4.323461    0.890889
 H    0.012432    4.153694   -0.876160
 H   -1.206044    5.154002   -0.085197
 H    5.420495   -2.031297    1.442372
 H    7.596236   -3.202310    1.266037
 H    9.325116   -2.387536   -0.317938
 H    8.862396   -0.397500   -1.728628
 H    6.658904    0.749569   -1.575615
