34 
3ocp_ligand_dft.xyz
 P    3.569849    0.897891   -0.102569
 O    3.295914    2.331784   -0.276785
 O    5.034598    0.414117   -0.504978
 O    3.435555    0.318396    1.392589
 C    2.145057   -0.004109    1.947850
 C    1.510234   -0.966224    0.963380
 O    0.188329   -1.349190    1.267321
 C    1.371433   -0.289995   -0.391780
 O    2.654484   -0.108117   -0.990598
 C    0.473603   -1.274823   -1.123217
 O    1.195978   -2.390932   -1.584509
 C   -0.422948   -1.767165    0.048760
 N   -1.778785   -1.290786    0.020584
 C   -2.910381   -2.048681    0.248726
 N   -4.017052   -1.363756    0.266589
 C   -3.598388   -0.063248    0.051623
 C   -4.294931    1.157170   -0.038389
 N   -5.636863    1.226540    0.068215
 N   -3.601121    2.284797   -0.249607
 C   -2.271708    2.198049   -0.374110
 N   -1.498684    1.115977   -0.312926
 C   -2.219470    0.011005   -0.093844
 H    5.568242    1.176313   -0.767767
 H    2.338867   -0.450574    2.923158
 H    1.541748    0.901581    2.069960
 H    2.162409   -1.845266    0.859965
 H    0.843853    0.665377   -0.295614
 H   -0.118007   -0.809860   -1.919513
 H    2.002666   -2.057354   -2.002143
 H   -0.464612   -2.860528    0.001673
 H   -2.834053   -3.119416    0.389628
 H   -6.163333    0.408101    0.326319
 H   -6.074236    2.133427    0.091092
 H   -1.757613    3.140102   -0.546513
