62 
3odu_ligand_dft.xyz
 C   -5.654728   -0.869994    0.116341
 N   -3.636665   -1.657368   -1.088864
 S   -1.139417   -2.954404   -1.264514
 C   -4.198839   -0.576357   -0.223382
 N   -2.133191   -1.451899    0.520957
 S   -0.051453    0.511913    2.248438
 C   -4.031759    0.771128   -0.925648
 N    2.058087   -0.692282    1.210625
 C   -2.414874   -1.980504   -0.667888
 N    1.772205    1.620735    0.642871
 C   -0.227856   -2.617210    0.200085
 C   -3.269153   -0.679200    1.028202
 C   -0.893410   -1.812719    1.051541
 C   -0.426765   -1.264216    2.356794
 C    1.437877    0.414363    1.216215
 C    3.227592   -0.978925    0.384448
 C    4.513173   -0.291783    0.874221
 C    5.724584   -0.779354    0.072923
 C    5.518045   -0.581992   -1.431754
 C    4.233088   -1.263442   -1.912603
 C    3.016631   -0.765853   -1.125490
 C    0.878536    2.516565   -0.113778
 C   -0.079332    1.773470   -1.057446
 C   -0.874976    2.764793   -1.913520
 C   -1.612960    3.789124   -1.046466
 C   -0.645228    4.522019   -0.113331
 C    0.138067    3.536058    0.759520
 H   -6.031042   -0.120347    0.819005
 H   -6.278281   -0.825157   -0.781685
 H   -5.762333   -1.860118    0.567257
 H   -3.937248   -1.780280   -2.045265
 H   -4.402388    1.576842   -0.284712
 H   -2.979602    0.968615   -1.153100
 H   -4.602641    0.796456   -1.859262
 H    2.715013    1.614532    0.284966
 H    0.771287   -3.006973    0.322741
 H   -3.743015   -1.224466    1.850198
 H   -2.933454    0.299398    1.377657
 H   -1.191477   -1.371336    3.132356
 H    0.476540   -1.788608    2.667987
 H    3.402888   -2.056642    0.514763
 H    4.642248   -0.491894    1.942701
 H    4.436874    0.800241    0.769932
 H    5.887222   -1.845724    0.280469
 H    6.625477   -0.254474    0.406982
 H    6.379534   -0.969498   -1.985355
 H    5.460569    0.493611   -1.652267
 H    4.329822   -2.350365   -1.783667
 H    4.083212   -1.085399   -2.982972
 H    2.859877    0.296214   -1.352412
 H    2.103937   -1.287634   -1.441955
 H    1.565432    3.092575   -0.747170
 H   -0.769765    1.166462   -0.454252
 H    0.490764    1.082668   -1.690153
 H   -1.578367    2.225764   -2.560148
 H   -0.186179    3.292739   -2.586570
 H   -2.371921    3.274054   -0.438997
 H   -2.147255    4.504692   -1.680229
 H   -1.189105    5.228659    0.521710
 H    0.056008    5.116863   -0.714603
 H    0.861364    4.060537    1.391943
 H   -0.559410    3.017711    1.428317
