62 
3odu_ligand_xtb.xyz
 C   -5.578317   -0.983368   -0.098359
 N   -3.518376   -1.923646   -1.038935
 S   -1.172833   -3.403769   -0.575526
 C   -4.129062   -0.703346   -0.474316
 N   -2.180401   -1.420546    0.640726
 S   -0.244707    0.877753    1.671143
 C   -4.022564    0.433795   -1.486416
 N    1.710936   -0.639987    0.975420
 C   -2.398260   -2.229798   -0.397326
 N    1.667258    1.462229   -0.119663
 C   -0.355218   -2.720550    0.807872
 C   -3.236347   -0.441047    0.773585
 C   -1.020028   -1.672122    1.337194
 C   -0.571477   -0.764578    2.413512
 C    1.244463    0.505940    0.730648
 C    2.880035   -1.248718    0.382765
 C    4.191090   -0.516213    0.692348
 C    5.374034   -1.326708    0.170458
 C    5.240928   -1.564483   -1.331129
 C    3.932190   -2.283614   -1.645346
 C    2.740960   -1.482602   -1.127382
 C    1.094112    2.757898   -0.458488
 C   -0.274452    2.622652   -1.133625
 C   -0.759267    3.993327   -1.597748
 C   -0.838935    4.956260   -0.416982
 C    0.519028    5.078868    0.267144
 C    1.008910    3.711415    0.734983
 H   -6.007457   -0.114817    0.392495
 H   -6.166673   -1.196251   -0.986672
 H   -5.646312   -1.834794    0.574238
 H   -3.848709   -2.355873   -1.883730
 H   -4.434094    1.344932   -1.061877
 H   -2.984799    0.614000   -1.757781
 H   -4.582287    0.197063   -2.387414
 H    2.559154    1.258454   -0.543411
 H    0.579431   -3.127214    1.130312
 H   -3.785395   -0.602267    1.705331
 H   -2.818199    0.568427    0.782117
 H   -1.339633   -0.595997    3.166864
 H    0.355663   -1.118624    2.856274
 H    2.939047   -2.234398    0.867841
 H    4.272897   -0.373137    1.771658
 H    4.203827    0.472183    0.226541
 H    5.412680   -2.287263    0.688425
 H    6.302689   -0.794948    0.383086
 H    6.082582   -2.159777   -1.687180
 H    5.265877   -0.606426   -1.856399
 H    3.938920   -3.268765   -1.173733
 H    3.834873   -2.429026   -2.722864
 H    2.689258   -0.528713   -1.657286
 H    1.808366   -2.019405   -1.325556
 H    1.784754    3.193476   -1.188842
 H   -0.989845    2.211166   -0.419988
 H   -0.195443    1.937980   -1.982123
 H   -1.739055    3.897299   -2.069614
 H   -0.068227    4.389616   -2.344156
 H   -1.573704    4.588945    0.302979
 H   -1.168218    5.936544   -0.763036
 H    0.445366    5.751496    1.122220
 H    1.241574    5.505089   -0.431980
 H    1.990879    3.799715    1.203475
 H    0.313996    3.313163    1.476718
