50 
3oe5_ligand_xtb.xyz
 C    3.546194    0.807039   -1.309206
 C    4.857804    0.000406   -1.350154
 C    5.115437   -0.275449    0.134205
 O    4.453189    0.692911    0.877048
 C    3.679627    1.547083    0.033694
 C    2.406480    1.916980    0.732034
 S    4.585858   -1.998379    0.587018
 O    3.491361    1.651450   -2.426502
 O    5.912529    0.764710   -1.854090
 C    1.203631    2.009432    0.189199
 C    2.845722   -1.712057    0.829124
 C   -0.021229    2.412062    0.951348
 N   -1.101669    1.479717    0.710642
 C   -2.329690    1.893815    0.380553
 C   -3.348894    0.848494    0.099064
 C   -4.685984    1.256135   -0.044602
 C   -5.701058    0.301215   -0.303327
 C   -5.370843   -1.027369   -0.461060
 C   -4.032719   -1.408713   -0.357934
 C   -3.033627   -0.496066   -0.067554
 N   -3.674375   -2.779034   -0.577801
 O   -5.080164    2.530779    0.050905
 O   -6.978463    0.713262   -0.412421
 O   -2.613653    3.095017    0.306707
 O   -4.564615   -3.596199   -0.663607
 O   -2.489604   -3.039572   -0.679057
 C    1.909689   -2.174361   -0.085410
 C    0.584178   -1.818930    0.103804
 N    0.177054   -1.060281    1.113208
 C    1.068608   -0.690083    2.021410
 C    2.415806   -0.992746    1.935078
 H    2.685917    0.122251   -1.282339
 H    4.748305   -0.932242   -1.921030
 H    6.187199   -0.266120    0.349800
 H    4.271244    2.463277   -0.143899
 H    2.549126    2.137576    1.780662
 H    2.722021    2.226120   -2.360805
 H    5.565099    1.288498   -2.589952
 H    1.027899    1.787924   -0.855203
 H   -0.373542    3.395051    0.616915
 H    0.201173    2.470510    2.022034
 H   -0.883241    0.492405    0.844485
 H   -6.133418   -1.757749   -0.677894
 H   -2.023813   -0.859771    0.020978
 H   -4.250990    3.078009    0.166334
 H   -6.998395    1.674711   -0.286111
 H    2.211998   -2.776077   -0.927027
 H   -0.183384   -2.153472   -0.581180
 H    0.680448   -0.114880    2.851551
 H    3.116142   -0.664943    2.684588
