50 
3oe5_ligand_dft.xyz
 C   -3.503239   -1.045931   -1.198060
 C   -4.792415   -0.268304   -1.468332
 C   -5.080214    0.359172   -0.099376
 O   -4.490515   -0.469179    0.868170
 C   -3.722270   -1.506270    0.248515
 C   -2.484644   -1.760075    1.059506
 S   -4.529723    2.130412    0.079142
 O   -3.401363   -2.093848   -2.137048
 O   -5.841495   -1.161914   -1.750310
 C   -1.258470   -1.928600    0.568756
 C   -2.807669    1.891376    0.462179
 C   -0.048182   -2.239463    1.407269
 N    1.063429   -1.368243    1.068748
 C    2.257656   -1.846120    0.673754
 C    3.297971   -0.867976    0.241163
 C    4.545483   -1.376858   -0.156133
 C    5.567052   -0.507236   -0.602934
 C    5.339998    0.849382   -0.674233
 C    4.086878    1.333200   -0.288338
 C    3.077425    0.513549    0.171758
 N    3.829939    2.767841   -0.394666
 O    4.868931   -2.674294   -0.149874
 O    6.755846   -1.027927   -0.970467
 O    2.493031   -3.067804    0.646394
 O    4.770098    3.495756   -0.674082
 O    2.685094    3.160441   -0.206834
 C   -1.814083    2.052867   -0.503044
 C   -0.496006    1.776920   -0.156055
 N   -0.131404    1.366400    1.062516
 C   -1.082079    1.265417    1.994666
 C   -2.424664    1.519842    1.749908
 H   -2.637935   -0.374159   -1.254292
 H   -4.681903    0.485235   -2.256766
 H   -6.160553    0.417212    0.057754
 H   -4.340580   -2.416185    0.222209
 H   -2.650495   -1.836654    2.133521
 H   -2.764731   -2.744244   -1.818567
 H   -5.452861   -1.872933   -2.282527
 H   -1.062560   -1.841807   -0.500666
 H    0.294967   -3.263359    1.234168
 H   -0.290234   -2.146694    2.472963
 H    0.889104   -0.365777    1.098325
 H    6.111694    1.522206   -1.025403
 H    2.145906    0.970497    0.486967
 H    4.052648   -3.160213    0.154035
 H    6.699201   -1.989027   -0.853554
 H   -2.064512    2.363369   -1.511909
 H    0.305223    1.882939   -0.882923
 H   -0.753776    0.940855    2.979373
 H   -3.164964    1.400982    2.531458
