62 
3oe6_ligand_xtb.xyz
 C    5.681249   -0.770609    0.025121
 N    3.685341   -1.800702    1.010662
 S    1.380897   -3.362679    0.609236
 C    4.230752   -0.554117    0.436182
 N    2.283870   -1.344356   -0.629778
 S    0.226338    0.879136   -1.596212
 C    4.099566    0.575271    1.454080
 N   -1.674288   -0.717962   -0.929994
 C    2.559331   -2.146416    0.400006
 N   -1.751048    1.394880    0.143997
 C    0.501482   -2.707206   -0.749735
 C    3.298082   -0.325833   -0.788939
 C    1.114749   -1.635805   -1.294987
 C    0.610171   -0.741750   -2.357771
 C   -1.266899    0.450507   -0.686322
 C   -2.835916   -1.372337   -0.373170
 C   -4.164677   -0.698479   -0.735937
 C   -5.329981   -1.558356   -0.255038
 C   -5.243774   -1.786042    1.251513
 C   -3.916586   -2.443702    1.619054
 C   -2.744212   -1.590570    1.142810
 C   -1.259263    2.729269    0.461505
 C    0.104987    2.691578    1.157294
 C    0.499181    4.099084    1.596481
 C    0.538687    5.039093    0.395472
 C   -0.814131    5.064618   -0.308956
 C   -1.213580    3.660046   -0.752144
 H    6.062778    0.119790   -0.465891
 H    6.298035   -0.967455    0.897664
 H    5.769201   -1.611834   -0.657860
 H    4.052337   -2.219777    1.846895
 H    4.467467    1.502577    1.024713
 H    3.060842    0.714413    1.745006
 H    4.684564    0.358469    2.343854
 H   -2.637900    1.150529    0.556729
 H   -0.427220   -3.145545   -1.047167
 H    3.829321   -0.466285   -1.734312
 H    2.841997    0.667072   -0.785527
 H    1.358098   -0.537133   -3.122309
 H   -0.309984   -1.130218   -2.786138
 H   -2.835060   -2.362944   -0.851806
 H   -4.212013   -0.562948   -1.818326
 H   -4.236729    0.290068   -0.275839
 H   -5.306698   -2.521054   -0.769899
 H   -6.272276   -1.068601   -0.505095
 H   -6.070548   -2.418402    1.577361
 H   -5.332657   -0.828835    1.771295
 H   -3.860217   -3.429631    1.152340
 H   -3.854224   -2.581080    2.700176
 H   -2.758506   -0.632420    1.667446
 H   -1.795956   -2.081446    1.380898
 H   -1.985143    3.138545    1.172789
 H    0.854616    2.308396    0.463197
 H    0.055496    2.022479    2.020098
 H    1.475485    4.072539    2.084045
 H   -0.225710    4.469152    2.324083
 H    1.304631    4.701000   -0.306037
 H    0.803694    6.044707    0.723512
 H   -0.769086    5.721626   -1.178031
 H   -1.570880    5.461356    0.371038
 H   -2.191771    3.678416   -1.236284
 H   -0.484183    3.288691   -1.474332
