80 
3oev_ligand_dft.xyz
 C   -1.493234    0.208091   -1.523567
 C   -0.082633    0.585961   -1.813177
 O    0.679851   -0.160351   -2.431206
 C   -2.516164    1.148290   -1.437884
 C   -3.822968    0.765159   -1.148375
 C   -1.797552   -1.144896   -1.338504
 C   -3.085802   -1.539087   -1.030544
 C   -4.108391   -0.585311   -0.929647
 O   -5.330672   -1.072644   -0.620896
 C   -6.418220   -0.167273   -0.522943
 C   -7.665980   -0.944594   -0.194536
 C   -7.931588   -2.158029   -0.831263
 C   -9.104236   -2.851808   -0.555708
 C  -10.027140   -2.336124    0.351903
 C   -9.768031   -1.126299    0.987514
 C   -8.588568   -0.436832    0.718002
 N    0.308419    1.805360   -1.363290
 C    1.603387    2.376182   -1.680791
 C    2.670843    1.832025   -0.713349
 O    3.119335    2.536756    0.200339
 C    1.507115    3.908276   -1.584727
 O    0.987597    4.273401   -0.321119
 C    0.593685    4.491386   -2.649217
 N    3.023664    0.555865   -0.946860
 C    3.881313   -0.276012   -0.098694
 C    3.142926   -0.647460    1.201506
 O    2.769690   -1.794922    1.409714
 C    5.274474    0.323898    0.125060
 C    6.201498   -0.624270    0.904976
 C    6.556161   -1.877210    0.136652
 C    7.639700   -1.873994   -0.745623
 C    5.794663   -3.043090    0.256782
 C    7.959821   -3.004811   -1.489778
 C    6.111688   -4.175926   -0.488681
 C    7.195175   -4.161558   -1.362130
 C   -1.290955    2.192351    1.919793
 C   -1.539075    0.860831    1.780112
 C   -0.454694    0.026002    2.203121
 C   -0.511241   -1.476333    2.145035
 S    0.269530    2.468071    2.596481
 C    0.599524    0.764049    2.673743
 C    1.953139    0.284201    3.126919
 N    2.948144    0.380109    2.068197
 H   -2.305609    2.199846   -1.610788
 H   -4.597911    1.520493   -1.098216
 H   -1.002796   -1.878329   -1.427413
 H   -3.332763   -2.582328   -0.865092
 H   -6.537972    0.361180   -1.480103
 H   -6.217815    0.582747    0.254263
 H   -7.208166   -2.561168   -1.533144
 H   -9.298928   -3.798424   -1.050949
 H  -10.943907   -2.877777    0.564688
 H  -10.478928   -0.722049    1.701936
 H   -8.385180    0.502994    1.225857
 H   -0.217465    2.281078   -0.638566
 H    1.860372    2.074630   -2.701657
 H    2.521176    4.312500   -1.712862
 H    1.644360    3.962362    0.324357
 H    0.517724    5.572985   -2.512374
 H   -0.410111    4.062220   -2.574236
 H    0.984275    4.288433   -3.651333
 H    2.442617    0.071673   -1.632928
 H    3.990684   -1.221439   -0.633384
 H    5.193188    1.277096    0.652596
 H    5.709283    0.536373   -0.858679
 H    5.733394   -0.886110    1.861450
 H    7.118095   -0.075631    1.148926
 H    8.241647   -0.973176   -0.846537
 H    4.936720   -3.055331    0.924949
 H    8.808132   -2.984290   -2.168111
 H    5.508879   -5.073353   -0.383777
 H    7.443602   -5.047322   -1.939545
 H   -1.939991    3.024040    1.681688
 H   -2.462634    0.463365    1.372978
 H    0.476588   -1.914698    1.980768
 H   -0.922264   -1.888209    3.074768
 H   -1.166684   -1.796248    1.329587
 H    1.896575   -0.762564    3.429369
 H    2.304583    0.862352    3.986987
 H    3.144925    1.310977    1.707974
