91 
3ohf_ligand_xtb.xyz
 C    4.905099    2.504785   -2.011831
 C   -2.340308   -2.720835    2.859176
 C    3.593334    2.116537   -2.226424
 C    5.902288    1.546423   -1.948475
 C   -3.540509   -2.293641    2.288120
 C   -0.027889    1.079037    1.809741
 C   -1.140421   -2.589426    2.194177
 C    3.283435    0.776618   -2.381889
 C    5.588039    0.207414   -2.100103
 C    1.013543    0.377243    2.396420
 C   -3.570558   -1.703859    1.041616
 C    0.216259    2.254715    1.134877
 C    2.563371    2.050995    1.622584
 C   -0.774950   -1.145587   -1.121784
 C   -1.143054   -1.988912    0.937893
 C   -0.125898   -1.728037   -0.049134
 C    4.275776   -0.195609   -2.320171
 C    2.308772    0.861302    2.294329
 C   -2.359262   -1.534106    0.387004
 C    1.515619    2.765312    1.047672
 C    1.268655   -2.061362    0.088311
 C   -3.065972   -0.559628   -1.832723
 C   -7.999241   -1.002151   -1.330326
 C   -4.809035    3.057703    2.725343
 C    2.882212    4.619455    0.446493
 C    3.951563   -1.654720   -2.501826
 C    3.440176    0.069686    2.896528
 C   -6.840188   -0.019497   -1.221411
 C   -3.826410    2.818469    1.586077
 C   -5.994268   -0.017616   -2.491687
 C   -4.321594    1.721783    0.644343
 C   -4.805541    0.942615   -2.440428
 C   -3.334826    1.495720   -0.501022
 C    4.251161   -0.850946    0.733038
 C    3.403478   -2.328883   -1.230942
 C    4.392372   -2.192974   -0.047368
 N   -2.090092   -0.992824   -0.854858
 N    2.064565   -1.813679   -0.975051
 N    3.706193   -1.131098    2.073577
 N   -3.774029    0.526631   -1.489974
 O    1.736678   -2.522105    1.152072
 O   -3.180319   -1.186907   -2.855948
 O    4.315998   -3.284156    0.826676
 O    1.647579    3.936674    0.391115
 H    5.156249    3.550876   -1.920574
 H   -2.361261   -3.183884    3.833610
 H    2.810120    2.856674   -2.292662
 H    6.928910    1.843372   -1.797934
 H   -4.463329   -2.443429    2.826600
 H   -1.035047    0.702866    1.902815
 H   -0.221821   -2.961990    2.618032
 H    2.259151    0.496601   -2.581156
 H    6.376733   -0.530172   -2.075366
 H    0.807931   -0.533467    2.936011
 H   -4.500198   -1.416929    0.576582
 H   -0.580985    2.824369    0.684760
 H    3.575712    2.419251    1.565845
 H   -0.398139   -0.799581   -2.066833
 H   -8.595449   -0.992434   -0.421293
 H   -7.629725   -2.012622   -1.489152
 H   -8.643687   -0.739610   -2.165491
 H   -4.945049    2.150634    3.309625
 H   -5.777301    3.364291    2.337696
 H   -4.442025    3.838966    3.385465
 H    3.676291    4.055980   -0.050898
 H    3.171020    4.829477    1.480280
 H    2.720590    5.558138   -0.079777
 H    3.215140   -1.772874   -3.299952
 H    4.851054   -2.190061   -2.806841
 H    3.169399   -0.263422    3.900803
 H    4.349693    0.671963    2.956947
 H   -7.234465    0.984195   -1.044632
 H   -6.220562   -0.290121   -0.364272
 H   -2.856144    2.534345    2.000425
 H   -3.690072    3.745712    1.025017
 H   -5.626689   -1.024212   -2.693860
 H   -6.620230    0.278397   -3.335132
 H   -5.293376    2.008786    0.242375
 H   -4.447777    0.798193    1.210196
 H   -4.354172    0.989979   -3.437386
 H   -5.139490    1.939769   -2.154462
 H   -2.376225    1.171568   -0.091843
 H   -3.169930    2.448650   -1.019777
 H    5.224575   -0.368061    0.831950
 H    3.573609   -0.170559    0.215632
 H    3.334157   -3.410250   -1.429855
 H    5.399858   -2.243280   -0.470823
 H    1.594303   -1.506251   -1.811722
 H    4.343411   -1.786696    2.540438
 H    2.794372   -1.682256    1.879670
 H    3.373550   -3.480286    0.996551
