64 
3oki_ligand_dft.xyz
 C    0.058628   -0.469970    1.284176
 N   -0.538000    0.647921    0.715431
 N   -0.616942   -0.948479    2.301297
 C   -0.684707    0.679636   -1.728070
 C   -0.191890    1.441939   -0.469716
 C   -1.701519    0.860624    1.437354
 C   -1.732726   -0.148693    2.413491
 N   -2.006225    0.389882   -1.698875
 C    1.349884   -1.068750    0.885426
 O    0.058114    0.349313   -2.641895
 C    1.263943    1.915715   -0.549765
 C    2.239532   -1.408992    1.909969
 C    1.692846   -1.364986   -0.435196
 C    3.788063   -2.273914    0.300506
 C   -2.615952   -0.616089   -2.566811
 C    3.460422   -2.004907    1.625240
 C    2.912092   -1.963425   -0.731817
Cl    5.324891   -3.018709   -0.069753
 C   -2.723995    1.806043    1.314913
 C   -2.808657   -0.236443    3.301038
 C    1.390158    3.016208   -1.616055
 C    1.772150    2.430841    0.803453
 C   -4.140301   -0.520353   -2.430897
 C   -2.129234   -2.027918   -2.199494
 C   -3.784666    1.702465    2.204228
 C   -3.828559    0.693943    3.182884
 C    3.212708    2.937360    0.696141
 C    2.831799    3.517938   -1.727579
 C   -2.593867   -2.443077   -0.800968
 C   -4.634220   -0.958515   -1.043645
 C    3.356331    4.016494   -0.379352
 C   -4.118159   -2.353706   -0.675180
 H   -0.805444    2.345709   -0.380266
 H   -2.508911    0.603404   -0.848780
 H    1.895578    1.080772   -0.867501
 H    1.960942   -1.205138    2.938221
 H    1.026768   -1.120788   -1.254253
 H   -2.314797   -0.381659   -3.591629
 H    4.151941   -2.259413    2.420697
 H    3.174395   -2.186663   -1.759805
 H   -2.705126    2.594774    0.568137
 H   -2.831364   -1.018377    4.052593
 H    0.736728    3.859034   -1.340197
 H    1.047564    2.635807   -2.582204
 H    1.117062    3.245265    1.148290
 H    1.719462    1.643754    1.562023
 H   -4.584939   -1.175407   -3.190325
 H   -4.468792    0.501149   -2.655293
 H   -2.528445   -2.730429   -2.943751
 H   -1.038457   -2.067483   -2.281987
 H   -4.596509    2.420446    2.142859
 H   -4.677632    0.648874    3.857683
 H    3.544639    3.320177    1.667921
 H    3.867680    2.089743    0.450179
 H    3.469231    2.697803   -2.085284
 H    2.890271    4.313150   -2.479305
 H   -2.254058   -3.461150   -0.583567
 H   -2.125555   -1.798529   -0.045074
 H   -4.316574   -0.241506   -0.272220
 H   -5.729729   -0.941608   -1.027660
 H    4.403602    4.326977   -0.468929
 H    2.785996    4.906435   -0.076646
 H   -4.576524   -3.093614   -1.346903
 H   -4.429515   -2.610022    0.343333
