53 
3oku_ligand_dft.xyz
 C   -3.052607    3.219778    0.404419
 C    3.996419    0.571483    1.963351
 N   -6.437623   -0.408970    0.122852
 O    6.541468    1.327271    0.197034
 O   -4.548164    0.370173    1.628552
 O   -4.691113   -2.037720    0.890301
 C   -1.958922   -1.221045   -0.604459
 C   -0.814570    1.264216   -0.847156
 C   -3.049121    2.434393   -0.913126
 C    6.078833   -1.073566    0.202314
 C    0.244721   -2.385518   -0.460693
 C    4.723217   -1.809553    0.213329
 C    1.725744   -2.195662   -0.776771
 C    2.049174    1.643925   -0.205677
 C    3.582015    1.771676   -0.225034
 O   -4.147873   -0.233566   -0.753064
 C    5.742452    0.424296    0.268567
 C   -2.206223    1.185268   -0.829398
 C   -0.569584   -1.116780   -0.609146
 C   -2.750193   -0.088464   -0.700767
 C    0.022059    0.152043   -0.729489
 C    1.539871    0.303836   -0.776729
 C    2.241600   -0.913367   -0.129294
 C    3.745952   -0.723259   -0.260769
 C    4.232820    0.561328    0.436236
 S   -4.885340   -0.627840    0.637680
 H   -3.654892    4.129570    0.310313
 H   -2.035452    3.514356    0.685070
 H   -3.464041    2.608588    1.212079
 H    4.441492    1.476993    2.388012
 H    4.453848   -0.288818    2.462897
 H    2.932241    0.567973    2.213376
 H   -6.860818    0.420244    0.522065
 H   -6.989793   -1.249888    0.239701
 H   -2.436244   -2.192325   -0.518513
 H   -0.378411    2.252714   -0.956639
 H   -2.659429    3.070489   -1.716999
 H   -4.074264    2.169846   -1.186717
 H    6.750278   -1.347343    1.021779
 H    6.629444   -1.249573   -0.728659
 H   -0.184143   -3.171338   -1.093037
 H    0.142745   -2.740525    0.574239
 H    4.722731   -2.685424   -0.441306
 H    4.465183   -2.157751    1.219951
 H    2.290087   -3.065177   -0.421648
 H    1.880112   -2.136536   -1.863277
 H    1.638574    2.475785   -0.786309
 H    1.666627    1.768170    0.815151
 H    3.929174    1.839605   -1.264460
 H    3.890650    2.699340    0.268709
 H    1.830973    0.285275   -1.840952
 H    1.975977   -0.946646    0.938215
 H    3.949680   -0.578793   -1.336720
