130 
3old_ligand_xtb.xyz
 C    1.350757    4.220851   -0.627326
 C    2.484378    3.170240   -0.512846
 C    2.732629    2.880597    0.963030
 C    2.986667    4.192800    1.719835
 C    1.816912    5.158182    1.492552
 C    2.075908    6.533413    2.113357
 O    2.140029    2.029397   -1.264488
 O    3.843707    2.026659    1.107062
 O    3.162738    3.847263    3.068929
 O    1.621249    5.378792    0.104161
 O    2.183745    6.385181    3.513003
 C   -3.560253    2.837197   -1.876659
 C   -2.380404    2.835787   -2.861206
 C   -1.090133    2.668003   -2.057049
 C   -0.976898    3.825250   -1.047594
 C   -2.236549    3.820126   -0.171955
 C   -2.302390    5.012352    0.789838
 O   -2.543367    1.786621   -3.781180
 O   -0.025160    2.591517   -2.967447
 O    0.147439    3.619804   -0.211007
 O   -3.423586    3.882168   -0.961624
 O   -3.456502    4.954293    1.581219
 C   -5.782753   -1.829926   -0.328135
 C   -5.677813   -1.462646   -1.813541
 C   -4.558122   -0.436706   -2.049653
 C   -4.821843    0.854505   -1.248468
 C   -5.305554    0.569772    0.155475
 C   -5.292554    1.739089    1.097731
 C   -5.753219   -0.618773    0.545807
 N   -4.640244   -2.748373   -0.050561
 O   -5.418940   -2.650908   -2.520484
 O   -4.528023   -0.205321   -3.431660
 O   -3.613635    1.597508   -1.221420
 O   -5.629190    1.321377    2.396656
 C   -1.739157   -3.683467    1.278053
 O   -2.665585   -4.305085   -0.873833
 C   -2.556317   -4.714513    0.467193
 C   -4.000405   -4.872832    0.992919
 O   -4.099698   -5.623167    2.166628
 C   -4.604547   -3.473290    1.243227
 C   -3.696833   -2.625169    2.163259
 O   -2.467431   -2.477512    1.471005
 C   -3.577912   -3.127478    3.596124
 C    2.696101   -0.949153    0.720993
 C    2.382144   -1.752781    2.002738
 C    1.437885   -2.917713    1.659595
 C    0.209251   -2.355345    0.942879
 C    0.646712   -1.529803   -0.275380
 C   -0.542192   -0.888867   -1.002633
 O    3.529450   -2.209559    2.650130
 O    1.026120   -3.579783    2.830318
 O   -0.645949   -3.389389    0.473270
 O    1.506498   -0.474690    0.131920
 O   -1.347211   -1.814192   -1.694686
 C    7.102998   -2.160691   -2.013405
 C    6.949902   -2.720538   -0.583608
 C    5.450500   -2.939631   -0.327252
 C    4.788612   -1.563077   -0.282900
 C    5.189364   -0.752533   -1.539603
 C    5.887911    0.561396   -1.159068
 O    7.310049   -3.244810   -2.863777
 O    7.655618   -3.912207   -0.392384
 O    5.246808   -3.614565    0.891339
 O    3.383350   -1.745938   -0.206223
 O    5.933181   -1.513762   -2.466592
 O    6.947141    0.297883   -0.261637
 H    1.279824    4.559779   -1.668060
 H    3.393769    3.594724   -0.956807
 H    1.834204    2.400714    1.385203
 H    3.906687    4.653910    1.318563
 H    0.913523    4.720493    1.940954
 H    2.999642    6.946109    1.687856
 H    1.243048    7.192691    1.844463
 H    1.919092    1.290640   -0.672743
 H    4.126787    2.104465    2.029494
 H    2.977130    4.631105    3.608420
 H    2.281569    7.253846    3.917370
 H   -4.495000    3.039087   -2.416306
 H   -2.359663    3.802157   -3.385723
 H   -1.167849    1.737999   -1.476630
 H   -0.893941    4.782054   -1.578695
 H   -2.233549    2.887348    0.409019
 H   -2.267063    5.942769    0.209468
 H   -1.449606    4.976744    1.467874
 H   -1.689533    1.683665   -4.225887
 H    0.797296    2.393043   -2.477283
 H   -4.215320    5.008243    0.987670
 H   -6.697115   -2.408822   -0.162648
 H   -6.625295   -1.016661   -2.147904
 H   -3.589329   -0.845952   -1.721224
 H   -5.603048    1.428379   -1.770274
 H   -6.006590    2.491318    0.726763
 H   -4.293885    2.193313    1.079004
 H   -6.138662   -0.719158    1.548446
 H   -4.591947   -3.392897   -0.868826
 H   -3.738874   -2.230340   -0.083313
 H   -5.169706   -2.399940   -3.420102
 H   -3.845998    0.462197   -3.629436
 H   -5.579041    2.082103    2.985733
 H   -1.428420   -4.093788    2.249726
 H   -1.892366   -3.747684   -1.072742
 H   -2.029164   -5.678489    0.528710
 H   -4.574920   -5.351868    0.181149
 H   -3.853878   -6.539568    1.995618
 H   -5.605709   -3.583628    1.662862
 H   -4.089652   -1.600952    2.191312
 H   -4.526394   -2.975869    4.102201
 H   -3.329245   -4.181009    3.642723
 H   -2.812510   -2.552908    4.110620
 H    3.276418   -0.052924    0.973440
 H    1.875858   -1.086294    2.712498
 H    1.960825   -3.617979    0.989062
 H   -0.341710   -1.712718    1.637464
 H    1.187070   -2.191533   -0.967073
 H   -0.137538   -0.138187   -1.690588
 H   -1.196206   -0.400140   -0.276571
 H    4.074100   -2.738743    2.033063
 H    1.803859   -3.649164    3.402525
 H   -0.832024   -2.192246   -2.417378
 H    7.960593   -1.465419   -2.061380
 H    7.330217   -1.998957    0.146185
 H    5.012263   -3.527621   -1.147628
 H    5.148744   -1.044479    0.611677
 H    4.277588   -0.499297   -2.090973
 H    6.266376    1.028613   -2.077334
 H    5.145531    1.220215   -0.693413
 H    7.130115   -2.955164   -3.765025
 H    7.687432   -4.375484   -1.242329
 H    6.053235   -4.127208    1.059592
 H    7.340183    1.135616    0.005977
