64 
3olf_ligand_xtb.xyz
 N   -1.078981   -0.704795   -0.483219
 C   -1.531118    0.246688   -1.373785
 N   -1.076660    0.062341   -2.586387
 C   -0.266836   -1.544555   -1.208419
 C   -0.293856   -1.052592   -2.536179
 C    0.276322   -0.547275    1.518049
 C   -1.162637   -0.692632    0.958266
 C    0.495164   -2.646506   -0.850852
 N    0.950261    0.446148    0.883052
 C    0.430816   -1.681186   -3.544182
 C    1.209385   -3.251981   -1.862601
 C    2.304869    0.786987    0.956072
 C    6.406246    1.902285    1.015615
 C   -2.378583    1.382973   -1.035557
 C    1.173369   -2.781591   -3.184036
 C    4.987147    1.494716    1.024805
 C    4.137028    2.038596    0.063636
 C    2.799161    1.699111    0.008017
 O    0.708855   -1.247733    2.399978
 O    6.885368    2.702785    0.250137
 C    3.148289    0.242503    1.920133
 C    4.482985    0.590601    1.954137
 C   -1.854136   -1.933408    1.560336
 C   -3.458422    1.297639   -0.158801
 C   -2.110910    2.602321   -1.660844
 F    1.964875   -4.324791   -1.573288
 F    1.894478   -3.425824   -4.118815
 O    7.143717    1.291489    1.956856
 C   -3.933037    3.619629   -0.495296
 C   -4.231521    2.410303    0.113931
 C   -2.878443    3.716971   -1.392468
Cl   -4.893278    5.010311   -0.148306
 C    1.910811    2.291090   -1.049444
 C   -2.943139   -2.516311    0.659030
 C   -2.443084   -1.577073    2.927204
 C   -3.064618   -2.808586    3.578847
 C   -3.555354   -3.752337    1.312864
 C   -4.140769   -3.405724    2.677945
 H   -1.713481    0.209717    1.249519
 H    0.555933   -3.027172    0.154601
 H    0.443544    0.954930    0.171315
 H    0.417401   -1.325611   -4.560032
 H    4.554397    2.735293   -0.647975
 H    2.750026   -0.457962    2.634561
 H    5.136599    0.165906    2.698599
 H   -1.091291   -2.701543    1.720009
 H   -3.726788    0.352150    0.285552
 H   -1.296502    2.655165   -2.366068
 H    8.062864    1.594671    1.897118
 H   -5.069438    2.340041    0.789421
 H   -2.666572    4.657466   -1.875570
 H    1.479016    1.515760   -1.684884
 H    1.100602    2.873438   -0.606741
 H    2.489799    2.955898   -1.684091
 H   -2.530158   -2.788862   -0.314334
 H   -3.729727   -1.775938    0.493834
 H   -1.654579   -1.179185    3.567591
 H   -3.208722   -0.805057    2.806955
 H   -3.494036   -2.535315    4.544272
 H   -2.285535   -3.551930    3.757559
 H   -4.332860   -4.161096    0.664729
 H   -2.784205   -4.516191    1.432495
 H   -4.952605   -2.685027    2.552883
 H   -4.558783   -4.301401    3.140380
