64 
3olf_ligand_dft.xyz
 N   -1.613449   -0.102468   -0.421463
 C   -1.510449    0.814624   -1.455240
 N   -1.835281    0.319359   -2.621628
 C   -2.017920   -1.290328   -1.008167
 C   -2.169655   -0.995227   -2.372606
 C    0.068409   -0.766417    1.204479
 C   -1.209900    0.068238    0.970215
 C   -2.235523   -2.569700   -0.488153
 N    1.178343   -0.169751    0.671477
 C   -2.594057   -1.982279   -3.270429
 C   -2.646989   -3.524425   -1.392242
 C    2.505304   -0.636879    0.624756
 C    6.585921   -1.855988    0.376309
 C   -0.985609    2.184785   -1.289075
 C   -2.831514   -3.236239   -2.757815
 C    5.157321   -1.471745    0.476641
 C    4.801267   -0.175473    0.102505
 C    3.487682    0.265823    0.167544
 O    0.050335   -1.838845    1.779025
 O    7.473940   -1.126504   -0.005748
 C    2.849779   -1.936755    1.004929
 C    4.173050   -2.347858    0.929100
 C   -2.310221   -0.245187    1.991846
 C   -1.440653    3.068788   -0.305610
 C    0.001052    2.618158   -2.181349
 F   -2.874759   -4.776566   -0.981732
 F   -3.237155   -4.231606   -3.555205
 O    6.820244   -3.127657    0.758203
 C    0.106708    4.737596   -1.063892
 C   -0.894696    4.341011   -0.184103
 C    0.551497    3.889065   -2.072652
Cl    0.807280    6.326848   -0.905137
 C    3.132318    1.674689   -0.237997
 C   -3.665197    0.346823    1.586110
 C   -1.884105    0.270775    3.374886
 C   -2.954789   -0.005550    4.433237
 C   -4.733498    0.062857    2.645485
 C   -4.308574    0.577886    4.022509
 H   -0.944542    1.122102    1.082862
 H   -2.055373   -2.838374    0.544723
 H    1.019864    0.721729    0.223086
 H   -2.726716   -1.778494   -4.326133
 H    5.582558    0.494668   -0.243207
 H    2.082922   -2.610425    1.359545
 H    4.437423   -3.357860    1.221148
 H   -2.416437   -1.333204    2.067599
 H   -2.247386    2.776192    0.358653
 H    0.328984    1.945538   -2.967185
 H    7.774431   -3.264984    0.651667
 H   -1.251050    5.024570    0.578392
 H    1.319884    4.218926   -2.762991
 H    2.462063    1.698934   -1.107128
 H    2.640518    2.225834    0.573853
 H    4.031019    2.232455   -0.510932
 H   -3.981826   -0.051957    0.616804
 H   -3.566386    1.436240    1.465834
 H   -0.936884   -0.191772    3.671191
 H   -1.712644    1.356885    3.311611
 H   -2.636695    0.405874    5.397522
 H   -3.052818   -1.091065    4.569516
 H   -5.683930    0.516096    2.343315
 H   -4.903374   -1.021279    2.700284
 H   -4.234893    1.674486    3.990890
 H   -5.070434    0.333688    4.770976
