99 
3omg_ligand_dft.xyz
 N    4.567058   -0.357416   -2.053711
 C    3.954616   -1.514358   -2.760785
 C    3.229290   -2.445982   -1.775109
 O    3.645656   -3.576996   -1.559858
 N    2.154290   -1.897548   -1.178471
 C    1.252068   -2.639833   -0.328795
 C   -0.162475   -2.168982   -0.721128
 O   -0.348723   -1.418762   -1.670106
 C    1.464765   -2.411143    1.201394
 C    2.876675   -2.037512    1.646434
 C    3.914620   -3.160782    1.714846
 N    5.234593   -2.616538    2.051249
 C    5.828810   -1.727882    1.184721
 N    6.484564   -0.663018    1.754438
 N    5.771083   -1.812900   -0.107114
 N   -1.177447   -2.574792    0.081339
 C   -2.422077   -1.831611    0.065161
 C   -2.124409   -0.319618    0.165001
 O   -1.142863    0.112907    0.759836
 C   -3.306538   -2.275635    1.227362
 N   -3.021835    0.451766   -0.491982
 C   -3.014799    1.904103   -0.376416
 C   -3.458146    2.414926    0.995485
 C   -4.974669    2.372546    1.224327
 C   -5.669172    1.007099    1.227714
 N   -5.815815    0.420967   -0.112786
 C   -6.752498   -0.708815   -0.138587
 N   -6.733586   -1.206304   -1.499279
 C   -7.409528   -2.481726   -1.689558
 N   -8.086758   -0.342434    0.275330
 C   -8.781735   -1.241265    1.183820
 C   -1.670475    2.484173   -0.826251
 O   -1.211375    3.513266   -0.346923
 N   -1.068934    1.840693   -1.863650
 C    0.232848    2.279559   -2.323657
 C    1.323734    1.687436   -1.440937
 O    2.084944    0.812694   -1.872360
 N    1.345492    2.117928   -0.170360
 C    1.902874    1.308868    0.897144
 C    1.166273    1.692713    2.167550
 O    1.304253    0.753044    3.116087
 C    3.426974    1.456882    1.108522
 C    3.937031    2.880326    0.904908
 C    4.210891    3.174107   -0.565582
 O    4.672654    2.324781   -1.321804
 N    3.959448    4.437082   -0.973701
 O    0.571886    2.727329    2.334121
 H    5.152595    0.206048   -2.671695
 H    3.838913    0.293221   -1.707287
 H    5.169350   -0.721741   -1.243268
 H    3.263491   -1.127312   -3.512893
 H    4.745520   -2.093391   -3.235987
 H    1.795945   -1.017432   -1.545371
 H    1.375739   -3.702060   -0.565135
 H    1.138124   -3.314539    1.734073
 H    0.798412   -1.602388    1.522413
 H    2.800803   -1.567097    2.634033
 H    3.264031   -1.272126    0.967936
 H    3.969995   -3.708122    0.770513
 H    3.659634   -3.892043    2.487177
 H    5.331923   -2.385375    3.030787
 H    6.739263   -0.719018    2.729291
 H    7.199295   -0.257610    1.166914
 H    5.348539   -2.693589   -0.393345
 H   -0.944254   -3.051356    0.939827
 H   -2.931086   -2.019125   -0.885616
 H   -2.825840   -2.050144    2.185495
 H   -4.263789   -1.749457    1.196784
 H   -3.506846   -3.349649    1.170760
 H   -3.975747    0.089899   -0.625789
 H   -3.734633    2.255976   -1.128250
 H   -3.116649    3.449374    1.090445
 H   -2.930587    1.843539    1.767547
 H   -5.170750    2.832754    2.199190
 H   -5.472933    3.020926    0.488517
 H   -5.091785    0.304647    1.845032
 H   -6.658775    1.114302    1.691590
 H   -6.212739    1.127507   -0.732794
 H   -6.379404   -1.445229    0.599049
 H   -5.769598   -1.270269   -1.810483
 H   -8.487668   -2.357776   -1.555046
 H   -7.070191   -3.271170   -0.996700
 H   -7.245230   -2.823243   -2.714242
 H   -8.645059   -0.115389   -0.541023
 H   -8.926153   -2.264567    0.801684
 H   -8.229948   -1.306886    2.127184
 H   -9.764416   -0.820262    1.411268
 H   -1.339099    0.885103   -2.062802
 H    0.396660    1.934543   -3.344374
 H    0.258981    3.371723   -2.294723
 H    0.634109    2.797284    0.107930
 H    1.675783    0.260676    0.692153
 H    0.828295    1.074695    3.899243
 H    3.961196    0.802607    0.417198
 H    3.670285    1.099392    2.112736
 H    4.897483    2.994454    1.421159
 H    3.248434    3.614816    1.336964
 H    4.199991    4.701120   -1.917435
 H    3.584181    5.139689   -0.357230
