63 
3oot_ligand_dft.xyz
 C   -3.689526    2.584046   -0.820387
 C   -3.536080    1.238066   -0.575532
 C   -2.325928    0.821631   -0.020045
 C   -1.285304    1.711808    0.304714
 C   -1.479542    3.102621    0.121258
 C   -2.678105    3.499064   -0.472408
 N   -1.942257   -0.462681    0.350005
 C   -0.685623   -0.420916    0.889348
 C   -0.226639    0.889131    0.858760
 C   -0.519149    4.159042    0.611579
 O   -2.969603    4.802024   -0.726708
 C    1.128280    1.208528    1.329320
 N    1.906686    2.095607    0.565975
 C    1.711426    2.258087   -0.862321
 C    2.404604    1.133645   -1.622865
 N    3.849407    1.009830   -1.196565
 C    4.061575    1.008526    0.303801
 C    3.307886    2.172452    0.933663
 O    1.621337    0.694653    2.323480
 C   -2.780889   -1.608327    0.205352
 C   -3.262654   -2.262873    1.336701
 C   -4.082289   -3.376907    1.186232
 C   -4.435098   -3.819271   -0.086106
 C   -3.965871   -3.148659   -1.212967
 C   -3.133286   -2.043286   -1.071051
 C    0.003038   -1.677071    1.356491
 C    1.369855   -1.948166    0.755702
 C    1.546118   -2.037752   -0.636678
 C    2.843579   -2.266580   -1.095849
 C    3.931949   -2.489818   -0.267420
 C    3.721234   -2.452655    1.108365
 C    2.457364   -2.157966    1.608002
 C    0.403011   -1.921319   -1.613630
 F    3.071427   -2.227836   -2.430859
 H   -4.602258    2.975563   -1.255163
 H   -4.328190    0.532078   -0.799717
 H    0.237493    3.743697    1.275898
 H    0.009755    4.668153   -0.207115
 H   -1.049045    4.926998    1.189357
 H   -2.230704    5.368257   -0.477198
 H    2.099245    3.238961   -1.163422
 H    0.651408    2.236793   -1.116548
 H    2.396219    1.277428   -2.705198
 H    1.942007    0.180091   -1.374985
 H    4.390900    1.773581   -1.611739
 H    4.222551    0.135586   -1.581782
 H    5.139728    1.047446    0.472633
 H    3.665994    0.062535    0.676768
 H    3.402150    2.096129    2.016356
 H    3.714305    3.138981    0.612469
 H   -2.999811   -1.892231    2.322793
 H   -4.455964   -3.891144    2.065610
 H   -5.081243   -4.683584   -0.199612
 H   -4.245199   -3.487682   -2.205249
 H   -2.758632   -1.511881   -1.940773
 H   -0.647571   -2.531282    1.139811
 H    0.105142   -1.627775    2.444020
 H    4.901160   -2.717747   -0.699308
 H    4.546099   -2.639320    1.788265
 H    2.307967   -2.081107    2.679455
 H   -0.413204   -2.590883   -1.324955
 H   -0.017734   -0.908812   -1.643637
 H    0.720257   -2.191499   -2.621549
