63 
3oot_ligand_xtb.xyz
 C   -3.346983    3.002713   -0.611717
 C   -3.394673    1.635905   -0.494039
 C   -2.267186    0.998351    0.005897
 C   -1.102759    1.705138    0.380235
 C   -1.100992    3.109053    0.348558
 C   -2.229030    3.731278   -0.179247
 N   -2.073416   -0.337544    0.278141
 C   -0.831119   -0.508615    0.809791
 C   -0.171791    0.709144    0.843691
 C    0.002072    3.939612    0.947053
 O   -2.320906    5.081969   -0.296228
 C    1.219432    0.854086    1.267009
 N    2.050751    1.588941    0.423691
 C    1.783629    1.922403   -0.947165
 C    2.577899    0.997484   -1.873412
 N    4.027177    1.073349   -1.539275
 C    4.282904    0.774606   -0.099695
 C    3.444330    1.710346    0.768408
 O    1.688938    0.368128    2.275040
 C   -3.042134   -1.339180    0.045674
 C   -3.530459   -2.102387    1.099746
 C   -4.487875   -3.071280    0.857862
 C   -4.963068   -3.276736   -0.426915
 C   -4.480029   -2.510807   -1.475156
 C   -3.518728   -1.543135   -1.244256
 C   -0.344676   -1.865475    1.210242
 C    1.075900   -2.146909    0.811535
 C    1.450215   -2.117808   -0.536030
 C    2.791899   -2.339288   -0.821375
 C    3.740936   -2.637824    0.137944
 C    3.335750   -2.708649    1.459545
 C    2.018730   -2.445348    1.787166
 C    0.451875   -1.900664   -1.634775
 F    3.229306   -2.178515   -2.110897
 H   -4.184492    3.560413   -0.996170
 H   -4.279498    1.081193   -0.760688
 H    0.688783    3.314654    1.507413
 H    0.562318    4.487861    0.186989
 H   -0.417847    4.664140    1.646867
 H   -1.557047    5.511578    0.105411
 H    2.069424    2.965484   -1.130891
 H    0.718390    1.820653   -1.154385
 H    2.433475    1.275635   -2.917943
 H    2.251350   -0.030467   -1.727198
 H    4.366481    2.021655   -1.743771
 H    4.542855    0.408736   -2.128024
 H    5.345930    0.894833    0.110349
 H    3.990790   -0.260564    0.096400
 H    3.548862    1.421045    1.817506
 H    3.768005    2.750298    0.645434
 H   -3.171035   -1.922584    2.101580
 H   -4.868532   -3.661135    1.677175
 H   -5.712868   -4.030171   -0.610499
 H   -4.850874   -2.667215   -2.476413
 H   -3.134437   -0.944438   -2.057067
 H   -1.002635   -2.618149    0.765227
 H   -0.420925   -1.952636    2.297058
 H    4.761524   -2.825153   -0.157705
 H    4.050059   -2.953609    2.228429
 H    1.716825   -2.464361    2.821447
 H   -0.340719   -2.643861   -1.557191
 H   -0.015633   -0.918959   -1.567400
 H    0.917482   -2.008337   -2.611718
