50 
3ooz_ligand_dft.xyz
 C    0.886899    5.043177   -0.615573
 F    6.852989   -3.349661   -0.129998
 N    0.750436    3.603320   -0.628268
 O    1.496253    3.131222    1.500335
 C    1.060143    2.788464    0.423950
 F    4.972738   -3.925496   -1.054022
 N    0.188847    1.565347   -1.357967
 O    5.475132   -1.770903   -0.696574
 C    0.756782    1.340730   -0.026041
 F   -7.763348   -2.462510   -2.858503
 N    0.100562    3.469726   -2.860478
 C    0.318571    2.893300   -1.750265
 F   -2.913709   -0.901701    3.615562
 C    2.032647    0.504622   -0.124913
 C    3.296183    1.091523   -0.231323
 C    4.428847    0.310822   -0.410085
 C    4.305757   -1.072216   -0.501525
 C    3.055573   -1.678915   -0.416281
 C    1.931998   -0.883439   -0.215005
 C    5.554523   -3.043395   -0.203053
 C   -0.252964    0.729603    0.942715
 C    0.137441    0.463743    2.259497
 C   -0.763004   -0.081734    3.162312
 C   -2.053044   -0.367529    2.742851
 C   -2.478880   -0.115202    1.438051
 C   -1.552327    0.445076    0.546241
 C   -3.814337   -0.419581    1.029746
 C   -4.942190   -0.669857    0.679019
 C   -6.300592   -0.989385    0.244183
 C   -6.344470   -1.587059   -1.170658
 C   -7.764196   -1.929190   -1.582806
 H   -0.076595    5.509648   -0.832172
 H    1.231928    5.328092    0.378934
 H    1.607444    5.357759   -1.373879
 H    0.386778    0.868286   -2.062160
 H   -0.228260    2.806675   -3.559674
 H    3.412399    2.167038   -0.147175
 H    5.414695    0.757775   -0.475024
 H    2.948973   -2.751819   -0.524255
 H    0.959376   -1.359231   -0.127159
 H    5.081065   -3.147432    0.779332
 H    1.147057    0.698332    2.578820
 H   -0.482265   -0.288997    4.188822
 H   -1.866057    0.661417   -0.468504
 H   -6.915328   -0.080039    0.281968
 H   -6.745767   -1.693437    0.959470
 H   -5.923270   -0.875723   -1.888495
 H   -5.731071   -2.492976   -1.210343
 H   -8.401268   -1.035749   -1.584119
 H   -8.204011   -2.667962   -0.901048
