54 
3opm_ligand_xtb.xyz
 C    1.609831   -0.003400   -0.023351
 C    2.577141   -1.002272   -0.071982
 C    2.184878   -2.333513   -0.275984
 C   -1.520965   -2.029296   -0.521291
 C   -0.774272    0.680342   -0.122787
 C    0.152226    4.236782   -0.973811
 C    0.003767    4.038049    1.412325
 C   -3.113490    1.419495   -0.190109
 C   -4.385853   -1.950401    0.808650
 C   -5.773079   -2.547076    0.591803
 C   -4.429099   -0.865472    1.881186
 C    6.267055   -0.886735    0.233977
 O    7.281333   -1.527957    0.121001
 N    6.223688    0.419616    0.544717
 C    4.896140   -1.548821    0.035120
 O    3.853417   -0.592061    0.086294
 C    0.853487   -2.642600   -0.420545
 C    0.260451   -0.313213   -0.168014
 C   -2.082811    0.316451   -0.243003
 N   -2.988345    2.278669   -1.414680
 N   -2.464353   -0.984474   -0.450881
 C   -3.845687   -1.434218   -0.536157
 O   -1.902473   -3.163858   -0.712333
 C   -0.126445   -1.649337   -0.369657
 C   -0.410064    2.110951    0.033225
 C   -0.316691    2.696286    1.290455
 C    0.227979    4.811249    0.283255
 C   -0.175042    2.892196   -1.105391
 H    1.925361    1.016147    0.134304
 H    2.916786   -3.122710   -0.319502
 H    0.359182    4.826100   -1.853909
 H    0.087548    4.480043    2.392697
 H   -2.917079    2.058718    0.673379
 H   -4.128874    1.038627   -0.114768
 H   -3.711466   -2.744045    1.141229
 H   -6.157807   -2.945772    1.525777
 H   -6.468894   -1.791210    0.231562
 H   -5.733696   -3.355921   -0.132270
 H   -5.156689   -0.094270    1.630756
 H   -4.730457   -1.304811    2.827839
 H   -3.452222   -0.406910    2.024349
 H    7.088590    0.912419    0.691840
 H    5.348046    0.905627    0.618227
 H    4.780255   -2.300688    0.825975
 H    4.915941   -2.061972   -0.933741
 H    0.535989   -3.662040   -0.575890
 H   -3.668836    3.045711   -1.411376
 H   -1.993982    2.668055   -1.408143
 H   -3.120249    1.716545   -2.262919
 H   -4.494382   -0.661112   -0.949340
 H   -3.840610   -2.278113   -1.232396
 H   -0.478641    2.090876    2.169395
 H    0.483623    5.853785    0.384789
 H   -0.119325    2.418584   -2.079144
