56 
3oqf_ligand_xtb.xyz
 C   -5.557284   -1.928504   -0.149708
 C   -5.032091   -1.266928   -1.247485
 C   -3.849184   -0.558573   -1.133170
 C   -3.193312   -0.508404    0.091046
 C   -3.721793   -1.166491    1.195834
 C   -4.901138   -1.878278    1.069129
 N   -1.997872    0.233788    0.215658
 C   -1.888567    1.581157   -0.059299
 C   -0.564847    1.985028    0.222286
 C    0.121353    0.810283    0.682013
 C   -0.806538   -0.221340    0.684789
 C   -2.856434    2.481283   -0.483971
 C   -2.479148    3.798700   -0.635057
 C   -1.178855    4.216691   -0.345800
 C   -0.219036    3.330021    0.090858
 C    0.644892   -2.155327    0.223147
 C    1.748471   -2.694759    0.871268
 C    2.847222   -3.129085    0.147248
 C    2.852036   -3.038405   -1.235828
 C    1.749204   -2.511092   -1.891812
 C    0.656124   -2.067904   -1.165013
 C    1.466724    0.672999    1.199767
 N    2.456000    1.480468    0.618913
 O    1.775379   -0.070736    2.112117
 C    2.482829    1.735255   -0.796337
 C    3.179938    0.581571   -1.530976
 N    4.537664    0.369124   -0.955978
 C    4.479128    0.131072    0.514969
 C    3.781308    1.322793    1.170169
 C   -0.547217   -1.657436    0.997721
 H   -6.479866   -2.479663   -0.243030
 H   -5.543275   -1.302933   -2.197140
 H   -3.429694   -0.046542   -1.986736
 H   -3.217140   -1.102584    2.148258
 H   -5.311714   -2.387239    1.927375
 H   -3.870146    2.162880   -0.670570
 H   -3.205524    4.524953   -0.964258
 H   -0.928536    5.260784   -0.454515
 H    0.770904    3.671883    0.351951
 H    1.750044   -2.768861    1.947035
 H    3.694217   -3.557670    0.663237
 H    3.699156   -3.397610   -1.802719
 H    1.735706   -2.457625   -2.970836
 H   -0.201763   -1.662156   -1.681956
 H    3.012706    2.676592   -0.981527
 H    1.466008    1.834501   -1.175155
 H    3.269257    0.800353   -2.595741
 H    2.606657   -0.341643   -1.399972
 H    5.103264    1.211236   -1.124718
 H    4.990415   -0.424690   -1.421825
 H    5.488647   -0.002661    0.903540
 H    3.891563   -0.772547    0.700893
 H    3.680096    1.131242    2.240132
 H    4.348700    2.245928    1.019998
 H   -1.425386   -2.254643    0.740106
 H   -0.350583   -1.765015    2.066348
