33 
3osw_ligand_xtb.xyz
 C   -0.064371   -2.860731    1.608000
 C    0.049671   -3.166022   -0.863767
 O    4.552995    1.268894    0.533646
 O   -4.475555    1.179536   -0.933977
Br    5.091879   -1.084913   -1.213952
Br    2.179335    2.347451    2.228871
Br   -2.147157    1.769615   -2.702951
Br   -5.118822   -0.758833    1.407913
 C    2.398049   -1.517801   -0.378574
 C    1.176675   -0.073846    1.074086
 C   -1.164494   -0.313329   -1.018428
 C   -2.406910   -1.376112    0.717872
 C    3.463601    0.490529    0.483666
 C   -3.451939    0.379670   -0.605825
 C    3.489990   -0.674634   -0.283230
 C    2.272634    0.760406    1.158218
 C   -2.250492    0.483997   -1.312167
 C   -3.490913   -0.572539    0.409820
 C    1.221926   -1.226624    0.297043
 C   -1.223600   -1.253771    0.006629
 C   -0.004189   -2.124410    0.262346
 H    0.882462   -3.367868    1.780669
 H   -0.231502   -2.167817    2.428793
 H   -0.851661   -3.610205    1.604903
 H    0.214105   -2.692841   -1.828255
 H    0.836876   -3.892679   -0.680921
 H   -0.898195   -3.698625   -0.904494
 H    4.396920    2.043501    1.095669
 H   -5.244805    1.003915   -0.370488
 H    2.487558   -2.399444   -0.990537
 H    0.276993    0.183166    1.611677
 H   -0.258456   -0.192610   -1.591824
 H   -2.506892   -2.090800    1.517486
