34 
3otf_ligand_dft.xyz
 P    3.569796    0.897910   -0.102608
 O    3.295816    2.331787   -0.276892
 O    5.034556    0.414157   -0.505001
 O    3.435510    0.318478    1.392578
 C    2.145012   -0.004032    1.947838
 C    1.510229   -0.966213    0.963405
 O    0.188342   -1.349225    1.267363
 C    1.371411   -0.290038   -0.391780
 O    2.654463   -0.108164   -0.990597
 C    0.473612   -1.274920   -1.123179
 O    1.196023   -2.391033   -1.584407
 C   -0.422950   -1.767208    0.048814
 N   -1.778781   -1.290801    0.020635
 C   -2.910404   -2.048681    0.248679
 N   -4.017066   -1.363735    0.266503
 C   -3.598361   -0.063233    0.051594
 C   -4.294878    1.157201   -0.038420
 N   -5.636793    1.226612    0.068270
 N   -3.601040    2.284819   -0.249603
 C   -2.271622    2.198048   -0.374042
 N   -1.498617    1.115962   -0.312834
 C   -2.219436    0.010998   -0.093809
 H    5.568205    1.176360   -0.767755
 H    2.338817   -0.450445    2.923172
 H    1.541681    0.901652    2.069891
 H    2.162450   -1.845226    0.860025
 H    0.843817    0.665330   -0.295657
 H   -0.117994   -0.810026   -1.919517
 H    2.002772   -2.057461   -2.001930
 H   -0.464645   -2.860571    0.001743
 H   -2.834106   -3.119420    0.389561
 H   -6.163424    0.408072    0.325715
 H   -6.074280    2.133457    0.090524
 H   -1.757501    3.140097   -0.546393
