25 
3oui_ligand_dft.xyz
 C   25.324007  -19.371005  -18.753868
 C   26.054053  -19.155934  -19.923620
 C   25.420406  -18.617193  -21.057983
Cl   23.059389  -19.323238  -17.301987
 C   24.067113  -18.295686  -21.075832
Cl   21.659576  -18.127669  -19.900858
 C   23.353376  -18.521668  -19.909146
 C   23.976900  -19.052954  -18.755617
 N   26.419891  -18.512919  -22.000402
 C   27.560437  -19.023561  -21.412183
 N   27.390632  -19.403981  -20.179331
 C   28.830377  -19.110147  -22.202640
 N   29.067268  -17.989971  -22.954795
 C   29.372797  -18.122226  -25.418256
 O   28.035266  -18.303139  -25.374208
 O   29.993614  -18.060970  -26.447107
 O   29.542000  -20.091992  -22.204692
 C   30.006749  -18.002737  -24.041440
 H   25.798382  -19.781443  -17.870541
 H   23.573116  -17.884296  -21.948328
 H   28.451301  -17.197481  -22.856716
 H   27.749317  -18.388168  -26.298564
 H   30.635981  -17.108100  -24.041816
 H   30.665143  -18.864891  -23.901961
 H   26.307908  -18.340634  -22.989111
