60 
3ov1_ligand_xtb.xyz
 C   -4.769631   -2.380493    0.261070
 O   -4.496766   -2.076078    1.409987
 C   -6.145563   -2.818436   -0.178946
 N   -3.852312   -2.357506   -0.727274
 C   -2.457365   -2.001685   -0.511314
 C   -2.345296   -0.464848   -0.439909
 O   -1.913307    0.213938   -1.347772
 C   -1.588702   -2.568757   -1.636164
 C   -0.134365   -2.563441   -1.250366
 C    0.723414   -1.570409   -1.701457
 C    0.366323   -3.554631   -0.414643
 C    2.056148   -1.563894   -1.329185
 C    1.692808   -3.552432   -0.028576
 C    2.539393   -2.553480   -0.487939
 O    3.862872   -2.586583   -0.097438
 P    4.486808   -1.298913    0.633053
 O    5.777532   -1.949712    1.262019
 O    3.568809   -1.000695    1.869054
 O    4.770103   -0.140954   -0.237801
 C   -3.714222    1.869260    2.176485
 C   -4.408832    1.968205    0.854175
 C   -3.003540    1.429132    0.927769
 C   -1.888983    2.291488    0.397291
 O   -2.088511    3.346333   -0.180901
 N   -2.786078    0.024807    0.737337
 N   -0.657185    1.837518    0.693427
 C    0.505799    2.369642    0.029681
 C    1.698299    1.448803    0.276016
 O    1.559273    0.417486    0.935867
 C    0.822605    3.815953    0.472678
 C    1.104657    4.602842   -0.797859
 O    2.223020    4.695755   -1.268275
 N   -0.005565    5.102314   -1.360015
 N    2.835896    1.853095   -0.261636
 H   -6.809481   -2.831197    0.680393
 H   -6.536389   -2.128473   -0.924011
 H   -6.101772   -3.814230   -0.614178
 H   -4.138846   -2.515106   -1.680499
 H   -2.157952   -2.417572    0.458002
 H   -1.736735   -1.955696   -2.526947
 H   -1.908545   -3.592605   -1.843529
 H    0.341215   -0.788903   -2.340058
 H   -0.288981   -4.336150   -0.057534
 H    2.730326   -0.800535   -1.683585
 H    2.085809   -4.311652    0.628783
 H    6.550644   -1.494745    0.932461
 H    2.787556   -0.452348    1.598067
 H   -4.027850    1.095311    2.861220
 H   -3.380743    2.777508    2.654075
 H   -4.529721    2.942031    0.406329
 H   -5.202097    1.268833    0.640050
 H   -3.282617   -0.613568    1.358496
 H   -0.516182    0.931647    1.123951
 H    0.306303    2.362831   -1.053577
 H   -0.039137    4.231304    0.990423
 H    1.687692    3.841044    1.134697
 H   -0.908846    4.777360   -1.033059
 H    0.056752    5.534242   -2.268026
 H    2.893033    2.734584   -0.757961
 H    3.659277    1.245355   -0.223413
