72 
3ove_ligand_xtb.xyz
 C   -2.458783    3.235843    0.724859
 O   -3.606626    3.186709    0.309185
 C   -2.082363    3.765714    2.085781
 N   -1.402676    2.829808   -0.008611
 C   -1.536158    2.270482   -1.338764
 C   -1.818826    0.758603   -1.229969
 O   -1.097599   -0.101423   -1.696742
 C   -0.296852    2.590915   -2.192374
 C    0.995616    2.089947   -1.607294
 C    1.632091    2.774307   -0.576356
 C    1.602670    0.943314   -2.101577
 C    2.800252    2.292154   -0.016883
 C    2.785213    0.461875   -1.565223
 C    3.373755    1.121171   -0.499860
 O    4.525081    0.704446    0.126580
 P    5.399613   -0.639218   -0.086436
 O    6.858560   -0.053807   -0.205832
 O    5.021519   -1.528036   -1.182939
 O    5.402519   -1.274996    1.362045
 O   -1.974224   -2.799159    0.189141
 C   -6.370786   -2.205643   -0.801346
 C   -6.635589   -1.474518    0.511435
 C   -4.930606   -2.680895   -0.987448
 C   -5.728075   -0.269975    0.752811
 C   -3.960979   -1.545221   -1.310502
 C   -4.294481   -0.672649    1.105419
 N   -2.921503    0.511138   -0.503129
 C   -2.119034   -1.613378    0.399002
 C   -3.349894   -0.824104   -0.096543
 N   -1.277007   -0.873876    1.152148
 C    0.108963   -1.188453    1.436153
 C    0.755869    0.144358    1.849634
 O    0.148299    1.199665    1.741695
 C    0.743256   -1.817337    0.182644
 C    2.169717   -2.289332    0.246438
 O    2.904451   -2.183217    1.232019
 N    2.588502   -2.884795   -0.870965
 N    1.971169    0.048746    2.382531
 H   -1.391457    3.080632    2.570664
 H   -1.595137    4.732385    1.976417
 H   -2.976453    3.888870    2.689949
 H   -0.532793    2.632250    0.469016
 H   -2.416561    2.742036   -1.794970
 H   -0.246219    3.675751   -2.309500
 H   -0.448409    2.139022   -3.172995
 H    1.225800    3.706959   -0.212845
 H    1.140360    0.411797   -2.918674
 H    3.285530    2.822800    0.787945
 H    3.260360   -0.412502   -1.973929
 H    7.124906    0.406755    0.589193
 H    4.594981   -1.813390    1.461618
 H   -6.635550   -1.551921   -1.636298
 H   -7.034585   -3.072777   -0.845226
 H   -7.675239   -1.137144    0.511365
 H   -6.520012   -2.173680    1.343235
 H   -4.915595   -3.379667   -1.826539
 H   -4.585838   -3.226153   -0.110186
 H   -6.136732    0.299990    1.590074
 H   -5.736209    0.386398   -0.118018
 H   -3.126531   -1.938080   -1.893647
 H   -4.470974   -0.802984   -1.928656
 H   -3.856492    0.077516    1.768912
 H   -4.314223   -1.614633    1.656115
 H   -3.514951    1.292009   -0.239833
 H   -1.448747    0.125788    1.218985
 H    0.181532   -1.890857    2.277306
 H    0.640982   -1.109581   -0.645863
 H    0.118056   -2.682064   -0.066638
 H    1.997837   -2.896093   -1.685227
 H    3.583291   -3.022092   -1.003263
 H    2.481751   -0.826595    2.289551
 H    2.474031    0.895857    2.593248
