21 
3ovn_ligand_xtb.xyz
 C   -1.113694    1.312228   -0.002078
 C   -2.360858    0.723425    0.001432
 N   -2.163848   -0.617473    0.003665
 N   -0.863173   -0.925553    0.004566
 C   -0.207301    0.228362   -0.000653
 C    1.227153    0.276301    0.000581
 S    2.150414   -1.191972    0.001596
 C    3.622895   -0.301848    0.001207
 C    3.413519    1.040145    0.000691
 C    2.044528    1.373287    0.000531
 C   -3.157245   -1.649741   -0.009182
 N   -3.626325    1.277168   -0.078024
 H   -0.887691    2.357767   -0.009820
 H    4.556218   -0.828944    0.000947
 H    4.204965    1.768729    0.000288
 H    1.676929    2.383572   -0.000142
 H   -3.733033   -1.654524    0.921210
 H   -3.837240   -1.516761   -0.853109
 H   -2.634209   -2.598227   -0.107553
 H   -3.645900    2.257008    0.161392
 H   -4.347234    0.750987    0.394630
