49 
3ovz_ligand_dft.xyz
 N    4.097167   -1.141406    1.988179
 C    4.101800    0.167565    1.672346
 C    4.867274    0.488979    0.375301
 C    4.027779    1.446580   -0.503456
 N    2.610328    1.089912   -0.489351
 C    2.142639   -0.030018   -1.089856
 C    0.656375   -0.213972   -0.981519
 C   -0.178202    0.810895   -1.419057
 C   -1.552481    0.665016   -1.437484
 C   -2.131186   -0.522702   -0.983557
 C   -1.321315   -1.540080   -0.431734
 C    0.071492   -1.383227   -0.488719
Cl    1.128067   -2.641554    0.090445
 C   -1.914522   -2.779920    0.223874
 F   -3.236987   -2.714130    0.411290
 F   -1.384076   -2.968475    1.444820
 F   -1.672528   -3.881282   -0.501441
 O   -3.456477   -0.757626   -1.062049
 C   -4.340919    0.322422   -1.316696
 C   -4.355557    1.331468   -0.189625
 N   -4.516045    2.606371   -0.549713
 C   -4.560399    3.520471    0.423164
 C   -4.432236    3.213853    1.773328
 C   -4.253386    1.881597    2.133406
 C   -4.218060    0.917372    1.135245
 O    2.857942   -0.801991   -1.723484
 C    4.192695    2.919604   -0.121687
 C    3.427822    3.869173   -1.041748
 O    5.261971   -0.671794   -0.320023
 O    3.552178    1.041668    2.332330
 H    3.595542   -1.457357    2.802823
 H    4.552391   -1.792939    1.366321
 H    5.788212    1.004162    0.674196
 H    4.375722    1.304459   -1.532931
 H    2.048294    1.503819    0.242885
 H    0.266889    1.731024   -1.785264
 H   -2.168856    1.475950   -1.803611
 H   -4.118605    0.822467   -2.265052
 H   -5.318222   -0.157146   -1.413238
 H   -4.696068    4.550372    0.100992
 H   -4.465483    4.000049    2.519815
 H   -4.142470    1.599498    3.175941
 H   -4.076252   -0.134478    1.361408
 H    3.885832    3.049523    0.921424
 H    5.263111    3.150925   -0.165174
 H    2.345726    3.718707   -0.968042
 H    3.712483    3.718961   -2.089297
 H    3.636059    4.911150   -0.780978
 H    4.538137   -0.894380   -0.938958
