45 
3owb_ligand_xtb.xyz
 C   -1.067643    5.582243   -1.016332
 O   -0.266525    4.992347   -0.023741
 C   -0.002393    3.657146   -0.109366
 C    0.802374    3.130409    0.902099
 C    1.127223    1.792906    0.914910
 C   -0.474109    2.813946   -1.108750
 C   -0.147765    1.469789   -1.086014
 C    0.649463    0.941450   -0.078405
 C    0.980106   -0.482751   -0.071525
 C    2.271888   -1.056373   -0.102618
 C    3.580201   -0.367155   -0.144883
 O    3.712071    0.841995   -0.179308
 N    4.618526   -1.233643   -0.161324
 C    5.996602   -0.812123   -0.151220
 C    6.704774   -1.228779    1.134439
 N    2.192991   -2.386010   -0.137590
 N    0.905805   -2.677039   -0.128156
 C    0.113103   -1.576515   -0.088316
 C   -1.335541   -1.643877   -0.031178
 C   -2.062336   -0.567444    0.477703
 C   -3.440061   -0.580014    0.520627
Cl   -4.298344    0.777867    1.145712
 C   -4.155115   -1.688163    0.059635
 O   -5.505722   -1.670041    0.107523
 C   -3.438640   -2.773273   -0.427252
 C   -2.051645   -2.768243   -0.472508
 O   -1.375858   -3.855436   -0.949062
 H   -0.614152    5.488906   -2.008736
 H   -2.072715    5.147362   -1.033985
 H   -1.137706    6.636434   -0.751792
 H    1.164766    3.798529    1.667038
 H    1.753819    1.398029    1.699074
 H   -1.091816    3.187696   -1.910333
 H   -0.517457    0.820832   -1.867395
 H    4.402205   -2.217596   -0.114134
 H    5.984456    0.276621   -0.243319
 H    6.515370   -1.236665   -1.018431
 H    6.201612   -0.796966    1.995870
 H    6.704332   -2.312115    1.237624
 H    7.734246   -0.881365    1.121929
 H   -1.534404    0.295679    0.846427
 H   -5.867235   -2.495706   -0.236526
 H   -3.977319   -3.644959   -0.781714
 H   -2.004125   -4.507616   -1.282228
 H    0.592070   -3.633981   -0.176557
