31 
3owl_ligand_dft.xyz
 C   23.569892    7.585998   10.775532
 O   23.812881    7.878398    9.470095
 C   23.251354    8.527970   11.722898
 C   23.012519    8.155213   13.068294
 C   23.061584    6.780404   13.449138
 C   23.437621    5.851350   12.447875
 C   23.681558    6.232825   11.154365
 C   22.767509    9.171603   14.038428
 C   22.605614    8.868123   15.356529
 C   22.629565    7.508151   15.725119
 C   22.791736    6.449365   14.824332
 N   22.482926    7.020096   17.005495
 C   22.513268    5.657823   16.975969
 C   22.668055    5.230781   15.629912
 C   22.403017    4.787710   18.066866
 C   22.263193    5.292576   19.474022
 C   22.425141    3.449373   17.734926
 N   22.487047    2.985561   16.476533
 C   22.581556    3.830163   15.479629
Cl   22.490983    3.050883   13.908123
 H   23.712218    8.828367    9.335343
 H   23.195765    9.582001   11.455912
 H   23.554799    4.811963   12.710163
 H   23.972032    5.504578   10.404465
 H   22.742104   10.207081   13.710584
 H   22.452196    9.640761   16.103946
 H   21.347250    5.883825   19.599161
 H   22.218527    4.461359   20.182606
 H   23.111488    5.927394   19.758886
 H   22.362470    2.690201   18.511753
 H   22.360132    7.582107   17.831099
