97 
3own_ligand_xtb.xyz
 N   -1.196816   -0.517804   -1.647788
 C   -2.552960   -0.982129   -1.907551
 C   -3.575484   -0.170790   -1.064593
 C   -4.802663   -0.970595   -0.624297
 C   -5.832501   -0.050917    0.045321
 C   -5.188184    0.692708    1.216957
 C   -2.542501   -2.487656   -1.650447
 O   -4.006987    0.953090   -1.793896
 C   -7.112053   -0.807007    0.456113
 C   -8.101500    0.172267    1.087320
 C   -6.852579   -1.973932    1.405477
 O   -5.017327    0.221679    2.325086
 O   -2.241960   -2.711851   -0.289560
 C   -4.308033    2.893332    1.870240
 C   -2.871398    3.369450    1.597302
 C   -1.864858    2.235075    1.766252
 C   -2.748376    4.007849    0.214094
 N   -4.833958    1.958734    0.905773
 C    0.641289    0.996996   -1.438741
 C    0.920213    2.254480   -0.919377
 C    2.205869    2.584207   -0.485752
 C    3.202976    1.613632   -0.602941
 C    2.927769    0.369480   -1.149107
 C    1.644460    0.045233   -1.571675
 C   -0.762807    0.737041   -1.867076
 C    4.084590   -0.560923   -1.354566
 N    2.489655    3.835215    0.035427
 C    1.466589    4.852906    0.077063
 S    4.079617    4.333983    0.313542
 C    4.810897    4.392423   -1.339258
 O    5.039616   -0.246346   -2.036737
 O   -1.454552    1.610610   -2.372843
 O    4.758202    3.359634    1.109682
 O    4.008282    5.670165    0.818929
 N    4.007324   -1.765590   -0.751572
 C    2.995848   -2.215020    0.186795
 C    1.994234   -3.146344   -0.460096
 C   -0.249001   -4.046031   -0.526584
 C    0.118441   -4.873830   -1.578338
 C    1.412722   -4.837599   -2.068911
 C    2.345490   -3.977051   -1.518101
 C    0.694487   -3.186854    0.023143
 C   -1.670421   -3.980802   -0.024787
 C    3.697845   -2.854155    1.371525
 C    3.888937   -4.225919    1.460429
 C    4.578186   -4.765749    2.532972
 C    5.087572   -3.940728    3.520351
 C    4.905855   -2.570505    3.433005
 C    4.214579   -2.029826    2.364245
 H   -0.643943   -1.129647   -1.064781
 H   -2.787554   -0.805672   -2.965549
 H   -3.049165    0.150311   -0.150664
 H   -5.271372   -1.435291   -1.493759
 H   -4.473944   -1.735961    0.075323
 H   -6.125627    0.694547   -0.700226
 H   -3.510539   -2.934951   -1.909285
 H   -1.771965   -2.939189   -2.291952
 H   -3.208618    1.381905   -2.165883
 H   -7.559464   -1.200780   -0.466148
 H   -7.707120    0.546539    2.028639
 H   -9.050434   -0.321495    1.284962
 H   -8.285661    1.017420    0.426650
 H   -6.303486   -2.770571    0.909916
 H   -6.280570   -1.631264    2.262049
 H   -7.798604   -2.382159    1.755047
 H   -4.967670    3.769875    1.901929
 H   -4.350245    2.388690    2.838978
 H   -2.657806    4.134624    2.353199
 H   -2.006453    1.483148    0.993749
 H   -0.844931    2.608401    1.693107
 H   -1.989630    1.755113    2.733622
 H   -3.537428    4.740464    0.057751
 H   -1.792683    4.519153    0.117329
 H   -2.809576    3.256734   -0.569884
 H   -4.880234    2.251641   -0.058305
 H    0.106977    2.958213   -0.867828
 H    4.199697    1.809949   -0.248016
 H    1.446614   -0.912913   -2.028358
 H    0.657067    4.555163    0.745935
 H    1.064241    5.058416   -0.918499
 H    1.934849    5.750480    0.471893
 H    4.297112    5.170082   -1.888459
 H    4.705183    3.429205   -1.820893
 H    5.857070    4.642083   -1.216159
 H    4.811574   -2.366191   -0.875731
 H    2.463751   -1.325615    0.545244
 H   -0.606820   -5.546457   -2.013293
 H    1.694708   -5.480119   -2.889483
 H    3.347278   -3.947612   -1.918509
 H    0.404957   -2.542625    0.841977
 H   -2.279413   -4.778239   -0.470899
 H   -1.697784   -4.078417    1.063507
 H    3.493322   -4.877312    0.695035
 H    4.717989   -5.834712    2.594634
 H    5.625234   -4.363953    4.355436
 H    5.302743   -1.920710    4.198225
 H    4.077714   -0.960074    2.295150
