77 
3oyp_ligand_xtb.xyz
 C   -3.885137    3.121315   -1.305787
 N   -3.055726    2.096922   -1.561101
 C   -5.119976    2.973376   -0.744253
 C   -3.433238    0.886329   -1.253719
 C   -5.565891    1.674658   -0.409223
 C   -4.700619    0.583282   -0.667067
 C   -6.325975   -0.927995    0.215784
 C   -5.094677   -0.725805   -0.344654
 C   -7.202338    0.135149    0.476337
 C   -6.825152    1.412609    0.168923
Br   -6.881760   -2.696918    0.658645
 O   -2.610788   -0.148036   -1.496710
 C   -1.316637    0.178450   -1.990396
 C   -0.609939   -1.124219   -2.358569
 C    0.147098   -1.544213   -1.096986
 N    0.020037   -0.415970   -0.172079
 C   -0.446854    0.758811   -0.872746
 C    1.645814   -1.736532   -1.366994
 O    2.195211   -1.275694   -2.356920
 N    2.282575   -2.397398   -0.388445
 C    3.710109   -2.547199   -0.330410
 C    4.236517   -3.899031    0.088769
 C    4.373303   -3.458616   -1.336026
 C    5.398712   -4.020620    0.999966
 C    6.636320   -4.272494    0.616446
 C    4.428610   -1.286843    0.079008
 O    5.220756   -1.196369    0.985493
 N    4.087062   -0.200858   -0.675049
 S    4.198575    1.325268    0.040491
 O    3.625996    2.233655   -0.906241
 O    3.555379    1.254451    1.322126
 C    5.943753    1.603327    0.221842
 C    6.656246    1.877336   -1.059955
 C    6.403540    2.988614   -0.095101
 C    0.236906   -0.588506    1.141605
 O    0.588684   -1.680294    1.578725
 C    0.030417    0.615311    2.058919
 N    0.759563    1.767496    1.576892
 C    0.469069    0.261070    3.477767
 C    0.156152    2.939627    1.283274
 O   -1.053986    3.074578    1.316590
 C    1.123584    4.037526    0.884173
 C    0.403154    5.176123    0.172838
 H   -3.492115    4.089820   -1.579289
 H   -5.752439    3.824779   -0.550516
 H   -4.421203   -1.544197   -0.543736
 H   -8.165955   -0.067522    0.918693
 H   -7.491288    2.239033    0.366611
 H   -1.421844    0.875207   -2.826352
 H    0.108376   -0.944025   -3.159449
 H   -1.327049   -1.877435   -2.675843
 H   -0.263412   -2.439419   -0.619167
 H    0.397071    1.315260   -1.294785
 H   -1.031575    1.417546   -0.234030
 H    1.760561   -2.523921    0.485485
 H    3.453289   -4.621756    0.297910
 H    5.347057   -3.163264   -1.693572
 H    3.739460   -3.905061   -2.086428
 H    5.159184   -3.913621    2.048807
 H    6.901663   -4.397968   -0.420143
 H    7.437188   -4.367956    1.327950
 H    3.504364   -0.335814   -1.503126
 H    6.362550    1.005514    1.012344
 H    7.659739    1.497646   -1.177432
 H    6.057438    1.852016   -1.957671
 H    5.636552    3.704225   -0.348837
 H    7.226948    3.392896    0.473802
 H   -1.034120    0.889707    2.048194
 H    1.771131    1.692755    1.569364
 H   -0.041309   -0.636722    3.813825
 H    0.239704    1.082268    4.151106
 H    1.541038    0.076965    3.488529
 H    1.902825    3.610491    0.249647
 H    1.599642    4.405662    1.796795
 H   -0.411920    5.542463    0.791800
 H    1.089375    5.993351   -0.034177
 H   -0.018343    4.824202   -0.765351
