77 
3oyp_ligand_dft.xyz
 C   -4.080159    3.234298   -1.287862
 N   -3.188617    2.274598   -1.660432
 C   -5.246275    2.974256   -0.629618
 C   -3.461563    1.038665   -1.355161
 C   -5.561809    1.628089   -0.297239
 C   -4.644027    0.616795   -0.663566
 C   -6.052158   -1.057054    0.317466
 C   -4.897960   -0.735946   -0.347387
 C   -6.986148   -0.067312    0.690932
 C   -6.741544    1.248190    0.388898
Br   -6.419052   -2.864591    0.752423
 O   -2.604873    0.053928   -1.687371
 C   -1.335458    0.428487   -2.234311
 C   -0.629788   -0.871086   -2.600835
 C    0.011952   -1.351745   -1.290784
 N   -0.055262   -0.184873   -0.396762
 C   -0.446209    1.010530   -1.141082
 C    1.497074   -1.702483   -1.458762
 O    2.167531   -1.275594   -2.396911
 N    2.013859   -2.428503   -0.436774
 C    3.425380   -2.637288   -0.275067
 C    3.867892   -4.043030    0.062235
 C    4.121631   -3.494206   -1.309148
 C    4.979006   -4.336380    1.012323
 C    6.161849   -4.814138    0.639265
 C    4.160256   -1.441723    0.296710
 O    4.838493   -1.447135    1.300090
 N    3.961291   -0.294361   -0.460758
 S    4.262935    1.251132    0.112371
 O    3.857730    2.122340   -0.981020
 O    3.651687    1.404819    1.426289
 C    6.012916    1.308111    0.309282
 C    6.863257    1.503129   -0.913080
 C    6.694162    2.627724    0.064581
 C   -0.027898   -0.361162    0.948076
 O    0.163658   -1.475332    1.439801
 C   -0.223910    0.875007    1.834993
 N    0.716130    1.916816    1.474137
 C   -0.123050    0.504136    3.310867
 C    0.310666    3.179331    1.157083
 O   -0.872076    3.478051    1.041298
 C    1.442063    4.171014    0.932903
 C    0.937073    5.516189    0.427089
 H   -3.797508    4.249929   -1.547290
 H   -5.920283    3.777911   -0.352506
 H   -4.182856   -1.498119   -0.630868
 H   -7.890086   -0.356643    1.215729
 H   -7.456357    2.013245    0.677306
 H   -1.479826    1.114163   -3.070282
 H    0.156525   -0.668691   -3.332599
 H   -1.323292   -1.604061   -3.016350
 H   -0.525981   -2.181686   -0.824302
 H    0.434926    1.493231   -1.580995
 H   -0.968395    1.740195   -0.524265
 H    1.425415   -2.484692    0.396880
 H    3.022154   -4.725306    0.139858
 H    5.140984   -3.218818   -1.561827
 H    3.515688   -3.831223   -2.142272
 H    4.765044   -4.169623    2.064746
 H    6.401197   -4.993276   -0.406309
 H    6.933445   -5.044202    1.367252
 H    3.464779   -0.356724   -1.356229
 H    6.333804    0.653324    1.111784
 H    7.800836    0.958167   -0.938530
 H    6.354189    1.599190   -1.866961
 H    6.074166    3.462444   -0.246171
 H    7.507934    2.878719    0.736096
 H   -1.216931    1.291802    1.632227
 H    1.709297    1.732113    1.584412
 H   -0.857150   -0.261561    3.571284
 H   -0.306389    1.397337    3.914081
 H    0.870552    0.111567    3.544886
 H    2.159426    3.731075    0.229780
 H    1.982628    4.287693    1.880947
 H    0.217380    5.950090    1.125807
 H    1.770241    6.214507    0.301987
 H    0.431988    5.403784   -0.536177
