94 
3oz1_ligand_xtb.xyz
 C   -5.236724   -0.017546   -0.500995
 N   -7.349721    0.388665   -1.529437
 O   -5.932471   -0.838844    0.084960
 C   -5.938946    0.846967   -1.583841
 C   -5.812572    2.350402   -1.323505
 C   -6.289398    2.762796    0.066096
 C   -7.919131   -0.153644   -2.770918
 O    1.042404   -0.530789    1.263406
 O   -1.868904    1.472720    0.333892
 C    5.945048   -2.211126   -0.275923
 C    5.207379    4.807984   -0.526672
 C    1.587791   -0.487572   -3.411593
 C    5.035438   -1.971741    0.742072
 C    5.544627   -2.888710   -1.415180
 C    5.835327    3.678206   -0.030822
 C    3.842668    4.792408   -0.762490
 C    2.901708   -0.630402   -2.988278
 C    0.707509    0.276126   -2.659684
 C    3.728057   -2.407437    0.620842
 C    4.235626   -3.322444   -1.540276
 C    5.100557    2.535581    0.234640
 C    3.107038    3.650035   -0.502691
 C    3.313765   -0.051100   -1.801721
 C    1.122483    0.864576   -1.474533
 C   -0.480783   -2.857022   -0.652824
 C   -1.377761   -1.634054   -0.454852
 C   -2.432492   -2.639766    1.702760
 C   -1.325546   -2.136097    2.624951
 C   -0.430788   -0.425548    4.235299
 C    0.024852    1.006289    3.957847
 C    1.901891   -3.574211   -0.633015
 N    0.942326   -2.438317   -0.713999
 N   -3.944770    0.168004   -0.306233
 N    1.830522    1.573539    1.190933
 C    0.963379    0.655028    1.592408
 C   -2.087077    0.546762    1.108979
 C    3.320893   -3.083943   -0.524154
 C    3.732595    2.516881    0.003711
 C    2.423910    0.681507   -1.023222
 C   -2.636693   -1.830334    0.416456
 C   -1.524826   -0.729133    3.194464
 C   -0.199368    1.163445    2.454213
 C   -3.213906   -0.441557    0.787550
 C    2.927386    1.268637    0.279530
 N   -1.357526    0.322327    2.196586
 H   -7.945648    1.140379   -1.169869
 H   -7.273009   -0.372316   -0.767983
 H   -5.518699    0.598925   -2.562747
 H   -6.377530    2.890985   -2.085952
 H   -4.766889    2.636606   -1.441552
 H   -7.357108    2.606458    0.207393
 H   -5.757092    2.216965    0.841318
 H   -6.099414    3.821912    0.212436
 H   -8.940236   -0.485742   -2.594541
 H   -7.332053   -1.005692   -3.106981
 H   -7.928637    0.606516   -3.550608
 H    6.966774   -1.879758   -0.176407
 H    5.780239    5.698340   -0.732003
 H    1.264654   -0.933029   -4.340125
 H    5.351271   -1.460624    1.639050
 H    6.253064   -3.085709   -2.204055
 H    6.898276    3.685966    0.152494
 H    3.350759    5.669426   -1.153662
 H    3.607270   -1.183755   -3.587133
 H   -0.302219    0.435862   -3.007493
 H    3.026988   -2.232460    1.424224
 H    3.930909   -3.863625   -2.423552
 H    5.592818    1.656351    0.624573
 H    2.045017    3.636921   -0.705380
 H    4.337950   -0.156228   -1.480859
 H    0.419553    1.463261   -0.913954
 H   -0.579049   -3.543382    0.187616
 H   -0.731244   -3.400397   -1.565470
 H   -1.690902   -1.240612   -1.422660
 H   -0.760202   -0.871637    0.014354
 H   -2.232905   -3.681659    1.448641
 H   -3.378620   -2.641012    2.248019
 H   -1.266440   -2.817268    3.475266
 H   -0.361787   -2.149517    2.117512
 H   -0.797203   -0.545197    5.251408
 H    0.404718   -1.110600    4.091711
 H    1.061003    1.173051    4.243260
 H   -0.601295    1.721569    4.490534
 H    1.645328   -4.161350    0.252815
 H    1.780056   -4.204425   -1.516094
 H    1.134798   -1.768517    0.074722
 H    1.121767   -1.897273   -1.575910
 H   -3.421617    0.943272   -0.718918
 H    1.728747    2.538493    1.469414
 H   -3.400658   -2.351468   -0.169419
 H   -2.524732   -0.639030    3.634204
 H   -0.430558    2.192892    2.165943
 H   -3.894187   -0.555440    1.637810
 H    3.570429    0.517893    0.757830
