94 
3oz1_ligand_dft.xyz
 C   -5.195539   -0.080445   -0.478243
 N   -7.337785    0.269291   -1.509568
 O   -5.828837   -0.954429    0.113333
 C   -5.897030    0.683964   -1.625304
 C   -5.739690    2.206920   -1.615684
 C   -6.124950    2.884468   -0.299642
 C   -8.039625   -0.022335   -2.791324
 O    1.139862   -0.499070    1.539300
 O   -1.849524    1.564024    0.414840
 C    5.991209   -2.095543   -0.767162
 C    5.551493    4.469336   -0.400787
 C    1.163419   -0.500147   -3.539457
 C    5.274519   -1.809954    0.394182
 C    5.411686   -2.866314   -1.772000
 C    5.784281    3.488963    0.560483
 C    4.427749    4.388550   -1.218935
 C    2.502965   -0.687826   -3.192311
 C    0.350411    0.281702   -2.721924
 C    3.978035   -2.289676    0.547289
 C    4.112191   -3.342107   -1.621252
 C    4.892441    2.431545    0.701587
 C    3.536748    3.328276   -1.079805
 C    3.012551   -0.111740   -2.032833
 C    0.860612    0.852331   -1.555980
 C   -0.445445   -2.850228   -0.341219
 C   -1.357253   -1.624489   -0.268984
 C   -2.471808   -2.531847    1.915772
 C   -1.390838   -2.022432    2.866584
 C   -0.408344   -0.261588    4.377923
 C    0.086168    1.146908    4.040343
 C    1.974514   -3.536701   -0.310874
 N    0.981268   -2.422907   -0.521916
 N   -3.925279    0.232491   -0.223319
 N    1.746706    1.615438    1.033922
 C    0.975611    0.725828    1.662566
 C   -2.088512    0.658740    1.219566
 C    3.387529   -3.049670   -0.466095
 C    3.765533    2.344068   -0.117048
 C    2.193096    0.650071   -1.196910
 C   -2.632076   -1.756433    0.598692
 C   -1.529985   -0.582144    3.365787
 C   -0.161575    1.278932    2.531787
 C   -3.207236   -0.342809    0.902075
 C    2.790241    1.202041    0.092474
 N   -1.346246    0.451608    2.318514
 H   -7.851261    0.986167   -0.988938
 H   -7.299450   -0.563880   -0.879589
 H   -5.536147    0.274704   -2.574777
 H   -6.321605    2.620315   -2.448065
 H   -4.696046    2.433533   -1.858043
 H   -7.181438    2.748724   -0.037135
 H   -5.519002    2.519679    0.535042
 H   -5.965959    3.961826   -0.381512
 H   -9.079246   -0.268423   -2.574251
 H   -7.550065   -0.870785   -3.269463
 H   -7.991258    0.856185   -3.435484
 H    7.005794   -1.728292   -0.882524
 H    6.249428    5.292335   -0.515909
 H    0.768348   -0.939035   -4.450505
 H    5.734332   -1.228508    1.187152
 H    5.973994   -3.104457   -2.668961
 H    6.661732    3.546435    1.196559
 H    4.248842    5.148006   -1.973303
 H    3.153998   -1.282744   -3.825030
 H   -0.686960    0.457773   -2.991784
 H    3.422774   -2.070017    1.456344
 H    3.665821   -3.948834   -2.405257
 H    5.073168    1.667004    1.453724
 H    2.672976    3.258268   -1.736020
 H    4.053942   -0.269610   -1.766574
 H    0.203245    1.440062   -0.922031
 H   -0.460642   -3.422637    0.587026
 H   -0.693506   -3.531153   -1.158719
 H   -1.635583   -1.309733   -1.279583
 H   -0.743356   -0.819768    0.135091
 H   -2.279355   -3.587832    1.695698
 H   -3.444263   -2.524053    2.423697
 H   -1.387282   -2.664326    3.755204
 H   -0.397673   -2.102932    2.413287
 H   -0.764185   -0.342323    5.406793
 H    0.403030   -0.983542    4.248870
 H    1.133250    1.304154    4.308715
 H   -0.509037    1.906856    4.554211
 H    1.786326   -3.916428    0.697026
 H    1.730605   -4.323003   -1.029230
 H    1.188913   -1.656526    0.154832
 H    1.122462   -2.009079   -1.453985
 H   -3.455470    1.037715   -0.632283
 H    1.560935    2.604854    1.127449
 H   -3.407419   -2.276192    0.025486
 H   -2.518294   -0.432637    3.818732
 H   -0.381214    2.307608    2.238087
 H   -3.904958   -0.427783    1.742751
 H    3.325521    0.377399    0.573947
