16 
3p1d_ligand_xtb.xyz
 C   -1.927890   -0.858211   -0.023605
 O   -0.923635    1.817289   -0.051420
 C    1.770749   -0.534064   -0.196527
 C    1.339379    0.894528    0.131189
 C    0.526649   -1.370800    0.123316
 C   -0.177858    0.865703    0.007494
 N   -0.558373   -0.429622   -0.011901
 H   -2.175957   -1.393942    0.897050
 H   -2.549927    0.032047   -0.102602
 H   -2.118276   -1.513257   -0.877373
 H    2.637822   -0.855503    0.376877
 H    2.009606   -0.616252   -1.257165
 H    1.768798    1.643445   -0.530811
 H    1.585958    1.169656    1.158591
 H    0.559649   -1.771397    1.146191
 H    0.393842   -2.208690   -0.567292
