40 
3p2h_ligand_xtb.xyz
 C   -4.212563    1.840022   -0.109784
 O   -4.410516    3.037118   -0.171677
 C   -2.874703    1.272527   -0.083430
 C   -2.622549   -0.050430   -0.022865
 C   -3.715986   -1.056874    0.119748
 C   -4.973063   -0.409497    0.692608
 C   -5.343802    0.830937   -0.107537
 N   -1.306658   -0.478018   -0.087028
 C   -0.806461   -1.753335   -0.129410
 O   -1.496108   -2.747247   -0.141135
 C    0.709718   -1.854737   -0.169340
 C    1.527908   -0.570839   -0.075810
 C    3.026012   -0.879616   -0.067573
 C    3.867644    0.392230    0.005805
 C    5.363160    0.087915    0.037168
 C    6.205804    1.359625    0.097394
 C    7.696908    1.049636    0.136837
 H   -2.063906    1.986024   -0.151083
 H   -3.382677   -1.877934    0.754488
 H   -3.924576   -1.487454   -0.865057
 H   -4.791860   -0.125838    1.731979
 H   -5.794294   -1.127452    0.677956
 H   -5.537609    0.559004   -1.149765
 H   -6.243083    1.308211    0.283965
 H   -0.633558    0.274798   -0.140895
 H    0.956340   -2.382606   -1.094934
 H    0.987614   -2.527146    0.647001
 H    1.282356   -0.032029    0.843523
 H    1.317468    0.077698   -0.931132
 H    3.286540   -1.433351   -0.972156
 H    3.258997   -1.516327    0.788574
 H    3.596345    0.954856    0.902511
 H    3.646909    1.023273   -0.858694
 H    5.634679   -0.482227   -0.854321
 H    5.586635   -0.533916    0.907212
 H    5.930544    1.932867    0.985653
 H    5.986894    1.978419   -0.775872
 H    7.939659    0.453115    1.013569
 H    7.993964    0.491888   -0.748673
 H    8.278056    1.967898    0.174984
