58 
3p76_ligand_xtb.xyz
 N    4.689195   -0.194831   -0.337026
 C    5.747872    0.774112   -0.150982
 C    5.150554    2.087966    0.369761
 O    4.947113    3.078186   -0.328166
 N    4.862221    2.056060    1.668389
 O    4.195012    3.148365    2.228689
 C    4.121094   -0.843523    0.717739
 O    4.486877   -0.615914    1.869740
 N    3.186723   -1.788400    0.441577
 C    2.408443   -2.339739    1.532836
 C    0.975395   -1.810950    1.475908
 C    0.342516   -2.133836    0.115423
 C    1.229621   -1.569278   -1.002213
 C    2.647704   -2.126130   -0.855560
 C   -1.070981   -1.618479    0.033414
 C   -2.131576   -2.505827   -0.108267
 C   -3.435957   -2.057436   -0.164789
 C   -3.709360   -0.692838   -0.079185
 C   -2.649952    0.204411    0.057851
 C   -1.351209   -0.258137    0.113281
 C   -5.042658   -0.226937   -0.121610
 C   -6.183730    0.167102   -0.148880
 C   -7.521247    0.624419   -0.170670
 C   -8.206546    0.837411    1.026051
 C   -9.515171    1.279154    1.002873
 C  -10.151986    1.513401   -0.205523
 C   -9.474246    1.305336   -1.396279
 C   -8.165548    0.862802   -1.384948
 C    6.425585    1.010652   -1.517239
 C    7.144611   -0.240208   -2.005991
 O    5.448505    1.373785   -2.464182
 H    4.253041   -0.143218   -1.245216
 H    6.459162    0.383784    0.583277
 H    4.778221    1.175881    2.185627
 H    4.165593    3.800827    1.500967
 H    2.412164   -3.432141    1.449489
 H    2.892725   -2.052665    2.466702
 H    0.385920   -2.261154    2.275874
 H    0.987554   -0.731020    1.631902
 H    0.317124   -3.224666    0.004549
 H    0.822304   -1.843510   -1.976782
 H    1.260081   -0.480154   -0.940620
 H    2.613371   -3.221033   -0.922916
 H    3.294487   -1.769963   -1.656638
 H   -1.933236   -3.566751   -0.172514
 H   -4.251644   -2.757484   -0.271870
 H   -2.856559    1.262710    0.123026
 H   -0.547318    0.454706    0.224438
 H   -7.703936    0.652581    1.964437
 H  -10.042508    1.441918    1.931690
 H  -11.175500    1.857847   -0.219136
 H   -9.969811    1.489126   -2.338583
 H   -7.631756    0.698399   -2.309843
 H    7.154340    1.826549   -1.395196
 H    7.966994   -0.482835   -1.339812
 H    6.456193   -1.079782   -2.044232
 H    7.531325   -0.061830   -3.005011
 H    5.075263    2.218001   -2.160865
