58 
3p7a_ligand_xtb.xyz
 C    1.751784    1.020871    0.080991
 N   -1.723893   -1.381441    0.081681
 O    1.809261    2.228379    0.059908
 S   -3.286068    0.958209   -0.040856
 C   -1.804995    0.013116    0.030730
 N    2.833957    0.172661    0.112608
 O   -5.705339   -3.117823    0.011452
 S   -4.270430   -3.122919    0.058527
 C    4.194036    0.495304    0.130098
 O   -3.605934   -4.397465    0.123395
 C    5.145566   -0.558145   -0.031050
 C    6.528490   -0.228747    0.023106
 C    6.925818    1.109771    0.216489
 C    5.988750    2.093674    0.350570
 C    4.624295    1.789483    0.311777
 N    0.567942    0.315385    0.072345
 C   -0.717442    0.844260    0.026248
 C   -2.392245    2.447323   -0.073889
 C   -1.055987    2.220691   -0.032912
 C   -3.140471    3.747945   -0.143846
 C   -2.163634    4.925436   -0.152860
 C   -4.064618    3.860312    1.075561
 C   -3.980962    3.771263   -1.427314
 C   -2.176793   -2.011046    1.309395
 C   -3.690920   -2.103501    1.446339
 C   -3.599888   -2.199220   -1.355252
 C   -2.097623   -2.094299   -1.127134
 C    4.801620   -1.910177   -0.249645
 C    5.757894   -2.877578   -0.393877
 C    7.117935   -2.549143   -0.326222
 C    7.489611   -1.251144   -0.124126
 H    2.635194   -0.815721    0.090176
 H    7.980765    1.337999    0.252556
 H    6.288636    3.120785    0.494472
 H    3.899537    2.577447    0.422164
 H    0.574066   -0.694959    0.107836
 H   -0.302363    2.983302   -0.042518
 H   -1.558120    4.930661    0.749678
 H   -1.504600    4.873217   -1.015508
 H   -2.718756    5.859359   -0.200133
 H   -4.779064    3.039821    1.090836
 H   -3.483514    3.830990    1.994876
 H   -4.615313    4.797281    1.043315
 H   -3.340538    3.670480   -2.301058
 H   -4.699800    2.954492   -1.428366
 H   -4.524434    4.709984   -1.502436
 H   -1.751721   -1.450538    2.147656
 H   -1.776356   -3.029676    1.323913
 H   -3.983303   -2.596208    2.368679
 H   -4.186123   -1.140522    1.360393
 H   -4.097395   -1.233642   -1.367481
 H   -3.832995   -2.754399   -2.258842
 H   -1.699346   -3.110670   -1.046335
 H   -1.618294   -1.590918   -1.972421
 H    3.765490   -2.213928   -0.320144
 H    5.465659   -3.903521   -0.563511
 H    7.860744   -3.324631   -0.438870
 H    8.534633   -0.980790   -0.075206
