70 
3p7c_ligand_dft.xyz
Cl    4.363105   -3.141840   -0.781610
 N   -7.181150   -2.809192    0.584675
 S    1.182048    3.366330    0.293675
Cl    7.306366   -3.965306    0.038188
 C    0.786119    1.803305   -0.331955
 C   -0.523472    1.742394   -0.783211
 C   -1.175159    3.021201   -0.679242
 C    0.215918    6.353475   -0.665348
 C   -2.180819    5.736453   -0.296696
 C   -1.075703    0.500978   -1.322184
 C   -0.406190    3.989478   -0.122866
 O   -0.359116   -0.400913   -1.770310
 N    1.673801    0.757128   -0.400262
 C    2.957323    0.787984    0.125564
 C   -0.737370    5.447510    0.137242
 O    3.377403    1.753900    0.736245
 N    3.647075   -0.372213   -0.125292
 C    4.955266   -0.691761    0.264840
 C    5.810796    0.218423    0.890681
 C    7.560563   -1.451547    0.982758
 C    6.717214   -2.363537    0.358758
 C   -0.595913    5.755402    1.640025
 C    7.096321   -0.169992    1.242080
 C    5.420965   -1.993044    0.000724
 C   -3.264005    0.719596   -0.195957
 C   -4.048561   -2.332624   -0.353353
 N   -2.463348    0.344529   -1.347884
 C   -3.292533   -0.337966    0.917274
 N   -4.209068   -1.467580    0.683801
 C   -2.903080   -2.137788   -1.311950
 O   -4.847791   -3.268866   -0.524876
 C   -2.948136   -0.806146   -2.089268
 C   -5.167732   -1.824736    1.729461
 C   -6.641383   -1.634425    1.351602
 C   -7.610040   -3.919361    1.476807
 C   -8.257161   -2.421099   -0.363848
 H   -6.336946   -3.144796    0.037032
 H   -2.169380    3.206200   -1.068098
 H    0.144636    6.142664   -1.737296
 H   -0.039430    7.406320   -0.502721
 H    1.258373    6.212076   -0.360994
 H   -2.421935    6.785732   -0.099343
 H   -2.320738    5.557849   -1.368359
 H   -2.896496    5.118315    0.257591
 H    1.335721   -0.003477   -0.987716
 H    3.162667   -1.105357   -0.623611
 H    5.455656    1.217681    1.096269
 H    8.564815   -1.753904    1.255128
 H    0.429493    5.597393    1.991100
 H   -0.856581    6.801223    1.835568
 H   -1.259381    5.118129    2.234657
 H    7.750080    0.547041    1.727176
 H   -4.288378    0.937048   -0.523468
 H   -2.857639    1.630616    0.242009
 H   -3.625066    0.151682    1.834573
 H   -2.275980   -0.706056    1.102154
 H   -2.961363   -2.972025   -2.012922
 H   -1.941525   -2.205690   -0.792149
 H   -2.324413   -0.916444   -2.975441
 H   -3.971351   -0.591927   -2.420190
 H   -4.967440   -1.191717    2.594672
 H   -4.986099   -2.857851    2.048359
 H   -7.262539   -1.509041    2.242733
 H   -6.751072   -0.746784    0.724778
 H   -6.796599   -4.174792    2.156086
 H   -8.488450   -3.605960    2.045052
 H   -7.850575   -4.788850    0.864317
 H   -9.080107   -1.963047    0.188969
 H   -7.850848   -1.714164   -1.088181
 H   -8.609417   -3.312597   -0.883737
