16 
3p7i_ligand_dft.xyz
 N   -3.111212   -0.000380    0.164370
 O    0.953319    1.284985   -0.853052
 O    2.104909   -0.000486    1.118266
 O    0.955655   -1.282931   -0.856082
 C   -1.696376    0.000090   -0.389966
 C   -0.683160   -0.001290    0.740496
 P    1.033097    0.000065    0.113922
 H   -3.810996    0.000438   -0.585624
 H   -3.282338   -0.827163    0.746688
 H   -3.282172    0.825317    0.748294
 H    1.801196    1.748488   -0.930277
 H    1.803089   -1.747947   -0.929078
 H   -1.609659    0.891028   -1.014390
 H   -1.609838   -0.889455   -1.016433
 H   -0.780341   -0.891611    1.371344
 H   -0.780757    0.887258    1.373825
