41 
3p8e_ligand_xtb.xyz
 C    3.400671    1.128805   -0.404224
 N    4.879188   -0.532100    0.707060
 C    3.631279   -0.382268   -0.093864
 C    2.410585   -1.003993    0.606989
 C   -0.074292   -1.497151    0.397874
 N   -1.265039   -1.412281   -0.520657
 C    1.207207   -1.119325   -0.349667
 C   -2.577180   -1.702859    0.140222
 O    2.320873    1.564237   -0.665180
 O    4.533894    1.788966   -0.349118
 C   -3.087584   -0.454189    0.865502
 N   -3.604458   -2.106407   -0.870916
 C   -3.873049    1.940768    0.737625
 C   -3.959314    3.198717   -0.116686
 C   -3.188294    0.792776   -0.023573
 H    5.591644    0.118627    0.325739
 H    5.259834   -1.488648    0.676928
 H    4.733790   -0.273279    1.694515
 H    3.792498   -0.870994   -1.063004
 H    2.673955   -1.994946    0.980873
 H    2.131932   -0.377656    1.456735
 H   -0.234029   -0.807688    1.227880
 H   -0.008435   -2.513520    0.791372
 H   -1.305969   -0.436138   -0.880961
 H   -1.073901   -2.037378   -1.316283
 H    1.076345   -0.147898   -0.829147
 H    1.433446   -1.864017   -1.114673
 H   -2.431741   -2.543148    0.831972
 H    4.457799    2.732458   -0.587785
 H   -2.448015   -0.231784    1.720261
 H   -4.070759   -0.668019    1.289838
 H   -3.338349   -2.877184   -1.505107
 H   -4.454976   -2.428761   -0.372400
 H   -3.904564   -1.281679   -1.429853
 H   -3.312904    2.156376    1.647563
 H   -4.877323    1.632682    1.028778
 H   -4.449701    3.987249    0.444334
 H   -2.970799    3.552999   -0.398216
 H   -4.538837    3.023101   -1.019397
 H   -3.777721    0.607780   -0.927837
 H   -2.199361    1.153674   -0.327342
