41 
3p8h_ligand_xtb.xyz
 C    3.346676   -0.493700   -0.009415
 C    4.353716    0.238415    0.609188
 N    4.217456    1.521382    0.871945
 C    3.099486    2.139428    0.548786
 C    2.024104    1.491564   -0.059552
 C    2.164990    0.141229   -0.358187
 C    0.802395    2.253088   -0.463716
Br    3.555669   -2.350192   -0.362200
 O    0.823054    3.084429   -1.341520
 N   -0.344414    1.955745    0.216656
 C   -0.502214    0.982174    1.260276
 C   -1.472238   -0.121186    0.804892
 C   -1.577127    2.609837   -0.146670
 C   -2.590067    1.576966   -0.657931
 C   -2.813944    0.499335    0.405903
 N   -3.745834   -0.557987   -0.099762
 C   -4.032230   -1.653095    0.871665
 C   -5.363342   -2.279353    0.428338
 C   -5.871768   -1.376809   -0.704778
 C   -5.092911   -0.083645   -0.512660
 H    5.291321   -0.217401    0.894388
 H    3.051783    3.192737    0.784322
 H    1.383859   -0.405409   -0.866274
 H   -0.907236    1.473943    2.153467
 H    0.460837    0.544521    1.520728
 H   -1.588410   -0.832403    1.621745
 H   -1.037640   -0.639405   -0.052892
 H   -1.348890    3.335870   -0.929219
 H   -1.984926    3.137467    0.722221
 H   -2.195334    1.124880   -1.570472
 H   -3.515325    2.100008   -0.894941
 H   -3.288996    0.946607    1.286049
 H   -3.310315   -0.980634   -0.926432
 H   -4.122936   -1.207641    1.863021
 H   -3.218067   -2.374990    0.883560
 H   -6.066300   -2.297664    1.258155
 H   -5.232212   -3.303481    0.087160
 H   -6.944370   -1.212379   -0.651636
 H   -5.649573   -1.812428   -1.679175
 H   -5.043837    0.519944   -1.416126
 H   -5.509878    0.509691    0.302811
