106 
3p8n_ligand_dft.xyz
 C    1.002627    4.287293   -0.980647
 O   -0.067876    3.709397   -0.933310
 O    1.161472    5.618430   -0.883191
 C   -0.046411    6.401286   -0.778588
 C   -0.688907    6.577248   -2.152343
 C    0.205096    7.611606   -2.867018
 C    0.925467    8.401024   -1.738332
 C    0.396944    7.812288   -0.414317
 N    2.214599    3.686070   -1.161562
 C    2.347914    2.243393   -1.061808
 C    3.332585    1.670544   -2.116715
 C    4.702298    2.363525   -2.079438
 C    3.510234    0.170048   -1.857544
 C    2.699871    1.878557   -3.500345
 C    2.712527    1.932132    0.396487
 O    3.798763    2.294412    0.864282
 C    2.716943   -0.027106    3.002231
 O    2.201785   -0.946713    3.614391
 C    1.936740    1.251504    2.629699
 C    0.494981    1.182596    3.117309
 C   -0.176994    0.341958    2.037256
 C    0.484248    0.811471    0.726733
 N    1.774465    1.349295    1.170402
 O   -1.578626    0.574862    2.062119
 C   -2.368025   -0.217657    1.312299
 C   -1.919684   -1.237364    0.513093
 C   -2.869491   -1.964687   -0.239737
 N   -4.165839   -1.756600   -0.220112
 C   -4.627258   -0.764007    0.584057
 C   -3.768979    0.049929    1.375043
 C   -4.313065    1.068818    2.179985
 C   -5.666801    1.285297    2.215201
 C   -6.543051    0.488505    1.439225
 C   -6.022695   -0.515609    0.639627
Br   -7.188939   -1.570233   -0.394039
 O   -7.881984    0.654569    1.432600
 C   -8.448552    1.664492    2.238425
 C   -2.363344   -3.021656   -1.136926
 C   -3.115961   -3.808553   -1.951432
 S   -2.092141   -4.873863   -2.850529
 C   -0.712854   -4.164321   -2.026143
 N   -1.002855   -3.236959   -1.183889
 N    0.577374   -4.608416   -2.307289
 C    1.744477   -4.035067   -1.846099
 O    1.743990   -3.003198   -1.196972
 C    3.009775   -4.808922   -2.183376
 C    4.185834   -3.849826   -2.371184
 C    3.286668   -5.815309   -1.052427
 N    4.001681   -0.048064    2.548174
 C    4.661737   -1.304165    2.386285
 C    6.188924   -1.265941    2.529546
 C    5.341588   -1.922840    3.577583
 C    7.088083   -2.040816    1.645295
 C    8.221020   -1.548572    1.148732
 C    4.049056   -2.244649    1.386635
 O    4.413347   -3.393336    1.220040
 O    3.076375   -1.669278    0.692164
 H   -0.704575    5.927725   -0.047258
 H   -1.699538    6.975215   -2.002793
 H   -0.788610    5.628298   -2.683666
 H   -0.383564    8.265023   -3.516967
 H    0.937071    7.105010   -3.502547
 H    2.007313    8.255816   -1.806684
 H    0.741490    9.477147   -1.802131
 H    1.136017    7.817253    0.391151
 H   -0.483172    8.365216   -0.066587
 H    3.028928    4.243091   -0.944533
 H    1.360991    1.841634   -1.292187
 H    4.619698    3.425584   -2.338597
 H    5.365441    1.902835   -2.820215
 H    5.166267    2.280288   -1.094507
 H    4.129596   -0.274715   -2.644673
 H    4.001104   -0.019016   -0.899190
 H    2.549794   -0.359241   -1.852096
 H    1.749088    1.339936   -3.588516
 H    3.372433    1.507066   -4.281535
 H    2.509359    2.939565   -3.690928
 H    2.480512    2.132680    2.981142
 H    0.410960    0.728962    4.104464
 H    0.050822    2.182934    3.124936
 H    0.024060   -0.716729    2.225308
 H   -0.126791    1.593797    0.264493
 H    0.638229   -0.004162    0.016268
 H   -0.878608   -1.509340    0.418123
 H   -3.646830    1.682105    2.775619
 H   -6.063026    2.073568    2.843800
 H   -8.092841    2.660813    1.947979
 H   -9.523886    1.603841    2.069672
 H   -8.240657    1.496689    3.302417
 H   -4.190568   -3.802747   -2.062150
 H    0.664739   -5.446188   -2.863153
 H    2.842703   -5.359818   -3.119301
 H    4.424516   -3.351383   -1.428287
 H    5.070229   -4.410134   -2.689227
 H    3.968929   -3.087377   -3.125541
 H    3.470982   -5.280835   -0.115587
 H    2.451398   -6.509328   -0.909693
 H    4.179374   -6.400872   -1.292882
 H    4.271842    0.719218    1.934734
 H    6.545253   -0.267327    2.773493
 H    5.199508   -1.415072    4.524375
 H    5.336359   -3.007416    3.611889
 H    6.783340   -3.058191    1.416325
 H    8.867111   -2.148240    0.515101
 H    8.547344   -0.532421    1.359472
 H    2.711679   -2.299926    0.025448
