39 
3p9j_ligand_xtb.xyz
 C    2.343632    0.458499    0.057082
 N    1.051703    0.904824   -0.072842
 C    2.499085   -1.009092    0.110282
 C    3.787453   -1.526767    0.231651
 C    3.988668   -2.890790    0.277569
 C    2.904186   -3.757165    0.199022
 C    1.623073   -3.258563    0.080190
 C    1.409111   -1.882416    0.040050
 C    0.063503   -1.342131   -0.090477
 N   -0.031016    0.025361   -0.048399
 C    0.709072    2.274437   -0.057600
 C    1.473853    3.199182   -0.761525
 C    1.114967    4.534223   -0.750071
 C   -0.007287    4.957029   -0.057358
 C   -0.769978    4.035528    0.639463
 C   -0.415723    2.699359    0.645826
 N   -0.940340   -2.117403   -0.234247
 C   -2.239690   -1.686320   -0.260544
 C   -2.890674   -0.796791    0.638576
 C   -4.209277   -0.795393    0.252804
 N   -4.285920   -1.621076   -0.816195
 N   -3.109747   -2.173507   -1.133466
 C   -5.394185   -0.078625    0.790960
 O    3.282276    1.230435    0.127754
 H    4.610900   -0.830887    0.286776
 H    4.989379   -3.284932    0.372272
 H    3.065546   -4.824357    0.231898
 H    0.762879   -3.905070    0.013949
 H   -0.899421    0.436473   -0.370907
 H    2.346695    2.872676   -1.300980
 H    1.714419    5.248027   -1.294436
 H   -0.285081    6.000016   -0.057042
 H   -1.642235    4.356575    1.189118
 H   -1.000390    1.993147    1.216661
 H   -2.455347   -0.292461    1.477833
 H   -5.101121    0.541173    1.633579
 H   -5.840485    0.557446    0.026233
 H   -6.150837   -0.787561    1.126668
 H   -5.104601   -1.856345   -1.353003
