22 
3pb8_ligand_xtb.xyz
 C   -2.983956    0.248565   -0.164308
 O   -2.801010    1.366082   -0.589362
 C   -4.322350   -0.256868    0.334857
 N   -2.001729   -0.687178   -0.108029
 C   -0.633590   -0.406347   -0.467146
 C    0.288166   -0.384983    0.764717
 C    1.688549   -0.060355    0.385867
 C    2.424550    1.088701    0.480772
 N    2.524583   -0.969960   -0.212750
 C    3.701410   -0.334942   -0.440043
 N    3.668339    0.899656   -0.032888
 H   -4.244319   -0.560827    1.376566
 H   -5.057684    0.537124    0.248244
 H   -4.644890   -1.110349   -0.257346
 H   -2.201268   -1.584759    0.304177
 H   -0.631168    0.575208   -0.946134
 H   -0.284392   -1.154857   -1.187465
 H    0.251207   -1.360357    1.261296
 H   -0.074210    0.370955    1.462159
 H    2.136003    2.035364    0.889921
 H    4.545312   -0.810004   -0.898526
 H    2.298462   -1.926404   -0.430620
