42 
3pbb_ligand_xtb.xyz
 C    5.813664   -0.869025   -2.122675
 C    3.418651   -2.448518    2.443052
 S   -1.317534    2.972983    1.502553
 C   -5.613040   -2.277760    0.791820
 C    2.505157    1.340801   -0.722485
 C    3.595565    0.634193   -1.211836
 C   -5.180548   -0.988542    0.682036
 C   -4.834629   -2.076046   -1.169894
 C    2.370970   -0.181171    1.135515
 C   -2.599110    0.415846   -0.702989
 C   -1.937645    1.677732   -1.268719
 C   -4.061372    0.304307   -1.144282
 N   -5.390787   -2.942367   -0.371884
 N   -0.566456    1.828987   -0.833863
 N    0.853833    1.650000    1.043574
 O    5.122161   -1.253885   -0.963210
 O    3.971062   -2.008238    1.227950
 C   -0.199616    2.040746    0.470950
 C    1.883769    0.938607    0.452391
 C    4.068612   -0.487089   -0.556197
 C    3.441064   -0.899846    0.643031
 N   -4.685798   -0.862244   -0.586749
 H    5.166661   -0.889862   -3.006915
 H    6.252252    0.129644   -2.019672
 H    6.611082   -1.600315   -2.245560
 H    3.502491   -1.685625    3.223885
 H    2.367641   -2.734951    2.328810
 H    4.000176   -3.323476    2.729202
 H   -1.700476    3.823248    0.548188
 H   -6.069754   -2.767436    1.627944
 H    2.175173    2.234290   -1.232557
 H    4.067684    0.978714   -2.118191
 H   -5.188316   -0.170295    1.372444
 H   -4.532494   -2.276966   -2.178841
 H    1.876197   -0.462727    2.050204
 H   -2.555187    0.449793    0.388140
 H   -2.050013   -0.469513   -1.033370
 H   -2.511819    2.556057   -0.962037
 H   -1.930949    1.643954   -2.361234
 H   -4.118908    0.240717   -2.234933
 H   -4.612420    1.192093   -0.817559
 H    0.081250    1.195856   -1.292556
