16 
3pcc_ligand_xtb.xyz
 C    2.168089    0.110762    0.003471
 O    2.745453    1.164316    0.034461
 O    2.869985   -1.038047   -0.036860
 C    0.682983    0.008603    0.004107
 C   -0.031617    1.209700   -0.011552
 C   -1.406596    1.220666   -0.014872
 C   -2.110281    0.016150   -0.001413
 C   -1.408516   -1.185910    0.018815
 C   -0.027147   -1.189894    0.021602
 O   -3.460749    0.062217   -0.007663
 H    2.305900   -1.820607   -0.068921
 H    0.528774    2.131719   -0.021792
 H   -1.962475    2.144089   -0.027820
 H   -1.950199   -2.122612    0.032758
 H    0.469963   -2.151549    0.043143
 H   -3.830969   -0.829390    0.002181
