19 
3pcg_ligand_xtb.xyz
 C    2.616241   -0.053146   -0.220002
 O    3.707524    0.421419   -0.333863
 O    2.118324   -0.895004   -1.134220
 C    1.708222    0.220326    0.981580
 C    0.251589    0.161946    0.627296
 C   -0.405888    1.293562    0.152227
 C   -1.730065    1.237508   -0.227057
 C   -2.431430    0.036270   -0.143265
 C   -1.784344   -1.100102    0.325829
 C   -0.454455   -1.034262    0.703938
 O   -3.732547    0.024733   -0.526588
 H    1.207936   -1.158275   -0.919152
 H    1.984167    1.194291    1.386082
 H    1.954327   -0.537947    1.730678
 H    0.130200    2.228038    0.083295
 H   -2.244541    2.111556   -0.591968
 H   -2.321634   -2.036341    0.398760
 H    0.029234   -1.924684    1.082778
 H   -4.105313   -0.858426   -0.416383
