48 
3pd3_ligand_xtb.xyz
 C    3.434106    0.452781   -0.639207
 N    5.779679    0.090317   -0.647566
 O    3.850667    1.606401   -0.585600
 N   -4.958140   -1.839885   -0.855357
 C   -3.708046   -2.144352   -1.130858
 N   -2.603122   -1.564559   -0.680174
 C   -2.870777   -0.552581    0.156243
 C   -4.148240   -0.116555    0.530813
 C   -5.232723   -0.825319   -0.025187
 N   -6.510543   -0.532425    0.231237
 N   -4.032002    0.947507    1.390596
 C   -2.758753    1.138325    1.530549
 N    2.188599    0.064784   -0.780759
 N   -1.991308    0.263343    0.809752
 C    4.513593   -0.654284   -0.487415
 C    4.486100   -1.255595    0.943917
 O    5.829006   -1.619395    1.211937
 C   -0.567435    0.108794    0.671800
 C   -0.206876    0.048641   -0.840629
 O    0.044500   -1.256607   -1.266286
 C    1.040097    0.939663   -0.926962
 C    0.840734    1.897893    0.259584
 O    0.174825    1.136271    1.255300
 C    0.044207    3.148343   -0.139493
 O   -1.094315    2.770609   -0.877519
 C    3.533131   -2.437625    1.045502
 H    5.409533    1.107258   -0.555226
 H    6.418625   -0.195639    0.111938
 H    6.233519   -0.038436   -1.552606
 H   -3.562035   -2.970947   -1.812849
 H   -7.234147   -1.087904   -0.190177
 H   -6.731997    0.216493    0.862582
 H   -2.317589    1.894408    2.147534
 H    1.929577   -0.910969   -0.911694
 H    4.409461   -1.443245   -1.233218
 H    4.177964   -0.469354    1.652464
 H    5.867317   -2.179297    1.994468
 H   -0.284387   -0.841320    1.159974
 H   -1.014706    0.512695   -1.415933
 H   -0.834693   -1.708496   -1.232199
 H    1.102683    1.487293   -1.869367
 H    1.790528    2.222573    0.692762
 H   -0.237236    3.669541    0.783102
 H    0.696316    3.802549   -0.734099
 H   -1.657469    3.541542   -1.007502
 H    3.560727   -2.847390    2.052828
 H    3.821176   -3.220934    0.348173
 H    2.512519   -2.130980    0.840358
