22 
3pd8_ligand_dft.xyz
 C   -2.465352   -0.112898   -0.188573
 N   -2.243162   -1.399711    0.333097
 O   -0.878765   -1.609640    0.578582
 C   -1.162704    0.549579   -0.010052
 N    1.350521    1.272200    0.841911
 O    1.858304   -1.888863   -0.816379
 C   -0.781289    1.966445   -0.269550
 O    3.188311   -0.104982   -0.384172
 C    0.739535    2.075966   -0.299329
 O   -3.506456    0.298721   -0.635935
 C    1.117505   -0.216900    0.748410
 C   -0.322313   -0.403956    0.405808
 C    2.081176   -0.855495   -0.266036
 H   -2.655908   -2.230093   -0.076658
 H    0.975016    1.615680    1.732350
 H    2.365379    1.427594    0.853072
 H   -1.174476    2.303581   -1.233978
 H   -1.210781    2.634022    0.487107
 H    3.813383   -0.547148   -0.986629
 H    1.165326    1.658833   -1.214444
 H    1.093331    3.100745   -0.176507
 H    1.346721   -0.648974    1.729796
