22 
3pd9_ligand_xtb.xyz
 N   -3.199597   -0.069449    0.034910
 O   -2.534384   -1.278634    0.168802
 C   -1.226439   -0.956992    0.098604
 C   -0.151583   -1.997951    0.173735
 N    1.089472   -1.348409   -0.307942
 C    1.347187   -0.027233    0.346682
 C    2.820547    0.321524    0.052097
 O    3.539867   -0.506381   -0.437350
 O    3.128648    1.538220    0.404073
 C    0.328217    0.996242   -0.154167
 C   -1.019878    0.363565   -0.062531
 C   -2.349390    1.007306   -0.094213
 O   -2.664976    2.157102   -0.206340
 H   -4.203265   -0.092736    0.124949
 H   -0.402805   -2.862121   -0.446715
 H   -0.016132   -2.345268    1.202880
 H    1.009152   -1.178916   -1.320282
 H    1.938851   -1.928255   -0.184611
 H    1.238565   -0.154467    1.429708
 H    4.061935    1.764361    0.239962
 H    0.537938    1.299987   -1.183947
 H    0.361430    1.901201    0.454555
