22 
3pd9_ligand_dft.xyz
 N   -3.220739   -0.099056   -0.100651
 O   -2.521027   -1.287113    0.160032
 C   -1.229982   -0.934691    0.100038
 C   -0.184805   -1.995744    0.193903
 N    1.089574   -1.352476   -0.271413
 C    1.357276    0.001262    0.355585
 C    2.817831    0.308435    0.042100
 O    3.551881   -0.532007   -0.420003
 O    3.128184    1.550256    0.354270
 C    0.328243    1.017848   -0.143344
 C   -1.017186    0.375235   -0.076660
 C   -2.347388    1.003511   -0.099877
 O   -2.674614    2.163291   -0.136102
 H   -4.101960   -0.093392    0.400381
 H   -0.398297   -2.850713   -0.452473
 H   -0.033047   -2.352462    1.216379
 H    1.059703   -1.233988   -1.290955
 H    1.914093   -1.944695   -0.102389
 H    1.250418   -0.142186    1.436666
 H    4.071104    1.707951    0.166831
 H    0.564436    1.354238   -1.160520
 H    0.372381    1.905421    0.494485
