36 
3pdq_ligand_xtb.xyz
 O    5.481956   -2.081142    0.835221
 C    4.374314   -1.969900    0.402483
 C    3.793812   -0.645570   -0.004630
 C    4.640569    0.328648   -0.523750
 C    4.090805    1.556249   -0.872072
 N    2.817558    1.846980   -0.711592
 C    2.004959    0.932777   -0.194767
 C    0.606467    1.357498   -0.002162
 C   -0.461731    0.459864   -0.062328
 C   -1.757291    0.936192    0.132831
 C   -2.865107   -0.038528    0.067751
 N   -4.036664    0.317910    0.604783
 C   -5.195736   -0.540237    0.814799
 C   -5.725658   -1.197237   -0.462203
 N   -4.861523   -2.336429   -0.830996
 O   -2.683461   -1.147021   -0.475452
 C   -1.938952    2.301428    0.361907
 C   -0.806800    3.106766    0.390045
 N    0.413733    2.651438    0.221398
 C    2.445825   -0.340882    0.165498
 O    3.565110   -3.033024    0.251295
 H    5.691104    0.118346   -0.642587
 H    4.699491    2.344053   -1.293212
 H   -0.311922   -0.587690   -0.269613
 H   -4.075027    1.223681    1.048477
 H   -5.980217    0.083997    1.241407
 H   -4.948477   -1.319242    1.546715
 H   -5.717894   -0.474472   -1.280272
 H   -6.753675   -1.525730   -0.297954
 H   -5.008641   -2.643654   -1.792083
 H   -3.768360   -1.901533   -0.688369
 H   -4.995044   -3.133180   -0.207305
 H   -2.913277    2.751057    0.476959
 H   -0.889622    4.171600    0.558124
 H    1.768252   -1.046436    0.626605
 H    2.729897   -2.813004   -0.180984
