36 
3pdq_ligand_dft.xyz
 O    5.555571   -2.068422    0.750573
 C    4.400066   -1.954313    0.450717
 C    3.806945   -0.651973   -0.017946
 C    4.635529    0.269377   -0.648101
 C    4.085017    1.480837   -1.057440
 N    2.813081    1.820101   -0.856536
 C    2.026002    0.943400   -0.228997
 C    0.618983    1.378630    0.013062
 C   -0.441232    0.472835   -0.073191
 C   -1.734195    0.925440    0.175966
 C   -2.849368   -0.055709    0.080510
 N   -3.995871    0.229303    0.743046
 C   -5.080942   -0.727145    0.907191
 C   -5.806386   -1.098722   -0.388754
 N   -5.039674   -2.147261   -1.143307
 O   -2.727532   -1.096172   -0.585887
 C   -1.929204    2.273472    0.474148
 C   -0.807809    3.098158    0.518162
 N    0.431663    2.670375    0.303681
 C    2.473755   -0.306844    0.200551
 O    3.552853   -3.002186    0.527014
 H    5.683244    0.040231   -0.806820
 H    4.698246    2.217840   -1.568974
 H   -0.276637   -0.562715   -0.348422
 H   -3.985205    1.015048    1.377374
 H   -5.813233   -0.268412    1.573629
 H   -4.716293   -1.634234    1.408285
 H   -5.899944   -0.229015   -1.041172
 H   -6.801409   -1.493422   -0.176538
 H   -5.320357   -2.206382   -2.124703
 H   -4.005194   -1.869903   -1.060809
 H   -5.157228   -3.074813   -0.728940
 H   -2.913229    2.707296    0.624192
 H   -0.916828    4.157334    0.736109
 H    1.808522   -0.961286    0.758168
 H    2.721050   -2.795605    0.081570
