37 
3pe1_ligand_xtb.xyz
 C   -1.289330   -0.264213    0.008282
 C   -2.350078    0.671147    0.001170
 C   -3.666761    0.191925    0.018734
 C   -3.922363   -1.155617    0.032944
 C   -2.872585   -2.087381    0.019522
 C   -1.567453   -1.639533    0.013735
 C   -0.621736    2.426184   -0.011925
 C   -1.989232    2.065093   -0.017283
 N    0.017682    0.097411    0.012561
 C    0.361913    1.351429    0.010858
 C   -1.328935    4.716141   -0.060957
 N   -2.616430    4.382088   -0.066584
 C   -2.929433    3.111789   -0.046803
 C   -0.308381    3.792745   -0.036223
 N    1.681115    1.688548    0.028262
 C    2.814382    0.887597    0.036200
 C    2.767045   -0.503121   -0.003959
 C    3.949530   -1.220670    0.001370
 C    5.184297   -0.594669    0.046934
 C    5.222441    0.789192    0.087373
 C    4.055792    1.526989    0.081408
Cl    3.871890   -2.946324   -0.051221
 C   -3.243355   -3.534175    0.038252
 O   -2.302058   -4.403082   -0.366874
 O   -4.326242   -3.921024    0.382937
 H   -4.493533    0.884130    0.025998
 H   -4.933507   -1.531339    0.053963
 H   -0.715962   -2.305510    0.049277
 H   -1.124166    5.777929   -0.078755
 H   -3.989576    2.903012   -0.056679
 H    0.711410    4.148677   -0.038989
 H    1.882360    2.677798    0.046851
 H    1.813092   -0.998432   -0.036935
 H    6.092414   -1.175044    0.050716
 H    6.174879    1.295322    0.123756
 H    4.103165    2.606543    0.112350
 H   -1.487429   -3.964185   -0.646767
