69 
3peq_ligand_dft.xyz
 C    6.898406    3.527351   -1.001920
 C    5.941614    3.042915    0.085742
 C    4.933239    2.018577   -0.435080
 C    3.978112    1.555320    0.663723
 N    2.979461    0.558603    0.252078
 C    1.907111    0.953310   -0.623138
 C    2.092438    0.941690   -2.006472
 C    1.024114    1.202368   -2.852535
 C   -0.228098    1.459442   -2.310868
 C   -0.423118    1.494682   -0.927405
 C    0.660033    1.270134   -0.056649
 C    0.493163    1.409790    1.436675
 C   -1.801265    1.746726   -0.420049
 C   -2.452872    0.821618    0.404602
 C   -3.758633    1.023927    0.820373
 C   -4.461606    2.169987    0.426978
 S   -6.124043    2.326004    1.024212
 C   -6.700744    3.855691    0.250924
 C   -3.821508    3.099894   -0.392430
 C   -2.510234    2.882515   -0.809318
 S    3.503812   -1.032087    0.100625
 O    4.351604   -1.294037    1.257318
 O    4.047026   -1.315820   -1.224135
 C    1.915988   -1.839069    0.208960
 C    1.351476   -2.191331   -0.988760
 C   -0.012610   -2.528960   -1.077513
 C   -0.787771   -2.478172    0.051912
 O   -2.141668   -2.688685    0.046588
 C   -2.851164   -2.363050   -1.140215
 C   -2.961226   -3.545300   -2.102225
 O   -3.335925   -3.411137   -3.235126
 O   -2.641424   -4.733488   -1.576696
 C   -0.224919   -2.187121    1.331120
 C   -1.032469   -2.162821    2.495350
 C   -0.485982   -1.845279    3.712241
 C    0.889271   -1.549299    3.811402
 C    1.693450   -1.557870    2.699952
 C    1.158754   -1.866013    1.421895
 H    7.467994    2.691109   -1.422341
 H    6.350476    4.003275   -1.823160
 H    7.613205    4.256727   -0.607725
 H    5.403449    3.901338    0.510406
 H    6.516278    2.599767    0.909617
 H    5.462210    1.149464   -0.845508
 H    4.356271    2.458731   -1.258418
 H    3.410794    2.407684    1.055805
 H    4.536448    1.123344    1.499235
 H    3.065991    0.680309   -2.405513
 H    1.162567    1.181852   -3.928898
 H   -1.079977    1.625912   -2.964631
 H    1.457294    1.375576    1.944346
 H   -0.003320    2.356882    1.672165
 H   -0.120953    0.612812    1.864163
 H   -1.934445   -0.078581    0.717884
 H   -4.239566    0.284959    1.456041
 H   -6.124629    4.720977    0.588695
 H   -6.675592    3.788029   -0.839747
 H   -7.737680    3.979665    0.570696
 H   -4.328875    4.001789   -0.716049
 H   -2.027420    3.618506   -1.446645
 H    1.951122   -2.149788   -1.890320
 H   -0.430808   -2.774204   -2.047068
 H   -2.399102   -1.510649   -1.655061
 H   -3.858897   -2.079307   -0.825368
 H   -2.370428   -4.597287   -0.653329
 H   -2.086500   -2.398756    2.405196
 H   -1.109860   -1.826971    4.600284
 H    1.318403   -1.310175    4.779486
 H    2.748407   -1.330461    2.786603
