71 
3phe_ligand_dft.xyz
 C    7.775852   -0.304331   -0.919160
 N    6.545991   -0.756526   -0.206793
 C    6.171478   -2.173485   -0.556596
 C    4.920158   -2.588805    0.202991
 N    3.849382   -1.661728   -0.095310
 C    4.156864   -0.306397    0.299326
 C    5.390589    0.184202   -0.440055
 C    2.510038   -2.096984   -0.010069
 C    2.058613   -3.124515   -0.855282
 F    2.963067   -3.750763   -1.632105
 C    0.735458   -3.471384   -0.917608
 C   -0.213031   -2.761256   -0.171521
 C   -1.648723   -3.117425   -0.352325
 O   -1.977445   -4.062046   -1.046888
 C   -2.563479   -2.235332    0.377416
 C   -2.073942   -1.257653    1.184439
 N   -0.751689   -0.981549    1.370783
 C   -0.375398    0.090441    2.289247
 C    0.489225    1.169605    1.661162
 C    0.378206    1.491907    0.307807
 C    1.336862    2.291660   -0.301690
 C    2.390069    2.790368    0.463320
 C    2.457137    2.566455    1.835008
 C    1.498291    1.754619    2.428227
 S    3.806178    3.498650   -0.360660
 C    3.441552    5.230731   -0.571806
 O    3.888782    2.864318   -1.677049
 O    4.943098    3.366439    0.557492
 C    0.209405   -1.735408    0.684595
 C    1.581853   -1.457008    0.798219
 C   -4.035473   -2.346709    0.203885
 O   -4.581989   -2.825361   -0.756993
 O   -4.689407   -1.806680    1.257575
 C   -6.118080   -1.662905    1.111405
 C   -6.449924   -0.361029    0.431677
 C   -6.582879    0.809113    1.180507
 C   -6.839965    2.028461    0.564361
 C   -6.962826    2.069441   -0.820492
Cl   -7.278734    3.597083   -1.606894
 C   -6.840874    0.916579   -1.588701
 C   -6.583865   -0.295072   -0.956742
 H    7.577134   -0.320489   -1.991400
 H    8.013447    0.711483   -0.601316
 H    8.597521   -0.980390   -0.679243
 H    6.745377   -0.738133    0.798794
 H    7.026689   -2.808860   -0.314869
 H    5.987765   -2.191717   -1.633236
 H    5.135037   -2.636572    1.286965
 H    4.649057   -3.592707   -0.123077
 H    4.304372   -0.195122    1.390343
 H    3.335244    0.351887    0.011889
 H    5.214004    0.211665   -1.517170
 H    5.687116    1.178226   -0.095722
 H    0.388815   -4.258427   -1.579054
 H   -2.762074   -0.621792    1.729351
 H    0.154786   -0.339139    3.147745
 H   -1.301523    0.523325    2.676276
 H   -0.408670    1.045957   -0.292877
 H    1.307423    2.464822   -1.372610
 H    3.286683    2.961171    2.412105
 H    1.578979    1.519880    3.486411
 H    4.298816    5.675508   -1.082192
 H    2.542561    5.330950   -1.182468
 H    3.304000    5.685999    0.410379
 H    1.932190   -0.697470    1.481066
 H   -6.498979   -1.687495    2.133702
 H   -6.503928   -2.519728    0.556803
 H   -6.492634    0.769663    2.263284
 H   -6.951854    2.935589    1.148070
 H   -6.948697    0.966874   -2.666564
 H   -6.475884   -1.198952   -1.547824
