64 
3pj1_ligand_dft.xyz
 N    1.087810    3.228293    0.968699
 C    0.200317    2.283203    0.639359
 N   -1.096973    2.742889    0.587083
 N    0.455735    1.002233    0.367705
 C    1.732093    0.628352    0.457309
 C    0.955975   -1.609771   -0.159761
 N    2.032703   -0.684964    0.166107
 C    3.346000   -1.090171   -0.142423
 O    3.570152   -2.165481   -0.657973
 N    4.335915   -0.181682    0.150479
 C    4.145656    0.997130    0.991752
 C    2.751212    1.513011    0.826283
 C    2.353452    2.816542    1.053452
 C   -2.293561    2.113948    0.252936
 C   -2.397307    0.780025   -0.172409
 C   -3.636434    0.244899   -0.487851
 C   -4.789373    1.015587   -0.393166
 O   -5.974202    0.381972   -0.738618
 C   -4.707140    2.339469    0.020408
 C   -3.465013    2.875197    0.341941
 C   -7.173302    1.030613   -0.426628
 C   -8.323532    0.089013   -0.743754
 N   -8.213879   -1.270247   -0.084776
 C   -7.370858   -2.246592   -0.888167
 C   -8.131727   -2.800068   -2.079793
 C   -7.795880   -1.185101    1.364884
 C   -8.177428   -2.426904    2.152579
 C    5.668233   -0.557239   -0.152609
 C    6.409667   -1.387126    0.694572
Cl    5.672565   -2.004607    2.146313
 C    7.723885   -1.729636    0.404529
 C    8.317716   -1.228099   -0.747779
 C    7.612364   -0.391684   -1.604330
 C    6.297239   -0.063758   -1.299687
Cl    5.412967    0.989622   -2.367667
 H   -1.150376    3.725087    0.817675
 H    0.481811   -1.339858   -1.108935
 H    1.389729   -2.603700   -0.243020
 H    0.207538   -1.584032    0.634397
 H    4.873413    1.753581    0.682155
 H    4.354018    0.744280    2.042099
 H    3.085031    3.575663    1.325304
 H   -1.503989    0.177781   -0.251119
 H   -3.710511   -0.785660   -0.821995
 H   -5.582439    2.976104    0.091951
 H   -3.410518    3.911377    0.664369
 H   -7.326058    1.933110   -1.035424
 H   -7.188666    1.341010    0.627195
 H   -8.391025   -0.087157   -1.817814
 H   -9.260618    0.537494   -0.404139
 H   -9.162086   -1.657336   -0.084375
 H   -7.094843   -3.050875   -0.205878
 H   -6.473141   -1.700353   -1.172604
 H   -9.038859   -3.332640   -1.773466
 H   -8.400982   -2.031321   -2.809299
 H   -7.489889   -3.519606   -2.594302
 H   -8.300355   -0.309603    1.780665
 H   -6.719732   -1.000438    1.363259
 H   -9.256407   -2.612702    2.117938
 H   -7.652346   -3.325891    1.821312
 H   -7.909011   -2.263694    3.199329
 H    8.270730   -2.380518    1.076793
 H    9.344086   -1.491622   -0.980181
 H    8.071165    0.003632   -2.503107
