64 
3pj2_ligand_xtb.xyz
 N    1.370966    2.688732    0.388184
 C    0.437394    1.745407    0.196494
 N    0.663004    0.445221    0.067602
 C    2.622339    2.294867    0.447640
 C    2.998727    0.953664    0.322628
 C    1.933136    0.045803    0.132313
 N    2.182678   -1.283869    0.010893
 C    3.462062   -1.832827    0.058676
 C    4.559584   -0.867409    0.252890
 C    4.329923    0.461994    0.383153
 O    5.760116   -1.480513    0.345252
 C    6.934208   -0.798024    0.132160
 N   -0.828833    2.248817    0.146367
 C   -2.042907    1.630454   -0.058041
 C   -3.196507    2.422086   -0.065889
 C   -4.435166    1.857522   -0.273423
 C   -4.550805    0.487329   -0.480247
 C   -3.419632   -0.310698   -0.467866
 C   -2.175851    0.257987   -0.259013
 O   -5.849855    0.018452   -0.680849
 C   -6.048271   -1.357766   -0.911820
 C   -7.547380   -1.504562   -1.193593
 N   -8.295172   -0.703493   -0.193222
 C   -9.637233   -0.290938   -0.676760
 C  -10.238966    0.811770    0.177101
 C   -8.327076   -1.344328    1.157899
 C   -7.684059   -0.455564    2.209208
 O    3.630374   -3.026799   -0.059401
 C    1.065784   -2.185592   -0.183611
 C    8.005995   -1.114166    0.961456
 C    9.238051   -0.523865    0.757654
 C    9.382127    0.380803   -0.279704
 C    8.331765    0.696366   -1.123144
 C    7.101361    0.101020   -0.916284
 F   10.577141    0.967021   -0.478692
 H    3.361676    3.069254    0.602182
 H    5.137473    1.160790    0.544792
 H   -0.843320    3.253805    0.266120
 H   -3.116629    3.487329    0.088952
 H   -5.322228    2.471323   -0.286348
 H   -3.480280   -1.376274   -0.623196
 H   -1.291879   -0.354268   -0.251864
 H   -5.741458   -1.944909   -0.035326
 H   -5.478559   -1.706380   -1.780310
 H   -7.864636   -2.547003   -1.166839
 H   -7.754977   -1.095729   -2.184210
 H   -7.706977    0.147005   -0.102503
 H  -10.282434   -1.172099   -0.690462
 H   -9.530508    0.072400   -1.700696
 H  -10.448394    0.483397    1.190786
 H   -9.581714    1.677657    0.211454
 H  -11.179248    1.126663   -0.266676
 H   -7.796137   -2.295523    1.107251
 H   -9.363992   -1.558029    1.419271
 H   -6.650783   -0.231664    1.954671
 H   -8.225378    0.478891    2.329187
 H   -7.687977   -0.968085    3.167208
 H    0.537076   -1.926060   -1.100540
 H    1.469872   -3.193844   -0.255276
 H    0.382129   -2.112647    0.661824
 H    7.857685   -1.829270    1.754387
 H   10.080251   -0.755559    1.389361
 H    8.483718    1.392130   -1.932761
 H    6.278181    0.318533   -1.580245
