59 
3pjg_ligand_dft.xyz
 C   -2.085756   -0.946735    0.308093
 C   -1.807657    0.477595    0.784766
 O   -1.854897    0.603120    2.193421
 C   -2.797114    1.429538    0.090014
 O   -2.621664    1.419877   -1.302844
 C   -4.228556    0.945326    0.350771
 O   -4.461660    1.159261    1.737555
 C   -4.371167   -0.556204    0.014126
 O   -3.388818   -1.336373    0.650241
 C   -4.448321   -0.832037   -1.489979
 O   -3.763605   -1.610058   -2.098595
 O   -5.449511   -0.124807   -2.041058
 P    0.233258   -2.037039    0.364009
 O    0.484909   -1.128901   -0.772734
 O    0.409252   -3.577815    0.097948
 O   -1.236283   -1.875847    0.973698
 O    1.191639   -1.800121    1.634877
 P    1.521670   -0.560267    2.627532
 O    2.790703   -0.736759    3.335230
 O    0.248193   -0.380667    3.534529
 O    1.489280    0.668690    1.574977
 C    2.064502    1.915276    1.994438
 C    2.139668    2.864874    0.812075
 O    3.088980    2.417152   -0.166524
 C    0.828736    3.046010    0.053578
 O    0.820980    4.316530   -0.543855
 C    0.931048    1.960592   -1.013458
 O    0.107141    2.309717   -2.106067
 C    2.451206    1.913140   -1.299988
 N    2.896440    0.512988   -1.524030
 C    3.561489   -0.197330   -0.555973
 C    2.327639   -0.118682   -2.610647
 O    1.658208    0.482423   -3.443872
 N    2.563597   -1.471268   -2.692921
 C    2.957324   -2.268049   -1.616757
 O    2.678125   -3.464425   -1.602746
 C    3.657006   -1.541283   -0.582584
 H   -1.934438   -1.011751   -0.770261
 H   -0.791654    0.741512    0.500977
 H   -2.789138    0.548433    2.463955
 H   -2.688610    2.433664    0.523862
 H   -1.728508    1.736158   -1.540077
 H   -4.923321    1.527632   -0.262915
 H   -5.353130    0.864064    1.958739
 H   -5.325378   -0.906887    0.425983
 H   -5.450156   -0.334533   -2.989017
 H    1.196088   -3.748471   -0.474543
 H   -0.581564   -0.103952    3.061568
 H    1.438282    2.359991    2.776787
 H    3.064519    1.735259    2.399314
 H    2.491501    3.832806    1.180659
 H   -0.041961    2.906899    0.712225
 H    0.366482    4.210338   -1.393956
 H    0.656483    0.982092   -0.621420
 H    0.399744    1.741905   -2.846780
 H    2.724011    2.494996   -2.184982
 H    3.978793    0.404246    0.239048
 H    2.006382   -1.939976   -3.397708
 H    4.133347   -2.087025    0.219774
