70 
3pjt_ligand_dft.xyz
 P    2.327179   -0.365845   -2.680474
 O    1.875379   -1.755174   -2.839865
 O    2.996849    0.312972   -3.967611
 O    1.137199    0.614420   -2.250059
 C    1.278320    2.039089   -2.306230
 C    0.038297    2.698663   -1.746262
 O   -1.104295    2.341259   -2.520432
 C   -0.337369    2.340337   -0.308969
 O    0.361921    3.166918    0.610573
 C   -1.832666    2.659196   -0.297791
 O   -2.036160    4.048397   -0.268177
 C   -2.231413    2.176288   -1.693469
 N   -2.593152    0.757499   -1.668199
 C   -1.951528   -0.293921   -2.288531
 N   -2.467357   -1.454722   -1.984217
 C   -3.500389   -1.157199   -1.123271
 C   -4.294130   -2.026006   -0.312814
 O   -4.229639   -3.244103   -0.205339
 N   -5.196876   -1.285924    0.474426
 C   -5.204419    0.078172    0.602339
 N   -6.117899    0.608484    1.471599
 N   -4.432269    0.875985   -0.088986
 C   -3.595328    0.205619   -0.915985
 P    0.921184    2.529733    1.991581
 O   -0.315271    1.703665    2.513595
 O    1.552637    3.556615    2.826195
 O    1.908994    1.364523    1.476133
 C    3.257986    1.686955    1.143380
 C    3.956671    0.404828    0.747119
 O    4.112630   -0.440935    1.891982
 C    3.187492   -0.452433   -0.262674
 O    3.495661   -0.085684   -1.610086
 C    3.637928   -1.863278    0.118341
 O    4.998462   -2.064970   -0.179081
 C    3.548090   -1.705480    1.636274
 N    2.148607   -1.701665    2.107192
 C    1.724649   -0.933344    3.165934
 N    0.424481   -0.847532    3.260210
 C   -0.051215   -1.617923    2.213542
 C   -1.402280   -1.884994    1.789297
 O   -2.455913   -1.486184    2.257317
 N   -1.392995   -2.729478    0.656818
 C   -0.292115   -3.069290   -0.076996
 N   -0.516092   -3.671185   -1.274249
 N    0.938218   -2.846221    0.330904
 C    0.997410   -2.142055    1.479559
 H    2.930182   -0.276756   -4.730956
 H    2.145914    2.355274   -1.715664
 H    1.429046    2.340212   -3.346303
 H    0.193317    3.784043   -1.801793
 H   -0.160949    1.278633   -0.110722
 H   -2.372805    2.143574    0.501003
 H   -1.473786    4.398753    0.437550
 H   -3.069883    2.752422   -2.090333
 H   -1.103054   -0.128351   -2.932741
 H   -5.755566   -1.853786    1.098716
 H   -6.341301    0.072898    2.298161
 H   -5.964319    1.591157    1.650379
 H   -0.116653    0.846946    2.988170
 H    3.281215    2.394857    0.305356
 H    3.753499    2.146739    2.002454
 H    4.949796    0.640353    0.349398
 H    2.113002   -0.347855   -0.094141
 H    2.990622   -2.639356   -0.287724
 H    5.075602   -2.102148   -1.140177
 H    4.127926   -2.451444    2.180269
 H    2.430555   -0.415226    3.797176
 H   -2.307810   -3.047744    0.333176
 H   -1.345975   -3.326743   -1.756207
 H    0.311758   -3.664548   -1.858056
