70 
3pju_ligand_xtb.xyz
 P    2.274831   -0.309260   -2.601485
 O    1.886741   -1.710861   -2.680497
 O    2.815786    0.349357   -3.940709
 O    1.086692    0.637076   -2.134211
 C    1.201918    2.048999   -2.257452
 C   -0.064988    2.725597   -1.738897
 O   -1.189068    2.384580   -2.540320
 C   -0.463652    2.359014   -0.301366
 O    0.186694    3.158689    0.652765
 C   -1.974380    2.643141   -0.331176
 O   -2.234467    4.013292   -0.255680
 C   -2.314881    2.134361   -1.741031
 N   -2.599043    0.714906   -1.688891
 C   -1.944215   -0.309496   -2.321771
 N   -2.375110   -1.483022   -1.976784
 C   -3.378503   -1.249484   -1.070063
 C   -4.139317   -2.154912   -0.264432
 O   -4.056468   -3.368195   -0.197280
 N   -5.030523   -1.458192    0.556429
 C   -5.092321   -0.101806    0.682464
 N   -6.002919    0.403227    1.548252
 N   -4.373153    0.725914   -0.025356
 C   -3.524123    0.122201   -0.880598
 P    0.744044    2.436556    1.983369
 O   -0.474648    1.578808    2.460781
 O    1.364669    3.402120    2.874455
 O    1.754286    1.321039    1.386951
 C    3.081294    1.755002    1.161100
 C    3.928729    0.547699    0.764176
 O    4.167230   -0.292808    1.886426
 C    3.229987   -0.349313   -0.272841
 O    3.510017    0.017347   -1.605532
 C    3.720869   -1.747992    0.132542
 O    5.062453   -1.964484   -0.206209
 C    3.620442   -1.565070    1.652315
 N    2.231739   -1.585260    2.085354
 C    1.751480   -0.870672    3.152046
 N    0.454912   -0.835044    3.211872
 C    0.018482   -1.582190    2.141336
 C   -1.305931   -1.908936    1.688963
 O   -2.385542   -1.574921    2.138755
 N   -1.239388   -2.714773    0.544679
 C   -0.118706   -2.966010   -0.187118
 N   -0.271553   -3.547900   -1.390132
 N    1.087704   -2.691557    0.247202
 C    1.122008   -2.034448    1.418587
 H    3.114120   -0.328622   -4.546252
 H    2.062982    2.407045   -1.685254
 H    1.339273    2.306384   -3.310491
 H    0.090636    3.814406   -1.790556
 H   -0.280125    1.295460   -0.118944
 H   -2.520764    2.094399    0.444834
 H   -1.685902    4.378104    0.453155
 H   -3.178905    2.667386   -2.157943
 H   -1.152661   -0.133735   -3.019738
 H   -5.553116   -2.039364    1.201081
 H   -6.308786   -0.169718    2.316660
 H   -5.921303    1.391134    1.723949
 H   -0.262297    0.751672    2.960759
 H    3.099439    2.505220    0.363189
 H    3.472891    2.209094    2.075160
 H    4.897064    0.892123    0.380405
 H    2.148321   -0.313229   -0.113931
 H    3.066896   -2.537759   -0.249514
 H    5.163731   -1.772057   -1.146241
 H    4.216603   -2.290300    2.215721
 H    2.407755   -0.384303    3.845197
 H   -2.123987   -3.074659    0.188631
 H   -1.170455   -3.402361   -1.834749
 H    0.536645   -3.456248   -1.990023
