68 
3pkc_ligand_xtb.xyz
 N   -1.215422   -0.747594   -0.256555
 O    2.722675   -1.676564   -1.817930
 N   -4.595907    0.036686    0.135442
 O    2.111857   -3.217037    2.122418
 O    4.149733   -2.384516    0.446698
 O    0.085427   -2.285232   -1.270976
 O   -2.956028    0.494443    1.605489
 O    0.561903   -0.532408    1.671222
 C    4.967389    2.445515   -0.592077
 C    3.860380    1.427789   -0.507179
 C    3.898339    0.169611   -0.907872
 C    2.756251   -0.788085   -0.722093
 C    2.988391   -1.594770    0.577313
 C    1.814634   -2.532873    0.923485
 C    0.468369   -1.808452    1.079620
 C    6.230013    1.889014   -1.248343
 C    5.297623    2.901782    0.835466
 C    4.457653    3.643413   -1.403910
 C   -0.229495   -1.643282   -0.277807
 C   -2.040669   -0.464496   -1.404399
 C   -3.307779   -1.337015   -1.441670
 C   -4.259962   -0.899136   -2.559912
 C   -4.921041    0.444297   -2.248557
 C   -5.567141    0.429923   -0.858735
 C   -4.063719   -1.288259   -0.108687
 C   -3.961854    0.854087    1.007810
 C   -4.563961    2.205611    1.229882
 C   -3.809446    3.159731    2.108922
 C   -3.850841    3.395077    0.636447
 C    0.665723   -0.557392    3.079339
 H   -1.460066   -0.289266    0.618812
 H    1.833405   -2.070597   -1.858254
 H    3.053252   -3.438301    2.080805
 H    4.168993   -2.668052   -0.480868
 H    2.952257    1.800422   -0.047055
 H    4.766722   -0.265054   -1.376011
 H    1.815063   -0.232104   -0.622689
 H    3.157388   -0.907317    1.412100
 H    1.698320   -3.269543    0.110672
 H   -0.171234   -2.465154    1.694219
 H    6.616787    1.046279   -0.681067
 H    6.998386    2.658657   -1.284996
 H    6.022684    1.563443   -2.264582
 H    4.417480    3.319801    1.319040
 H    6.076159    3.661651    0.819982
 H    5.647129    2.059101    1.427706
 H    5.220316    4.417490   -1.457458
 H    3.567666    4.068089   -0.944740
 H    4.207175    3.332847   -2.415771
 H   -1.448157   -0.663237   -2.301227
 H   -2.302397    0.594435   -1.372907
 H   -2.991683   -2.369611   -1.616659
 H   -3.719227   -0.833849   -3.505147
 H   -5.037298   -1.658558   -2.672119
 H   -4.182341    1.245908   -2.289471
 H   -5.686118    0.660450   -2.995529
 H   -6.386524   -0.298539   -0.842660
 H   -5.973301    1.413839   -0.632671
 H   -3.410465   -1.553789    0.722692
 H   -4.901229   -1.993280   -0.139105
 H   -5.644887    2.233437    1.269361
 H   -4.376047    3.809137    2.757699
 H   -2.888053    2.793471    2.534664
 H   -4.451713    4.204937    0.249832
 H   -2.951275    3.207616    0.069228
 H    0.818099    0.474817    3.387988
 H    1.504478   -1.174266    3.409417
 H   -0.258094   -0.940986    3.526933
