58 
3pkd_ligand_dft.xyz
 N    1.818192    0.489112   -0.582220
 O   -2.266090    0.508783   -1.664644
 O   -1.252171    4.000023    0.457142
 O   -3.300395    2.278751    0.296302
 O    0.410264    1.300729   -2.172014
 O    0.819541    1.970608    1.265844
 C   -4.914741   -2.200068    0.259634
 C   -3.886869   -1.251316   -0.316826
 C   -2.941500   -0.593141    0.346037
 C   -1.959014    0.349367   -0.294674
 C   -1.998179    1.721194    0.400927
 C   -1.023124    2.757279   -0.179479
 C    0.458058    2.414146   -0.024140
 C   -4.752366   -2.400754    1.769534
 C   -4.773152   -3.556330   -0.454480
 C   -6.312302   -1.621178   -0.028505
 C    0.887621    1.342107   -1.035868
 C    2.333464   -0.623616   -1.362006
 C    3.793042   -0.362246   -1.800754
 C    4.593463   -0.888402   -0.632349
 C    3.810866   -1.754604    0.136850
 C    2.429923   -1.879232   -0.467723
 C    5.911126   -0.628100   -0.280305
 C    6.440786   -1.239843    0.855665
 C    5.659104   -2.100445    1.624972
 C    4.336749   -2.364829    1.268282
 C    1.007522    2.999896    2.222133
 H    2.100433    0.606102    0.382924
 H   -1.445065    0.790470   -2.107201
 H   -2.218845    4.057120    0.522278
 H   -3.608028    2.037667   -0.592181
 H   -3.947882   -1.100552   -1.394380
 H   -2.830642   -0.698163    1.423720
 H   -0.950104   -0.073849   -0.164565
 H   -1.789646    1.602853    1.469223
 H   -1.215377    2.851280   -1.256928
 H    1.021417    3.327261   -0.279279
 H   -3.769236   -2.820131    2.011796
 H   -4.865799   -1.454950    2.310858
 H   -5.513849   -3.094812    2.142580
 H   -3.786827   -3.995371   -0.268534
 H   -5.535177   -4.261535   -0.101417
 H   -4.893829   -3.444111   -1.538136
 H   -7.093844   -2.303585    0.326892
 H   -6.461568   -1.468183   -1.103605
 H   -6.443437   -0.655377    0.471209
 H    1.658388   -0.746899   -2.209400
 H    3.965784    0.695014   -2.020733
 H    4.019596   -0.931918   -2.711797
 H    2.361843   -2.784196   -1.085094
 H    1.620300   -1.923353    0.267585
 H    6.521070    0.045667   -0.876175
 H    7.468223   -1.040509    1.145594
 H    6.081526   -2.564670    2.511225
 H    3.728028   -3.032935    1.871842
 H    0.072139    3.524959    2.428246
 H    1.752028    3.727443    1.869227
 H    1.378975    2.515014    3.127168
