58 
3pke_ligand_dft.xyz
 N    1.900779    0.696117   -0.696121
 O   -2.223735    0.592825   -1.645403
 O   -1.276897    4.015560    0.626598
 O   -3.276206    2.235814    0.415990
 O    0.396340    1.524836   -2.187734
 O    0.871060    1.998675    1.272205
 C   -4.748820   -2.275111    0.211613
 C   -3.753023   -1.282352   -0.346926
 C   -2.820638   -0.616860    0.326932
 C   -1.882082    0.383943   -0.290752
 C   -1.953671    1.720320    0.468254
 C   -1.026957    2.815385   -0.080694
 C    0.467072    2.510979    0.020738
 C   -4.568200   -2.511319    1.714275
 C   -4.578988   -3.607778   -0.539574
 C   -6.163281   -1.724938   -0.049716
 C    0.909335    1.520706   -1.066496
 C    2.448067   -0.339810   -1.554975
 C    3.971368   -0.146296   -1.727262
 C    4.537817   -0.891791   -0.541009
 C    3.592751   -1.796540   -0.047252
 C    2.324867   -1.719708   -0.868515
 C    5.788360   -0.782597    0.052255
 C    6.087633   -1.588405    1.150558
 C    5.146271   -2.491442    1.642287
 C    3.890961   -2.601937    1.044170
 C    1.052972    2.973935    2.284839
 H    2.188268    0.748618    0.273406
 H   -1.425365    0.931946   -2.089544
 H   -2.243037    4.041983    0.713851
 H   -3.594690    2.025085   -0.476349
 H   -3.832711   -1.098321   -1.418095
 H   -2.693647   -0.753904    1.399178
 H   -0.855923   -0.007617   -0.199270
 H   -1.718349    1.560401    1.525518
 H   -1.250196    2.959933   -1.146394
 H    0.995706    3.456231   -0.187106
 H   -3.572782   -2.911826    1.937606
 H   -4.700644   -1.583099    2.281074
 H   -5.308873   -3.233810    2.074971
 H   -3.581647   -4.028307   -0.370118
 H   -5.322272   -4.339876   -0.201733
 H   -4.708205   -3.469822   -1.619272
 H   -6.924289   -2.433508    0.298937
 H   -6.327378   -1.553172   -1.119822
 H   -6.312219   -0.773283    0.471641
 H    1.902014   -0.278141   -2.496374
 H    4.245363    0.911996   -1.764831
 H    4.303932   -0.609163   -2.665751
 H    2.309013   -2.513612   -1.626464
 H    1.404162   -1.805716   -0.283243
 H    6.521670   -0.075270   -0.326062
 H    7.058528   -1.507039    1.630240
 H    5.390032   -3.109189    2.501665
 H    3.157269   -3.303604    1.432143
 H    0.112182    3.473420    2.527379
 H    1.784924    3.730268    1.967955
 H    1.438340    2.443611    3.157954
