77 
3pma_ligand_dft.xyz
 C   -0.302387    0.044115   -1.763647
 C   -0.409108   -1.465819   -1.518308
 C    0.723825   -1.866664   -0.593749
 C    2.067743   -1.451137   -1.162987
 C    2.074745    0.037868   -1.542140
 C    3.307775    0.378486   -2.383206
 C   -0.415850    2.975801   -1.171262
 C   -1.070147    1.899017   -0.316571
 C   -2.604012    1.774107   -0.419830
 C   -2.939137    1.068477    0.892930
 C   -1.824673    1.535579    1.844769
 C   -1.179371    0.370373    2.572514
 O   -0.468016    0.626390   -0.496993
 O   -1.641853   -1.749241   -0.841607
 O   -2.019472   -3.589790   -2.472940
 O   -3.877481   -2.013524   -1.899197
 O   -3.132985   -3.550976   -0.223309
 O    0.732113   -3.291479   -0.421852
 O   -0.896286   -4.520512    0.995543
 O    0.693788   -2.909144    2.040006
 O    1.445431   -5.072588    1.044566
 O    3.044160   -1.619535   -0.126620
 O    4.463153   -2.964825   -1.654312
 O    3.802494   -3.889423    0.574258
 O    5.318311   -2.036380    0.516699
 O    0.933892    0.335908   -2.342954
 O    3.956207    1.594277   -1.983719
 O    4.139045    1.538772    0.499136
 O    5.672360    0.228805   -0.816419
 O    5.815398    2.731582   -0.922790
 O   -0.883381    2.225873    1.016913
 O   -0.154656    0.801122    3.490750
 O    1.590915   -0.272119    2.051848
 O    2.102718    0.631907    4.323947
 O    1.663747    2.104403    2.349353
 O   -4.233778    1.464952    1.326365
 O   -4.339534   -0.324481    3.059783
 O   -6.383286    0.960052    2.315262
 O   -5.251807   -0.747036    0.866773
 O    0.981305    2.991512   -0.859778
 O    1.265526    5.475441   -0.944445
 O    2.974660    3.938032    0.078112
 O    0.804047    4.423185    1.181773
 O   -2.960238    1.002243   -1.560187
 O   -5.445200    0.842750   -1.376852
 O   -4.404442    2.573836   -2.852502
 O   -4.191857    0.203187   -3.424251
 S   -2.708930   -2.775567   -1.508982
 S    0.413048   -3.910328    1.032898
 S    4.181012   -2.762697   -0.256739
 S    5.037278    1.539834   -0.800742
 S    1.600568    4.316638   -0.172649
 S   -4.396004    1.260203   -2.283074
 S   -5.135258    0.314095    2.043875
 S    1.394010    0.903423    3.110342
 H   -1.051059    0.377700   -2.479978
 H   -0.360178   -2.010273   -2.463877
 H    0.588086   -1.375746    0.368464
 H    2.322165   -2.073770   -2.027452
 H    2.054885    0.631338   -0.622884
 H    4.040041   -0.432259   -2.380367
 H    2.991953    0.565618   -3.409686
 H   -0.508920    2.750083   -2.235204
 H   -0.881655    3.944195   -0.972687
 H   -3.065425    2.766805   -0.457670
 H   -2.903701   -0.011473    0.720995
 H   -2.214383    2.260747    2.562732
 H   -0.772392   -0.354402    1.866456
 H   -1.924537   -0.117673    3.203230
 H   -2.355604   -4.006520    0.194160
 H    2.368848   -4.714505    0.920706
 H    5.534399   -1.162395    0.079276
 H    3.675713    2.413909    0.573008
 H    1.589881   -1.156973    2.471397
 H   -5.576062   -0.309961    0.046063
 H    0.950450    3.604330    1.717409
 H   -4.170484   -0.704995   -3.026892
