45 
3pn1_ligand_dft.xyz
 S    2.931750   -0.648576   -0.491867
 C    7.098109   -2.384968    0.780676
 N    2.003018    1.825317   -0.058694
 O   -3.915453   -0.155822   -0.851145
 C    5.780141   -1.616503    0.856376
 N    0.429233    0.079276   -0.552819
 O   -3.856881    0.118911    1.987324
 C    5.675791   -0.537055   -0.223065
 N   -1.857766    0.900842   -0.581817
 O   -3.628624   -3.140776   -0.775839
 C    4.425337    0.337839   -0.135303
 N   -1.497297    3.059732   -0.071318
 O   -1.176806   -2.328573   -0.323433
 C    1.655499    0.567370   -0.348298
 N    1.389097    4.010143    0.393008
 C    1.038597    2.750099    0.065886
 C   -0.300568    2.373278   -0.131220
 C   -0.506090    1.034531   -0.441383
 C   -2.392361    2.144927   -0.341792
 C   -2.535714   -0.353781   -0.894188
 C   -2.171700   -1.453693    0.128529
 C   -3.499876   -2.200620    0.262649
 C   -4.531357   -1.091383    0.045528
 C   -4.990002   -0.374386    1.302778
 H    7.954430   -1.713327    0.912861
 H    7.209906   -2.878199   -0.191732
 H    7.153536   -3.156159    1.555326
 H    4.942000   -2.317771    0.764993
 H    5.680385   -1.146547    1.843738
 H   -4.150450    0.679791    2.712805
 H    6.542492    0.132718   -0.142251
 H    5.738092   -0.999154   -1.217150
 H   -2.727211   -3.447452   -0.963402
 H    4.323471    0.778782    0.860120
 H    4.470821    1.155553   -0.857794
 H   -0.377770   -1.784818   -0.471933
 H    0.692142    4.737019    0.381780
 H    2.365892    4.253067    0.417893
 H   -3.460001    2.297368   -0.384797
 H   -2.229704   -0.663247   -1.900784
 H   -1.911199   -0.982571    1.082010
 H   -3.607687   -2.673622    1.248228
 H   -5.406916   -1.506109   -0.463138
 H   -5.663284    0.441462    1.003262
 H   -5.563662   -1.080593    1.923021
