35 
3po1_ligand_dft.xyz
 C   -4.083557   -3.826141    0.567289
 C   -3.870973   -2.334257    0.663263
 O   -2.719474   -2.004259   -0.172537
 C   -2.380538   -0.742699   -0.245184
 O   -2.925565    0.180617    0.330873
 C   -1.192803   -0.505779   -1.172226
 O    4.901625   -2.321535    0.211431
 C    3.706504   -1.724026    0.063880
 C    2.638534   -2.556777   -0.317092
 C    1.366177   -2.050549   -0.500269
 C    1.164625   -0.684860   -0.304441
 N   -0.037855    0.041111   -0.457279
 C    0.061082    1.333819   -0.108070
 N   -1.002258    2.145746   -0.134086
 C   -0.983554    3.581846   -0.037712
 N   -0.019939    4.045681    0.837509
 N   -1.730411    4.338031   -0.716391
 S    1.675033    1.790389    0.343493
 C    2.213874    0.133481    0.093491
 C    3.499347   -0.362493    0.281217
 H   -4.289142   -4.128943   -0.462639
 H   -3.209733   -4.373075    0.930991
 H   -4.942611   -4.104280    1.184098
 H   -3.646632   -2.004916    1.680591
 H   -4.724678   -1.762199    0.292411
 H   -1.495200    0.213752   -1.940806
 H   -0.884971   -1.422932   -1.669095
 H    5.581354   -1.685965    0.469223
 H    2.838251   -3.612734   -0.457750
 H    0.554548   -2.718144   -0.768592
 H   -1.920411    1.683840   -0.110041
 H    0.029571    5.058839    0.828478
 H   -0.079338    3.679435    1.781909
 H   -2.275017    3.841916   -1.418421
 H    4.311724    0.287229    0.592477
