37 
3po6_ligand_dft.xyz
 C    5.176306   -1.067781    0.508360
 C    3.538114    2.806263   -0.491845
 C   -1.083969    0.938120    2.061879
 N   -4.586811   -0.716541    0.328622
 O   -3.594968    1.672067    0.247091
 O   -3.672425    0.192848   -1.786936
 C    1.938357   -1.681123   -0.080163
 C    1.411073    1.035590    0.010961
 C   -0.530189   -2.195575    0.279609
 C   -1.735581   -1.598450   -0.434048
 O    4.228564   -1.255227   -0.531249
 O    3.773554    1.417463   -0.440386
 C    0.631641   -1.247116    0.150388
 C    2.976301   -0.782357   -0.256591
 C    2.711322    0.601332   -0.222408
 C    0.373530    0.118053    0.203147
 C   -1.002855    0.644077    0.558939
 N   -2.080560   -0.313872    0.190153
 S   -3.494832    0.352427   -0.354106
 H    6.100649   -1.536659    0.166254
 H    4.840944   -1.556715    1.432455
 H    5.354972   -0.005235    0.700562
 H    2.828487    3.062569   -1.288524
 H    4.503072    3.266634   -0.706209
 H    3.160111    3.189011    0.465256
 H   -0.309668    1.656470    2.349886
 H   -0.930629    0.016816    2.633007
 H   -2.061408    1.359587    2.308907
 H   -5.450479   -0.702466   -0.205541
 H   -4.748571   -0.493834    1.306199
 H    2.168553   -2.740993   -0.143684
 H    1.184379    2.096577    0.040938
 H   -0.783062   -2.378878    1.332183
 H   -0.290485   -3.163667   -0.171591
 H   -1.510548   -1.470257   -1.500539
 H   -2.607854   -2.249815   -0.340259
 H   -1.161655    1.581507    0.017456
