40 
3ppj_ligand_xtb.xyz
 C   -1.245542    3.631991   -0.674031
 N   -2.464829    4.032683   -0.314001
 C   -3.369789    3.143838    0.024406
 C   -3.063344    1.785070    0.020879
 C   -1.762589    1.353009   -0.321959
 C   -0.825983    2.317841   -0.699986
 C   -1.808731   -0.081896   -0.233379
 C   -3.115186   -0.385525    0.123252
 O   -3.869519    0.747566    0.284381
 C   -3.773462   -1.663617    0.339598
 O   -4.905422   -1.818205    0.720447
 O   -2.940142   -2.704913    0.062812
 C   -3.502849   -3.993657    0.270528
 N   -0.832414   -0.983317   -0.528583
 C    0.539025   -0.814714   -0.390260
 C    1.384460   -1.660304   -1.117494
 C    2.755494   -1.546787   -1.021763
 C    3.289118   -0.576218   -0.183690
 C    2.450626    0.254495    0.565534
 C    1.080657    0.136898    0.476814
 C    3.241206    1.200997    1.418377
 C    4.708637    0.875604    1.098716
 C    4.671621   -0.251805    0.098533
 N    5.647781   -0.858946   -0.440923
 O    6.916753   -0.417457   -0.050575
 H   -0.574038    4.430404   -0.957796
 H   -4.349401    3.508629    0.296337
 H    0.172290    2.052318   -1.008340
 H   -3.856488   -4.090809    1.298448
 H   -4.344211   -4.153133   -0.406546
 H   -2.708255   -4.707525    0.069208
 H   -1.160044   -1.924967   -0.696853
 H    0.944181   -2.405767   -1.763502
 H    3.411270   -2.192195   -1.583281
 H    0.434638    0.752785    1.083267
 H    3.013700    1.048397    2.475224
 H    2.993009    2.236929    1.178752
 H    5.271353    0.561658    1.979612
 H    5.241310    1.725173    0.667371
 H    7.523349   -0.982083   -0.548324
