24 
3ppr_ligand_dft.xyz
 O   -1.346760   -1.698987   -0.572836
 C   -1.694309   -0.638236   -0.110539
 O   -2.797360    0.027924   -0.341625
 C   -0.800420    0.094034    0.907365
 C   -0.547126    1.577146    0.653137
 C    0.293465    1.810294   -0.590955
 N    1.595482    1.037108   -0.457419
 C    1.426149   -0.447777   -0.271210
 C    2.755070   -1.146204   -0.072249
 N    0.503977   -0.686581    0.896966
 H   -3.398742   -0.475998   -0.924335
 H   -1.236440   -0.051120    1.901632
 H   -0.078495    2.036253    1.531523
 H   -1.513502    2.073602    0.526085
 H    0.555058    2.862437   -0.717676
 H   -0.188309    1.454181   -1.505723
 H    2.164571    1.435811    0.302499
 H    2.159344    1.171914   -1.308209
 H    0.891660   -0.813722   -1.151024
 H    3.388223   -1.010679   -0.954375
 H    2.597027   -2.223664    0.035867
 H    3.292437   -0.777682    0.808711
 H    1.002372   -0.580632    1.789744
 H    0.224571   -1.681413    0.810849
