49 
3psd_ligand_dft.xyz
 C   41.737880   29.066001   33.399268
 C   40.451326   29.217293   32.813865
 N   40.167423   30.502750   32.611481
 N   41.237027   31.181262   33.043967
 C   42.193843   30.363664   33.535167
 C   42.489762   27.844397   33.730326
 C   39.458225   28.191901   32.448193
 C   39.300664   27.016453   33.186125
 C   38.340739   26.094366   32.784835
 N   37.540152   26.259408   31.729529
 C   37.687073   27.393341   31.039147
 C   38.617634   28.377714   31.348628
 C   41.179489   32.639724   33.055083
 C   42.552899   33.280908   32.864763
 C   42.405424   34.812438   32.879590
 N   41.743112   35.334487   34.067305
 C   40.453720   34.694266   34.301239
 C   40.513498   33.159903   34.332484
 C   43.204695   27.755680   34.922275
 C   43.957653   26.614887   35.249118
 C   43.967228   25.562954   34.364797
 C   43.240202   25.635015   33.149094
 C   42.515070   26.757827   32.824638
 C   44.607575   24.234944   34.355288
 C   44.229318   23.563679   33.117046
 C   43.427713   24.364806   32.390732
 N   45.375672   23.521338   35.095436
 N   45.578456   22.266852   34.380369
 C   44.928000   22.295295   33.262829
 H   43.138148   30.735013   33.904354
 H   39.906541   26.823069   34.064925
 H   38.204973   25.172817   33.347137
 H   37.024945   27.519650   30.185039
 H   38.694567   29.278710   30.749918
 H   40.546781   32.896726   32.198554
 H   43.222333   32.987362   33.684871
 H   43.008091   32.941711   31.927320
 H   43.388011   35.285124   32.788386
 H   41.819444   35.126284   32.005151
 H   42.341930   35.194508   34.877263
 H   40.036618   35.077945   35.237164
 H   39.774637   35.012333   33.498395
 H   39.510593   32.729749   34.424589
 H   41.098961   32.826302   35.200571
 H   43.163690   28.584656   35.622835
 H   44.508166   26.563565   36.182672
 H   41.964274   26.822433   31.890981
 H   42.972858   24.167165   31.426022
 H   44.952967   21.450325   32.586236
