43 
3ptg_ligand_dft.xyz
 C    2.281073    1.141493   33.040512
 N    2.994349    0.286733   32.158854
 C    3.661836    0.756456   31.034799
 C    3.582188    2.249061   30.810341
 C    3.646939    3.021196   32.123884
 C    2.577950    2.513256   33.053843
 C    1.311090    0.631690   33.906288
 C    0.638166    1.484503   34.776308
 C    0.917494    2.844798   34.788468
 C    1.884939    3.347170   33.923122
 C    2.968803   -1.147118   32.375669
 C    1.664819   -1.824402   31.960230
 O    1.202932   -2.769807   32.577449
 N    1.072958   -1.293117   30.852434
 C   -0.132856   -1.704250   30.323067
 S   -1.061856   -3.002418   30.989418
 C   -2.278882   -2.772743   29.781132
 C   -1.999835   -1.768424   28.910211
 C   -0.741456   -1.133481   29.218486
 C   -0.116420   -0.032751   28.500561
 N   -0.548301    0.529962   27.350963
 N    0.287367    1.510281   26.936901
 C    1.207410    1.495893   27.876207
 N    1.011672    0.581743   28.858523
 C   -2.915123   -1.389576   27.779965
 O    4.235405   -0.000420   30.273040
 H    4.385050    2.517647   30.121438
 H    2.622762    2.443243   30.312823
 H    4.636327    2.883952   32.582199
 H    3.524819    4.093765   31.945565
 H    1.064874   -0.424056   33.913891
 H   -0.114359    1.072705   35.441459
 H    0.388253    3.510631   35.462495
 H    2.115437    4.409636   33.922694
 H    3.781804   -1.575170   31.783945
 H    3.134879   -1.378995   33.429676
 H    1.500452   -0.509340   30.351906
 H   -3.155396   -3.406832   29.780192
 H    2.056377    2.163943   27.854342
 H   -3.217064   -0.336272   27.836375
 H   -2.450417   -1.569228   26.801524
 H   -3.828526   -1.988582   27.811979
 H   -1.356934    0.304226   26.795821
