44 
3pty_ligand_xtb.xyz
 C    2.125490    0.558168    0.832642
 O    0.870698    0.493244    0.230828
 C    2.914914    1.690026    0.135197
 O    3.324624    2.721787    0.990810
 C    4.150367    0.974112   -0.443326
 O    4.507468    1.381084   -1.730107
 C    3.713060   -0.494500   -0.451886
 O    2.866858   -0.623722    0.685266
 C    4.859122   -1.494220   -0.322587
 O    4.399703   -2.817546   -0.343442
 C    0.017182   -0.505125    0.772444
 C   -1.338015   -0.406642    0.084968
 C   -2.302437   -1.472910    0.598080
 C   -3.658925   -1.443168   -0.107185
 C   -4.494935   -0.212505    0.237792
 C   -5.880772   -0.271837   -0.400520
 C   -6.728431    0.948960   -0.050420
 C   -8.110363    0.882027   -0.688705
 H    2.021504    0.726443    1.919854
 H    2.291976    2.071347   -0.686295
 H    2.547600    3.169951    1.342555
 H    4.979336    1.114434    0.266858
 H    4.774240    2.306851   -1.697187
 H    3.146551   -0.689544   -1.373412
 H    5.403322   -1.286373    0.610352
 H    5.535550   -1.378639   -1.171133
 H    3.702931   -2.890133    0.319952
 H   -0.084713   -0.345679    1.856869
 H    0.462328   -1.495340    0.614055
 H   -1.190419   -0.523454   -0.989469
 H   -1.740241    0.590835    0.261568
 H   -2.451672   -1.340592    1.672211
 H   -1.848683   -2.455323    0.447152
 H   -4.219339   -2.335961    0.180636
 H   -3.504685   -1.485474   -1.187464
 H   -4.601695   -0.143097    1.323080
 H   -3.985749    0.689594   -0.105072
 H   -5.775320   -0.337736   -1.485944
 H   -6.395824   -1.174926   -0.064166
 H   -6.215921    1.852661   -0.388261
 H   -6.833428    1.015146    1.035089
 H   -8.698221    1.758039   -0.424507
 H   -8.643684   -0.003865   -0.350589
 H   -8.028104    0.837743   -1.772529
