29 
3pwd_ligand_dft.xyz
 C    2.825160    2.148992   -0.010932
 N    2.878666   -1.598979    0.038278
 C    3.286143    0.803268   -0.030551
 O    2.133384   -2.545994    0.208811
 C    2.361982   -0.255779   -0.001482
 O    4.107386   -1.771164   -0.095616
 C    1.497932    2.417764    0.017407
 C    0.524650    1.376708    0.019652
 C    0.935513    0.007473    0.009679
 C   -0.080332   -0.968811   -0.010224
 C   -0.839008    1.710466    0.023858
 C   -1.829273    0.747279    0.009428
 C   -1.409674   -0.600283   -0.012569
 O   -2.308276   -1.619013   -0.036640
 C   -3.670249   -1.402783   -0.038168
 C   -4.112971   -0.009241   -0.010829
 C   -3.259612    1.031752    0.011452
 O    4.600762    0.672924   -0.065137
 O   -4.395954   -2.360677   -0.061467
 C   -3.738457    2.453548    0.037831
 H    3.578970    2.927387   -0.021364
 H    1.153360    3.448131    0.032162
 H    0.144820   -2.022066   -0.022316
 H   -1.107719    2.762754    0.034933
 H   -5.188498    0.126787   -0.010611
 H    4.792730   -0.295941   -0.101599
 H   -4.829534    2.499026    0.039025
 H   -3.371559    2.971768    0.931036
 H   -3.372466    3.004275   -0.836127
