24 
3pwk_ligand_dft.xyz
 O   -3.719406    0.902291    0.311154
 O    3.369465    1.124386    0.506029
 O   -3.369515   -1.124232   -0.506147
 O    3.719436   -0.902291   -0.310863
 C   -0.802544    1.101845   -0.566635
 C    0.685171    1.281118   -0.263730
 C   -0.685183   -1.281173    0.263622
 C    0.802545   -1.101914    0.566518
 C   -2.913035   -0.143066    0.016574
 C    2.913025    0.143104   -0.016501
 C   -1.440062    0.045423    0.359260
 C    1.440089   -0.045472   -0.359319
 H   -3.214705    1.603815    0.743706
 H    3.214703   -1.603887   -0.743263
 H   -0.938469    0.780626   -1.608031
 H   -1.313052    2.067507   -0.470379
 H    0.820437    1.686897    0.745734
 H    1.125479    2.010436   -0.950399
 H   -1.125478   -2.010510    0.950276
 H   -0.820437   -1.686920   -0.745855
 H    1.312990   -2.067615    0.470251
 H    0.938493   -0.780740    1.607922
 H   -1.374658    0.415638    1.394746
 H    1.374825   -0.415662   -1.394818
