24 
3pwk_ligand_xtb.xyz
 O   -3.279913    0.094717   -1.148651
 O    3.736225    0.114852   -0.992672
 O   -3.729225   -0.074850    1.008045
 O    3.271000   -0.119031    1.154614
 C   -0.744097    1.267563   -0.063718
 C    0.747890    1.239146    0.261002
 C   -0.747573   -1.242162   -0.271888
 C    0.744121   -1.272585    0.054801
 C   -2.911924   -0.008484    0.137366
 C    2.912601    0.012716   -0.131525
 C   -1.410345   -0.033467    0.400026
 C    1.412774    0.028265   -0.405565
 H   -2.524793    0.140835   -1.750065
 H    2.511356   -0.191767    1.747688
 H   -0.868962    1.401187   -1.141868
 H   -1.213123    2.117882    0.434716
 H    0.873321    1.197301    1.346470
 H    1.219680    2.157126   -0.094249
 H   -1.220206   -2.161644    0.078375
 H   -0.870832   -1.195153   -1.357460
 H    1.213334   -2.122616   -0.444088
 H    0.865512   -1.409162    1.133016
 H   -1.295473   -0.123374    1.484955
 H    1.304822    0.117935   -1.491172
