75 
3pwm_ligand_xtb.xyz
 N   -6.995637    2.253374   -0.935507
 C   -6.103595    1.216088   -0.996445
 C   -6.083914    0.236442    0.004167
 C   -5.139473   -0.767294   -0.021569
 C   -4.206688   -0.806466   -1.042597
 C   -4.208551    0.152137   -2.040381
 C   -5.152671    1.156992   -2.021950
 S   -2.976985   -2.098178   -1.036159
 O   -3.596974   -3.367579   -0.804032
 O   -2.179110   -1.953506   -2.229969
 N   -1.991013   -1.763756    0.257250
 C   -2.165228   -2.489018    1.492138
 C   -0.844932   -3.093860    1.989904
 C   -0.324505   -4.106898    0.975222
 C   -1.055049   -3.745744    3.353518
 C   -1.466464   -0.419301    0.306572
 C   -0.091756   -0.298601   -0.376980
 O   -0.195529   -0.182557   -1.771983
 C    0.693870    0.927185    0.131096
 N    2.032857    0.849669   -0.408127
 C    3.131444    0.957131    0.357868
 O    3.140044    1.165949    1.545943
 O    4.252339    0.807680   -0.399448
 C    5.476439    0.942536    0.299440
 C    5.859539   -0.302989    1.120281
 O    7.262327   -0.208086    1.255652
 C    7.777192    0.253771    0.047742
 O    8.107790   -0.814332   -0.809958
 C    7.754927   -0.458507   -2.129210
 C    6.477625    0.376089   -2.007388
 C    6.667282    1.082775   -0.660892
 C    0.046018    2.263105   -0.279008
 C   -1.025850    2.829466    1.916379
 C   -2.130127    3.136534    2.690405
 C   -3.381425    3.242986    2.106107
 C   -3.519281    3.054219    0.742133
 C   -2.412617    2.746159   -0.030143
 C   -1.155752    2.618323    0.548020
 H   -7.797762    2.144885   -0.338290
 H   -7.142513    2.792304   -1.772202
 H   -6.817037    0.275362    0.795989
 H   -5.121956   -1.535339    0.735287
 H   -3.470485    0.087390   -2.824210
 H   -5.164586    1.907807   -2.798178
 H   -2.594582   -1.832408    2.261960
 H   -2.869523   -3.293451    1.274656
 H   -0.114243   -2.284029    2.094351
 H   -0.258938   -3.652208   -0.010230
 H   -1.004094   -4.953319    0.909093
 H    0.659218   -4.469517    1.264171
 H   -1.795127   -4.539439    3.282321
 H   -1.399974   -3.016174    4.082963
 H   -0.123293   -4.174955    3.712826
 H   -2.164891    0.256778   -0.196205
 H   -1.385268   -0.108169    1.350343
 H    0.491774   -1.199007   -0.119395
 H   -0.820818   -0.864994   -2.089612
 H    0.797313    0.875854    1.219141
 H    2.119166    0.658702   -1.393748
 H    5.411403    1.808241    0.969562
 H    5.574470   -1.209827    0.570669
 H    5.420081   -0.315780    2.116016
 H    8.682403    0.832488    0.284154
 H    7.625479   -1.381205   -2.695196
 H    8.563063    0.134062   -2.583882
 H    6.360668    1.075446   -2.831111
 H    5.602904   -0.270638   -1.967623
 H    6.961139    2.123568   -0.788478
 H   -0.220500    2.200909   -1.334278
 H    0.804695    3.040194   -0.155023
 H   -0.050336    2.757169    2.375090
 H   -2.014149    3.296820    3.752379
 H   -4.244068    3.480826    2.710813
 H   -4.490017    3.145329    0.278143
 H   -2.527128    2.602061   -1.095241
