31 
3px9_ligand_dft.xyz
 C    2.251079    3.910220    8.160590
 N    3.237915    3.875613    9.104129
 O   -1.118094    2.820425    8.093245
 C   -0.089443    3.324679    7.705852
 N    1.051036    3.344426    8.521123
 O    1.959774    5.693323    2.166413
 C    0.153949    3.984242    6.405795
 N    2.471535    4.492086    7.023201
 O    0.922289    9.500535    2.196254
 C    1.424282    4.546888    6.139532
 N    1.658570    5.163462    4.968296
 C    0.653213    5.215749    4.111644
 N   -0.850682    4.027290    5.528534
 C   -0.603137    4.642017    4.384660
 N   -0.088146    6.684694    2.341707
 C    0.932304    5.889418    2.783579
 C    0.047824    7.493737    1.140694
 C   -0.050694    8.953333    1.422714
 C   -0.954344    9.905496    1.069181
 C   -0.503316   11.128885    1.661705
 C    0.633897   10.816336    2.331503
 H    4.137783    4.172313    8.753697
 H    3.263330    3.106317    9.756410
 H    0.914115    2.966094    9.450034
 H   -1.404007    4.666114    3.650032
 H   -0.818980    6.937495    2.991055
 H    1.020927    7.237634    0.712574
 H   -0.726014    7.226433    0.413125
 H   -1.832728    9.755446    0.457349
 H   -0.966312   12.102512    1.595582
 H    1.327078   11.388790    2.927789
