34 
3pxf_ligand_dft.xyz
 C    0.052676    1.154143   -0.395000
 C   -0.247835    2.503278   -0.357821
 C    0.737559    3.474080   -0.124685
 C    2.046430    3.098569    0.017113
 C    2.403298    1.728987   -0.005335
 C    3.769455    1.366935    0.128479
 C    4.155959    0.058875    0.154366
 C    3.177711   -0.954321    0.104595
 N   -0.937533    0.227725   -0.713243
 S    0.701905   -2.032449    0.061923
 C    1.844253   -0.645133   -0.025630
 C    1.400102    0.718420   -0.149963
 C   -2.271106    0.253408   -0.298937
 C   -2.678499    0.903951    0.871208
 C   -4.013549    0.871525    1.255486
 C   -4.959302    0.183568    0.500430
 C   -4.548974   -0.480820   -0.652221
 C   -3.220576   -0.443602   -1.055272
 O    0.180935   -2.327873   -1.259942
 O   -0.156489   -1.898056    1.222179
 O    1.698420   -3.272487    0.396108
 H   -1.271408    2.807729   -0.548556
 H    0.458748    4.522987   -0.104802
 H    2.829414    3.838964    0.150978
 H    4.505839    2.161740    0.209053
 H    5.202100   -0.213673    0.244245
 H    3.483053   -1.988897    0.184307
 H   -0.707740   -0.476360   -1.400760
 H   -1.947147    1.416402    1.487233
 H   -4.312226    1.381103    2.167206
 H   -5.999467    0.159863    0.809327
 H   -5.269519   -1.030600   -1.250856
 H   -2.907650   -0.962291   -1.957627
 H    1.599723   -3.455723    1.344556
