29 
3py0_ligand_dft.xyz
 N    4.116529   30.179376    7.059216
 C    5.198494   29.468422    6.697938
 N    5.330529   28.348279    7.395091
 C    4.274802   28.348492    8.245010
 C    3.488396   29.479569    8.067055
 C    2.296275   29.856689    8.756500
 C    1.491926   30.940764    8.626605
 C    1.638633   32.090179    7.683939
 O    2.495323   32.319448    6.830739
 N    0.579042   32.922394    7.938923
 C   -0.245422   32.427929    8.957774
 C   -1.400974   32.966395    9.501499
 C   -2.033332   32.260036   10.517649
 C   -1.520176   31.040956   10.979690
 O   -2.233225   30.451331   11.977080
 C   -1.768052   29.222955   12.484278
 C   -0.354990   30.507287   10.424775
 C    0.280429   31.213219    9.406394
 H    3.754459   31.072694    6.710362
 H    5.872833   29.796607    5.919234
 H    4.113610   27.544243    8.951731
 H    2.002708   29.130459    9.513517
 H    0.445097   33.782715    7.431891
 H   -1.807112   33.910046    9.151067
 H   -2.940307   32.639266   10.975577
 H   -0.766657   29.320490   12.924401
 H   -2.474040   28.930994   13.262621
 H   -1.746874   28.446831   11.707619
 H    0.053076   29.564935   10.772824
