29 
3py1_ligand_xtb.xyz
 N    3.539229   -0.198856    0.011614
 C    4.773636    0.318270    0.000468
 N    4.767496    1.635972   -0.018681
 C    3.474200    1.990597   -0.019805
 C    2.661582    0.856874   -0.001252
 C    1.249847    0.773635    0.001835
 C    0.443320   -0.321391    0.008621
 C    0.804755   -1.758290    0.011297
 O    1.906123   -2.297743    0.022060
 N   -0.366054   -2.455422   -0.001134
 C   -1.466926   -1.611586   -0.006662
 C   -2.813665   -1.911591   -0.019815
 C   -3.708313   -0.856489   -0.019720
 C   -3.271855    0.472254   -0.005620
 O   -4.265408    1.407019   -0.003096
 C   -3.910469    2.767407    0.022613
 C   -1.911602    0.766980    0.004433
 C   -1.009250   -0.286054    0.002609
 H    5.664976   -0.277287    0.007041
 H    3.178670    3.020994   -0.034467
 H    0.758851    1.739317   -0.005481
 H   -0.408696   -3.461648   -0.001679
 H   -3.163696   -2.931948   -0.029694
 H   -4.771081   -1.036008   -0.029784
 H   -3.344464    3.019140    0.925673
 H   -3.330201    3.049912   -0.862062
 H   -4.850778    3.316417    0.024411
 H   -1.555529    1.784158    0.014031
 H    3.219965   -1.172820    0.023696
