38 
3pyy_ligand_xtb.xyz
 C   -5.503484   -2.230283    0.237230
 C   -4.374626   -3.032491    0.285920
 C   -5.366074   -0.859789    0.097624
 C    2.846838   -0.501853    0.544832
 C    2.015363   -2.391324   -0.697773
 C   -3.116509   -2.470544    0.194961
 C   -4.111376   -0.284817    0.005031
 C    4.115770   -1.051295    0.531905
 C    3.278825   -2.947578   -0.715942
 C   -1.318351    0.738553   -0.176676
 C    1.790250   -1.160885   -0.081653
 C    0.057699    0.765299   -0.220355
 C   -2.979464   -1.091969    0.053049
 C    4.314847   -2.262031   -0.105849
 C    0.448067   -0.593699   -0.091795
 C    1.093499    2.732969    0.901380
 C   -0.065086    4.095892   -0.563303
 C    0.912518    1.977396   -0.422661
 N   -0.626170   -1.357773    0.004277
 N   -1.689299   -0.556204   -0.039862
 N    0.464736    3.927775    0.725897
 N    0.271956    2.975759   -1.243363
 O    1.652083    2.349845    1.892709
 O   -0.676352    5.052366   -0.951249
 F    5.554668   -2.796145   -0.127389
 H   -6.486277   -2.670343    0.308741
 H   -4.474614   -4.101651    0.395853
 H   -6.241494   -0.229012    0.060213
 H    2.671893    0.419609    1.078374
 H    1.186078   -2.901509   -1.161783
 H   -2.224804   -3.074730    0.233666
 H   -4.027489    0.784846   -0.102442
 H    4.943284   -0.556683    1.015325
 H    3.470499   -3.896376   -1.191701
 H   -2.018895    1.545140   -0.242282
 H    1.888492    1.680528   -0.826469
 H    0.396657    4.640650    1.436309
 H   -0.062000    2.790944   -2.173175
