85 
3q0z_ligand_dft.xyz
 N    1.332970    2.640725   -0.104188
 C    2.505070    3.509837   -0.109733
 C    3.778536    2.705047    0.222405
 N    3.753539    1.412122   -0.232563
 C    4.736362    0.424498   -0.112139
 O    4.739429    3.230759    0.753141
 C    6.014534    0.665035    0.401023
 C    6.924616   -0.380508    0.471888
 C    6.612226   -1.674471    0.041708
 C    5.324756   -1.897513   -0.466388
 C    4.405193   -0.869029   -0.542184
 C    7.625150   -2.727002    0.146653
 C    7.541103   -3.985637   -0.308325
 C    8.637027   -4.984909   -0.221451
 O    9.537671   -4.832363    0.779780
 C    2.403492    4.746074    0.808628
 C    2.687553    4.138436   -1.509740
 C    3.262933    5.845593    0.145284
 C    3.623125    5.326922   -1.268893
 O    8.748166   -5.895849   -1.001569
 C    0.922061    2.032322    1.066776
 C   -0.398908    1.334172    1.011972
 C   -1.063622    1.113617    2.236237
 C   -2.294930    0.494288    2.279152
 C   -0.954264    0.894870   -0.183600
 N   -2.951629   -0.282193   -1.140213
 C   -2.193792    0.258899   -0.129511
 C   -2.894975    0.060540    1.083315
 C   -4.135118   -0.594100    0.764089
 C   -4.124971   -0.783482   -0.600109
 C   -5.249186   -0.936136    1.714134
 C   -5.135937   -1.387416   -1.479317
 C   -4.851135   -2.045658    2.704801
 C   -6.005569   -2.402982    3.644091
 C   -6.527107   -1.166852    4.381740
 C   -6.936726   -0.068746    3.396467
 C   -5.781830    0.300913    2.461967
 O    1.618103    2.044423    2.068173
 C   -5.752526   -2.589542   -1.107939
 C   -6.779150   -3.142808   -1.859190
 C   -7.198683   -2.505160   -3.023695
 C   -6.570551   -1.339368   -3.437573
 C   -5.539785   -0.776241   -2.681697
 C   -2.681659   -0.234280   -2.556353
 N   -4.961863    0.428215   -3.145859
 C   -3.627388    0.740972   -3.249072
 O   -3.240813    1.730629   -3.836942
 H    0.603439    2.897249   -0.755267
 H    2.857842    1.110382   -0.591486
 H    6.275945    1.656042    0.743169
 H    7.914637   -0.179066    0.874056
 H    5.030308   -2.887544   -0.800243
 H    3.410161   -1.067238   -0.933238
 H    8.550490   -2.404387    0.627356
 H    6.681620   -4.336981   -0.869989
 H    9.210978   -4.183663    1.416617
 H    2.715989    4.510236    1.825500
 H    1.348998    5.042618    0.840967
 H    1.706214    4.496120   -1.852185
 H    3.060286    3.425041   -2.251945
 H    4.169341    6.030501    0.724606
 H    2.707556    6.787052    0.091900
 H    3.511388    6.090587   -2.043489
 H    4.662441    4.988343   -1.289252
 H   -0.576493    1.447278    3.145749
 H   -2.788033    0.340634    3.233277
 H   -0.429659    1.018179   -1.126426
 H   -6.089206   -1.319744    1.119390
 H   -3.987410   -1.713191    3.296466
 H   -4.518681   -2.931891    2.149904
 H   -5.684177   -3.168185    4.359956
 H   -6.824496   -2.843370    3.057016
 H   -5.737768   -0.782002    5.043245
 H   -7.373156   -1.436895    5.024002
 H   -7.279542    0.820610    3.937564
 H   -7.788365   -0.421426    2.797217
 H   -6.101580    1.053830    1.732640
 H   -4.975978    0.758650    3.049413
 H   -5.407818   -3.089430   -0.208243
 H   -7.244726   -4.069968   -1.541554
 H   -8.000291   -2.925416   -3.622650
 H   -6.871510   -0.854966   -4.362491
 H   -2.782579   -1.237087   -2.988688
 H   -1.665372    0.115744   -2.728314
 H   -5.557904    1.049320   -3.677961
