31 
3q2m_ligand_dft.xyz
 C    0.796084    2.105904    0.126482
 N    1.714292    2.942207   -0.288539
 C    2.926939    2.442041   -0.623858
 C    3.248542    1.112349   -0.535146
 C    2.503200   -1.213655    0.022268
Cl    4.063914   -1.859289   -0.356051
 C    1.518135   -2.069184    0.438833
 C    0.231670   -1.572565    0.730514
 C   -0.031535   -0.230558    0.620764
 C    0.980173    0.698008    0.225076
 C    2.267510    0.191494   -0.103411
 S   -1.691289    0.307130    0.948389
 O   -1.720676    1.411290    1.876207
 O   -2.484448   -0.912163    1.191362
 N   -2.318172    0.882068   -0.487026
 C   -2.552511   -0.013316   -1.611489
 C   -4.036955   -0.363627   -1.729262
 N   -4.483626   -1.208971   -0.564242
 H   -0.139211    2.558611    0.446700
 H    3.658009    3.168722   -0.964159
 H    4.243135    0.770519   -0.794348
 H    1.723211   -3.128525    0.540084
 H   -0.545892   -2.255079    1.053087
 H   -2.028687    1.830048   -0.700725
 H   -1.936917   -0.917854   -1.531006
 H   -2.253220    0.485025   -2.536826
 H   -4.252625   -0.914906   -2.646507
 H   -4.633944    0.548756   -1.708525
 H   -5.480307   -1.096150   -0.364674
 H   -4.314527   -2.203494   -0.735881
 H   -3.918923   -0.973330    0.294901
