51 
3q43_ligand_dft.xyz
 C    7.247178    1.708221    0.826986
 N    0.707425   -0.084566   -0.862390
 O    6.629033    1.077798   -0.281437
 C    5.510915    0.360792   -0.075718
 N   -2.579266   -0.431527   -0.564889
 O   -0.830603   -2.328463   -1.067977
 C    4.873909    0.208951    1.161107
 O   -1.729204   -0.048917    1.517664
 C    3.716785   -0.558357    1.250665
 O   -1.216840    1.938974   -0.793542
 C    3.173183   -1.191706    0.132995
 O   -3.073614    3.129533   -0.504923
 C    1.880480   -1.967769    0.232105
 C    0.664754   -1.040054    0.300871
 C   -0.691239   -1.756908    0.221844
 C   -1.762317   -0.686939    0.478943
 C   -3.369545    0.781109   -0.626429
 C   -4.466657    0.884206    0.449254
 C   -5.381805   -0.345757    0.514814
 C   -6.054540   -0.646351   -0.827436
 C   -6.429293   -0.136779    1.611813
 C   -2.425707    1.984873   -0.634057
 C    3.824565   -1.031815   -1.098577
 C    4.974115   -0.266916   -1.207404
 H    6.582198    2.451382    1.282827
 H    7.554489    0.973505    1.580011
 H    8.129031    2.208022    0.428303
 H   -0.016642    0.672474   -0.799055
 H    0.534790   -0.613681   -1.724181
 H    1.643784    0.333169   -0.928144
 H   -2.506916   -1.035788   -1.370436
 H   -0.860756   -3.289891   -1.010239
 H    5.272438    0.673278    2.055265
 H    3.239832   -0.673403    2.221552
 H   -2.428287    3.855575   -0.545505
 H    1.864407   -2.590243    1.133780
 H    1.772266   -2.642064   -0.626050
 H    0.686912   -0.425990    1.203439
 H   -0.741277   -2.503864    1.019461
 H   -3.851965    0.790416   -1.610832
 H   -5.065392    1.773470    0.223436
 H   -3.994086    1.044038    1.421703
 H   -4.767062   -1.211546    0.795833
 H   -6.607282    0.227978   -1.192899
 H   -5.335043   -0.940146   -1.601503
 H   -6.768678   -1.469327   -0.726637
 H   -7.056833   -1.026234    1.724539
 H   -7.085962    0.707003    1.368938
 H   -5.958010    0.068555    2.578589
 H    3.441457   -1.536549   -1.983940
 H    5.486623   -0.151693   -2.156245
