103 
3q4k_ligand_dft.xyz
 C   -2.368055   -0.906910   -3.495512
 O   -3.295097   -0.109056   -3.649694
 C   -1.630616   -1.526669   -4.660899
 N   -1.934437   -1.278208   -2.271603
 C   -2.590270   -0.842617   -1.050414
 C   -1.981281    0.486473   -0.570581
 O   -1.346400    0.573409    0.476251
 C   -2.487187   -1.923598    0.016992
 C   -3.359497   -3.157266   -0.267303
 C   -3.170834   -3.764914   -1.644710
 O   -2.175798   -4.416385   -1.973266
 N   -4.183693   -3.588334   -2.520151
 N   -2.206011    1.512305   -1.419151
 C   -1.677546    2.866052   -1.267710
 C   -0.177769    2.906088   -1.609555
 O    0.238911    3.530824   -2.577668
 C   -1.972562    3.543252    0.080937
 C   -3.450384    3.843555    0.375423
 C   -3.542743    4.884105    1.504053
 C   -4.988057    5.231842    1.867414
 C   -5.781339    3.979284    2.244322
 C   -5.716425    2.943939    1.120726
 C   -4.271880    2.597239    0.747381
 N    0.640757    2.215152   -0.779312
 C    2.037684    2.054699   -1.099612
 C    2.591455    0.929584   -0.218210
 O    2.100966    0.685634    0.875693
 C    2.819901    3.359261   -0.859777
 C    4.204333    3.339125   -1.451063
 O    4.616293    2.541062   -2.269053
 O    4.964864    4.339387   -0.990198
 N    3.644450    0.261142   -0.751919
 C    4.530961   -0.625320   -0.003762
 C    3.987527   -2.044505    0.217514
 O    4.701315   -2.890279    0.741487
 C    5.014713   -0.050463    1.339429
 C    5.614368    1.358309    1.262289
 C    6.062830    1.798768    2.658076
 C    6.771185    1.459034    0.264974
 N    2.723735   -2.289621   -0.184512
 C    2.108278   -3.586432   -0.031777
 C    0.829217   -3.577629   -0.851557
 O    0.503823   -2.618437   -1.535610
 O    0.124679   -4.675189   -0.715730
 C    1.826327   -3.976416    1.439877
 C    0.671762   -3.243558    2.080768
 C   -0.470507   -3.943138    2.479721
 C    0.709398   -1.861277    2.283791
 C   -1.542097   -3.292041    3.082725
 C   -0.361286   -1.190847    2.864591
 C   -1.473894   -1.916091    3.267077
Cl   -2.840132   -1.078818    3.980391
 H   -2.343104   -1.713382   -5.466999
 H   -0.887868   -0.813525   -5.032891
 H   -1.121255   -2.454198   -4.386741
 H   -1.105698   -1.862477   -2.169778
 H   -3.641193   -0.653025   -1.305517
 H   -2.800867   -1.499413    0.972148
 H   -1.440720   -2.209715    0.149490
 H   -4.414877   -2.901296   -0.120623
 H   -3.107319   -3.931243    0.464331
 H   -4.927066   -2.931771   -2.342786
 H   -4.041377   -3.892611   -3.472458
 H   -2.706062    1.289385   -2.277097
 H   -2.146262    3.455940   -2.059010
 H   -1.548240    2.952760    0.898012
 H   -1.426274    4.495709    0.059719
 H   -3.900058    4.290299   -0.526518
 H   -3.033175    4.482694    2.392849
 H   -2.999704    5.792637    1.214490
 H   -5.469146    5.718033    1.006630
 H   -5.003511    5.958136    2.688280
 H   -6.823434    4.237582    2.465998
 H   -5.358259    3.545190    3.161205
 H   -6.229806    3.344376    0.234567
 H   -6.253004    2.032462    1.409600
 H   -4.276592    1.888264   -0.085207
 H   -3.782021    2.090505    1.591501
 H    0.258558    1.666575   -0.010460
 H    2.138505    1.798463   -2.159949
 H    2.270720    4.166971   -1.357209
 H    2.870825    3.600299    0.206296
 H    5.825535    4.262393   -1.433875
 H    4.014333    0.649856   -1.611474
 H    5.405394   -0.766847   -0.646450
 H    5.761558   -0.753830    1.723599
 H    4.180601   -0.045468    2.046935
 H    4.824709    2.051372    0.940243
 H    6.439662    2.827252    2.643994
 H    6.866564    1.150852    3.028656
 H    5.235592    1.750569    3.374151
 H    7.234497    2.451064    0.314853
 H    6.443769    1.302263   -0.768280
 H    7.547867    0.718952    0.494175
 H    2.182295   -1.581851   -0.659963
 H    2.779019   -4.350658   -0.445045
 H   -0.751909   -4.579769   -1.193148
 H    2.757664   -3.802047    1.986272
 H    1.634801   -5.052714    1.464562
 H   -0.523926   -5.016779    2.320784
 H    1.569227   -1.280544    1.968070
 H   -2.420177   -3.843925    3.401904
 H   -0.332846   -0.114186    2.976521
