103 
3q4l_ligand_dft.xyz
 C    1.806571   -2.280109   -2.490137
 O    3.010169   -2.508017   -2.632445
 C    0.774516   -3.381275   -2.568593
 N    1.322419   -1.051721   -2.213694
 C    2.172841    0.125389   -2.152146
 C    2.844484    0.221046   -0.763679
 O    2.535709    1.072965    0.069570
 C    1.389944    1.385012   -2.522389
 C    0.190108    1.742453   -1.621242
 C   -1.151716    1.172343   -2.023108
 O   -1.345456   -0.037670   -2.220241
 N   -2.163242    2.051571   -2.126014
 N    3.778556   -0.734767   -0.561793
 C    4.374326   -1.087398    0.727433
 C    3.356088   -1.890366    1.555421
 O    3.547736   -3.059521    1.842796
 C    5.004664    0.065128    1.522532
 C    6.176772    0.803695    0.851487
 C    5.760899    1.840564   -0.203069
 C    6.974875    2.639451   -0.687129
 C    8.056586    1.712388   -1.249935
 C    8.458428    0.641643   -0.230710
 C    7.237551   -0.138582    0.267073
 N    2.218548   -1.211190    1.904258
 C    1.021400   -1.945117    2.230190
 C   -0.002737   -1.715617    1.110929
 O   -0.115022   -0.618740    0.577216
 C    0.412795   -1.504694    3.584544
 C   -0.924891   -2.194916    3.712856
 O   -1.949530   -1.358950    3.495189
 O   -1.056873   -3.389811    3.851296
 N   -0.776466   -2.775775    0.770667
 C   -1.879337   -2.613908   -0.160059
 C   -3.048642   -1.884644    0.507394
 O   -3.567381   -2.306118    1.543427
 C   -2.365660   -3.985398   -0.639847
 C   -3.534181   -3.940200   -1.635980
 C   -3.180384   -3.195364   -2.926493
 C   -3.994097   -5.366891   -1.946586
 N   -3.515612   -0.804817   -0.148452
 O   -4.846595    0.831723   -1.896215
Cl   -0.323184    5.086830    0.476224
 C   -1.121228    2.634331    1.292714
 C   -2.879777    4.104895    0.548579
Cl   -3.437594    5.625709   -0.090819
 C   -2.058566    1.642749    1.543521
 C   -3.814502    3.106430    0.806542
 C   -4.426191    0.782234    1.562189
 C   -5.327861    0.652973   -0.800110
 C   -1.524960    3.870510    0.794083
 C   -3.414599    1.868113    1.305163
 C   -4.693729   -0.124479    0.332825
 O   -6.518296    1.151288   -0.446814
 H   -0.217843   -3.002916   -2.827479
 H    1.096656   -4.119962   -3.304193
 H    0.718678   -3.872991   -1.591400
 H    0.318106   -0.895219   -2.109635
 H    2.970131   -0.014492   -2.892345
 H    1.073825    1.290957   -3.567162
 H    2.094964    2.219946   -2.477122
 H    0.383497    1.375112   -0.611365
 H    0.116911    2.831401   -1.552777
 H   -3.102390    1.698559   -2.272425
 H   -2.047990    3.017247   -1.863287
 H    3.838120   -1.444518   -1.294559
 H    5.153512   -1.816783    0.499413
 H    4.236660    0.788268    1.806633
 H    5.375898   -0.393470    2.448691
 H    6.663682    1.367260    1.663472
 H    4.993678    2.507542    0.205462
 H    5.309977    1.327366   -1.061406
 H    7.391054    3.212957    0.153540
 H    6.669118    3.369515   -1.445679
 H    7.670343    1.220132   -2.153818
 H    8.935333    2.291764   -1.556984
 H    9.191971   -0.044975   -0.669035
 H    8.949593    1.124386    0.626104
 H    6.804782   -0.693228   -0.577837
 H    7.540662   -0.882194    1.015642
 H    2.077247   -0.288589    1.496293
 H    1.293881   -3.000901    2.298802
 H    0.294793   -0.418832    3.605859
 H    1.086042   -1.820680    4.383742
 H   -2.719154   -1.895775    3.208107
 H   -0.775463   -3.588790    1.373600
 H   -1.509963   -2.013563   -0.993117
 H   -1.517566   -4.510331   -1.097019
 H   -2.672266   -4.561792    0.242757
 H   -4.372955   -3.417772   -1.154669
 H   -4.035116   -3.188758   -3.611304
 H   -2.890713   -2.153763   -2.754667
 H   -2.351250   -3.696550   -3.442001
 H   -4.849152   -5.362699   -2.630752
 H   -3.188036   -5.937958   -2.423796
 H   -4.290417   -5.898199   -1.035736
 H   -3.009874   -0.454147   -0.960564
 H   -0.066915    2.449409    1.468483
 H   -1.727276    0.683567    1.925271
 H   -4.865225    3.311564    0.623624
 H   -4.072909    0.122119    2.357264
 H   -5.380876    1.207886    1.885215
 H   -5.414922   -0.884279    0.654977
 H   -6.861444    1.639371   -1.213301
