25 
3q6k_ligand_xtb.xyz
 O    2.776655   -2.136752   -0.173450
 C    2.102679   -0.965170   -0.088927
 C    2.773976    0.163984    0.248219
 C    2.121606    1.420264    0.353486
 C    0.785481    1.508780    0.119295
 N   -0.032246    2.614640    0.197322
 C   -1.228630    2.180092   -0.079689
 C   -1.283996    0.767171   -0.365976
 C    0.002648    0.338201   -0.242337
 C    0.641690   -0.991099   -0.388677
 C   -2.520962   -0.007698   -0.677333
 C   -2.945732   -0.911876    0.489281
 N   -2.108323   -2.105485    0.554678
 H    2.174005   -2.856466   -0.399476
 H    3.832346    0.097195    0.445423
 H    2.693208    2.292864    0.628418
 H   -2.071426    2.850319   -0.084993
 H    0.494979   -1.363629   -1.412011
 H   -2.363362   -0.629570   -1.564051
 H   -3.333061    0.690050   -0.890564
 H   -4.015414   -1.158893    0.379261
 H   -2.821393   -0.367761    1.429152
 H   -2.348047   -2.649579    1.377401
 H   -2.286572   -2.688443   -0.258617
 H    0.122921   -1.702042    0.269608
