57 
3q92_ligand_xtb.xyz
 C   -5.857840   -3.189112    0.955993
 S   -4.223547   -2.404826    0.979941
 C   -4.504130   -0.841209    0.195320
 C   -5.759966   -0.261861    0.099145
 C   -5.920170    0.970078   -0.510890
 C   -4.824121    1.636654   -1.030031
 C   -3.564759    1.072490   -0.937650
 C   -3.387749   -0.161993   -0.324354
 N   -2.144977   -0.776283   -0.244074
 C   -0.912299   -0.270866   -0.355350
 N   -0.661232    1.027446   -0.460228
 C    0.620246    1.404413   -0.543777
 N    1.694500    0.649887   -0.523042
 C    1.461759   -0.685351   -0.423661
 C    2.525616   -1.648535   -0.418379
 N    2.249824   -2.938275   -0.272190
 C    0.978912   -3.303219   -0.154455
 N   -0.076575   -2.530568   -0.177093
 C    0.173337   -1.212195   -0.315841
 N    3.789628   -1.246406   -0.577547
 C    4.934667   -2.126084   -0.546126
 C    5.861289   -1.772379    0.594373
 C    6.861758   -0.667415    0.416467
 C    7.320638   -2.091424    0.486059
 N    0.815957    2.769959   -0.696686
 C   -0.246033    3.675626   -0.359667
 C   -0.114225    4.133745    1.096765
 N    1.238872    4.732279    1.286558
 C    2.315111    3.755810    0.953303
 C    2.131152    3.309544   -0.501829
 H   -6.507581   -2.736415    1.699465
 H   -6.281559   -3.115850   -0.040765
 H   -5.681955   -4.230092    1.210164
 H   -6.623192   -0.764034    0.504266
 H   -6.905286    1.404366   -0.578789
 H   -4.950510    2.591546   -1.516521
 H   -2.704913    1.565166   -1.360193
 H   -2.142686   -1.783447   -0.082999
 H    0.804307   -4.363640   -0.031115
 H    3.941634   -0.253631   -0.667597
 H    5.472454   -2.052967   -1.497392
 H    4.545135   -3.139538   -0.431854
 H    5.401360   -1.873490    1.569707
 H    7.073047   -0.018433    1.252586
 H    6.907467   -0.169906   -0.541144
 H    7.669746   -2.557775   -0.421817
 H    7.840000   -2.423716    1.370565
 H   -1.189534    3.143208   -0.489304
 H   -0.216250    4.537944   -1.034397
 H   -0.208629    3.272405    1.759880
 H   -0.877785    4.869602    1.349457
 H    1.348223    5.071457    2.248526
 H    1.325876    5.535401    0.649316
 H    2.217028    2.892888    1.613915
 H    3.289680    4.220417    1.105230
 H    2.281497    4.156352   -1.180315
 H    2.848019    2.522817   -0.740290
