57 
3q92_ligand_dft.xyz
 C   -2.927100   -2.824318    2.151214
 S   -3.939911   -3.132047    0.668672
 C   -4.357392   -1.462647    0.196114
 C   -5.674231   -1.024737    0.328654
 C   -6.048138    0.250562   -0.082028
 C   -5.096499    1.096114   -0.640839
 C   -3.779195    0.677283   -0.790314
 C   -3.399767   -0.598485   -0.369100
 N   -2.091160   -1.086394   -0.534687
 C   -0.920629   -0.431331   -0.504507
 N   -0.834916    0.883328   -0.359489
 C    0.401493    1.417691   -0.332973
 N    1.558010    0.811534   -0.464300
 C    1.471084   -0.544486   -0.607159
 C    2.653196   -1.358164   -0.740818
 N    2.551794   -2.679649   -0.836239
 C    1.318644   -3.215143   -0.827948
 N    0.167681   -2.583990   -0.729664
 C    0.274050   -1.237130   -0.621576
 N    3.855514   -0.762081   -0.780535
 C    5.115767   -1.490256   -0.758889
 C    5.576914   -1.817371    0.641998
 C    6.281467   -0.766706    1.460127
 C    7.046600   -1.948261    0.925468
 N    0.427037    2.801859   -0.105852
 C   -0.783397    3.578152   -0.223078
 C   -0.751990    4.719997    0.779810
 N    0.509820    5.527924    0.571771
 C    1.757959    4.677599    0.647767
 C    1.642126    3.537163   -0.350687
 H   -2.003971   -2.295080    1.902512
 H   -3.495783   -2.262417    2.894620
 H   -2.671669   -3.804395    2.560362
 H   -6.405942   -1.698880    0.761746
 H   -7.077200    0.575987    0.028702
 H   -5.382799    2.086112   -0.983085
 H   -3.044737    1.319842   -1.257457
 H   -1.990493   -2.101081   -0.588821
 H    1.278195   -4.298130   -0.909387
 H    3.856328    0.225024   -0.569299
 H    5.862746   -0.874133   -1.271726
 H    4.977006   -2.403736   -1.340649
 H    4.912532   -2.491891    1.176365
 H    6.081973   -0.721715    2.526046
 H    6.467386    0.201019    0.999135
 H    7.740501   -1.774476    0.107451
 H    7.366601   -2.714552    1.623524
 H   -1.637636    2.935827   -0.004890
 H   -0.918659    3.978300   -1.243927
 H   -0.712633    4.343829    1.803886
 H   -1.598104    5.400185    0.663550
 H    0.558785    6.287915    1.255819
 H    0.468586    5.971931   -0.352303
 H    1.813540    4.301789    1.671253
 H    2.609792    5.328731    0.441340
 H    1.681875    3.932796   -1.381167
 H    2.490126    2.863067   -0.226786
