56 
3qa2_ligand_dft.xyz
 C   -3.657922   -3.353429    1.522071
 C   -4.259989   -2.202449    0.757756
 C   -5.614138   -1.888827    0.874561
 C   -6.178526   -0.828067    0.174151
 C   -5.385892   -0.063349   -0.675456
 C   -4.035962   -0.360066   -0.819130
 C   -3.475793   -1.414861   -0.098471
 N   -2.106431   -1.748381   -0.242836
 C   -1.054327   -0.919580   -0.304012
 N   -1.185946    0.397349   -0.254358
 C   -0.057730    1.129182   -0.307410
 N    1.182158    0.715115   -0.432105
 C    1.318287   -0.643739   -0.483555
 C    2.615553   -1.259116   -0.609879
 N    2.732870   -2.582742   -0.625523
 C    1.606844   -3.312510   -0.545677
 N    0.369326   -2.875114   -0.444038
 C    0.253778   -1.524145   -0.414732
 N    3.700594   -0.477153   -0.726002
 C    5.064817   -0.983905   -0.706992
 C    5.618732   -1.113596    0.692474
 C    6.165169    0.102405    1.394291
 C    7.098072   -0.979490    0.918323
 N   -0.265359    2.509958   -0.181321
 C   -1.587952    3.063879   -0.341944
 C   -1.764338    4.235169    0.610015
 N   -0.653942    5.235361    0.371356
 C    0.720147    4.614458    0.487692
 C    0.811021    3.426105   -0.457277
 H   -4.372772   -3.756434    2.243237
 H   -3.370890   -4.177743    0.856526
 H   -2.759663   -3.047329    2.069513
 H   -6.235445   -2.489523    1.533029
 H   -7.235184   -0.606808    0.285628
 H   -5.821538    0.752490   -1.244294
 H   -3.413272    0.209740   -1.498422
 H   -1.837465   -2.728058   -0.238679
 H    1.746218   -4.390237   -0.565546
 H    3.541794    0.508528   -0.576564
 H    5.681991   -0.298624   -1.298806
 H    5.060880   -1.952865   -1.210145
 H    5.092773   -1.839907    1.307171
 H    5.995190    0.203448    2.461475
 H    6.173253    1.045380    0.851786
 H    7.727012   -0.764118    0.058747
 H    7.562803   -1.622447    1.658275
 H   -2.325433    2.294745   -0.106955
 H   -1.769124    3.394857   -1.380295
 H   -1.674572    3.914898    1.649759
 H   -2.711318    4.757378    0.459522
 H   -0.741159    6.021087    1.021616
 H   -0.760592    5.626102   -0.571307
 H    0.829234    4.299593    1.527293
 H    1.450135    5.392061    0.253663
 H    0.795175    3.775261   -1.504948
 H    1.759989    2.913367   -0.298264
