58 
3qai_ligand_xtb.xyz
 C   -6.279073   -3.053114    0.537547
 S   -4.567714   -2.477907    0.705572
 C   -4.646895   -0.778802    0.204207
 C   -5.835802   -0.067791    0.163260
 C   -5.848787    1.261876   -0.221249
 C   -4.667377    1.895024   -0.563242
 C   -3.471825    1.200965   -0.522224
 C   -3.443074   -0.136086   -0.140297
 N   -2.267145   -0.869312   -0.108494
 C   -0.990049   -0.488454   -0.256922
 N   -0.610980    0.773849   -0.391737
 C    0.701901    1.012319   -0.511452
 N    1.698621    0.158995   -0.492482
 C    1.329653   -1.140703   -0.365684
 C    2.293435   -2.204088   -0.358390
 N    1.896155   -3.460431   -0.203877
 C    0.594603   -3.695535   -0.075518
 N   -0.379640   -2.823339   -0.088316
 C   -0.004426   -1.534327   -0.235202
 N    3.587413   -1.918282   -0.529159
 C    4.650741   -2.892942   -0.482060
 C    5.603800   -2.606353    0.655948
 C    6.707516   -1.608283    0.460183
 C    7.025736   -3.068151    0.564596
 N    1.015895    2.336987   -0.706560
 C    2.253659    2.965629   -0.276042
 C    1.457672    4.216880    0.113159
 C    1.750701    5.581794   -0.529878
 N    1.816736    6.227162    0.818755
 C    1.622378    4.898930    1.480298
 C    0.186096    3.438438   -0.245663
 H   -6.897977   -2.642677    1.330413
 H   -6.659621   -2.785888   -0.443522
 H   -6.229554   -4.133432    0.635772
 H   -6.763984   -0.542516    0.436451
 H   -6.785212    1.797277   -0.248790
 H   -4.676409    2.930853   -0.867521
 H   -2.542319    1.672719   -0.792973
 H   -2.357687   -1.876376    0.019334
 H    0.316447   -4.733540    0.050096
 H    3.819224   -0.940061   -0.617506
 H    5.195246   -2.881749   -1.432614
 H    4.173750   -3.866935   -0.354532
 H    5.132148   -2.639571    1.630274
 H    6.976521   -0.963354    1.282848
 H    6.804384   -1.139590   -0.507994
 H    7.332289   -3.586996   -0.330254
 H    7.506611   -3.428903    1.459934
 H    2.970647    3.094175   -1.089599
 H    2.741201    2.449160    0.556273
 H    0.957258    5.982478   -1.158709
 H    2.698623    5.635230   -1.063385
 H    1.060641    6.894134    0.997045
 H    2.702184    6.694673    1.033735
 H    2.500958    4.581771    2.040756
 H    0.747009    4.867030    2.127427
 H   -0.456566    3.176553    0.600103
 H   -0.425262    3.869304   -1.041385
