36 
3qar_ligand_xtb.xyz
 N   -3.061495   -2.593808   -0.002110
 N   -0.860173   -1.795898   -0.020122
 C   -0.751944    1.854259   -0.003759
 C    0.500217    2.503115   -0.005431
 C    0.936653    0.407312   -0.003183
 C   -1.933948    2.564632   -0.006838
 C   -1.840795    3.948136   -0.011181
 C    0.577551    3.886099   -0.009593
 C    3.686223   -2.100317    0.014564
 C    5.008066   -1.633746    0.019311
 N    5.056112   -0.316484    0.014127
 N    3.786704    0.091736    0.005966
 C    2.924461   -0.945892    0.006023
 N    1.556123   -0.786376   -0.000679
 N    1.517401    1.571770   -0.004059
 C   -0.610420    4.594952   -0.012419
 N   -0.465958    0.485325   -0.002628
 C   -1.353176   -0.552081    0.000026
 N   -2.645490   -0.262055    0.021647
 C   -1.757286   -2.777266   -0.022550
 C   -1.239434   -4.173615   -0.047839
 C   -3.462984   -1.315614    0.021958
 N   -4.779409   -1.082648    0.046092
 H   -2.884169    2.058902   -0.006223
 H   -2.747209    4.534920   -0.013930
 H    1.535027    4.381048   -0.010963
 H    3.341885   -3.113365    0.017063
 H    5.912408   -2.208833    0.026369
 H    0.931526   -1.596455   -0.005530
 H   -0.582825    5.674605   -0.015903
 H   -2.069795   -4.868532   -0.116796
 H   -0.570463   -4.301931   -0.896015
 H   -0.671397   -4.366780    0.860250
 H   -5.411623   -1.861856    0.049878
 H   -5.115516   -0.137463    0.068261
 H    3.506326    1.064966    0.001353
