42 
3qc9_ligand_dft.xyz
 P   -2.940555    0.217888   -0.681996
 O   -2.421095   -0.718469   -1.698126
 O   -4.414853   -0.028564   -0.144293
 O   -2.942905    1.757047   -0.987876
 P   -1.715405   -1.297596    1.345844
 O   -1.185390   -0.897980    2.794954
 O   -2.888187   -2.189428    1.246622
 O   -2.009351    0.148699    0.687399
 O   -0.346198   -1.791000    0.726857
 C   -0.269459   -2.818300   -0.282030
 C    1.137435   -2.818186   -0.854376
 O    1.334052   -1.692558   -1.720576
 C    2.272714   -2.742326    0.170438
 O    3.411695   -3.344739   -0.391205
 C    2.490695   -1.233063    0.311183
 O    3.810790   -0.962103    0.684835
 C    2.142075   -0.735288   -1.111133
 N    1.404439    0.529601   -1.058646
 C    0.220970    0.816711   -1.666816
 N   -0.254764    1.999195   -1.339998
 C    0.680872    2.516846   -0.463891
 C    0.764828    3.713146    0.273086
 N   -0.168012    4.682800    0.199060
 N    1.823912    3.901521    1.075373
 C    2.752421    2.944544    1.149935
 N    2.788059    1.772264    0.517149
 C    1.720029    1.614311   -0.280156
 H   -4.473739   -0.942044    0.191758
 H   -2.013985    2.030288   -1.255598
 H   -1.892375   -0.540620    3.349532
 H   -0.994548   -2.609575   -1.072445
 H   -0.489790   -3.782453    0.185043
 H    1.251678   -3.717621   -1.466267
 H    1.998639   -3.206140    1.127459
 H    4.174359   -2.870304   -0.026627
 H    1.773288   -0.822412    1.027744
 H    3.858339    0.006895    0.794102
 H    3.055678   -0.581832   -1.695010
 H   -0.279442    0.099097   -2.299742
 H   -0.096267    5.462488    0.833373
 H   -1.035310    4.523759   -0.286847
 H    3.583484    3.150800    1.819074
