33 
3qch_ligand_dft.xyz
 C    1.177630    1.694691   -0.057377
 C    1.087629    3.112859    0.113287
 C    2.298482    3.701940    0.319548
 S    3.585802    2.574004    0.305151
 C    2.485818    1.254526    0.033894
 S   -0.177538    0.609987   -0.349574
 C   -1.591506    1.764603   -0.169553
 C   -2.861159    0.968731   -0.321686
 C   -3.500671    0.445658    0.799161
 C   -4.558646   -0.031263   -1.721687
 C   -3.398709    0.717118   -1.584563
 C   -4.665924   -0.303908    0.669932
 C   -5.200659   -0.544322   -0.597361
Cl   -6.654036   -1.470693   -0.808147
Cl   -5.424821   -0.920276    2.105873
 C    2.905069   -0.145100   -0.085247
 N    4.211449   -0.440044    0.283012
 O    2.135510   -1.016268   -0.453308
 S    5.009037   -1.892316   -0.098791
 C    4.064129   -3.101386    0.801667
 O    4.883983   -2.163982   -1.513569
 O    6.308520   -1.708436    0.523563
 H    0.166248    3.678386    0.079419
 H    2.499554    4.754728    0.463982
 H   -1.537913    2.537794   -0.941648
 H   -1.555111    2.243659    0.813034
 H   -3.094961    0.616385    1.791301
 H   -4.978219   -0.224901   -2.702511
 H   -2.905603    1.106719   -2.470373
 H    4.839101    0.254758    0.669605
 H    3.035531   -3.054344    0.442202
 H    4.511755   -4.073240    0.584050
 H    4.130225   -2.875371    1.866353
