42 
3qci_ligand_dft.xyz
 S   -2.395201    3.656582   -0.965244
 C   -1.499587    2.370491   -0.212422
 C   -0.137219    2.543423   -0.365762
 C    0.162083    3.723441   -1.118914
 C   -0.952475    4.404509   -1.505403
 C   -2.123480    1.244988    0.496850
 N   -3.485737    1.075393    0.293869
 O   -1.473770    0.498825    1.205355
 S   -4.450145   -0.087074    1.072668
 S    1.047789    1.423126    0.300643
 C    2.589384    2.053532   -0.468081
 C    3.708950    1.118638   -0.092706
 C    4.433746    1.307195    1.084388
 C    5.451231    0.431589    1.435340
 C    5.759836   -0.650870    0.615813
 C    5.034559   -0.852228   -0.560461
 C    4.014243    0.028788   -0.904354
Cl    5.377155   -2.186941   -1.618716
Cl    7.044694   -1.721336    1.084498
 O   -5.755820    0.169262    0.486599
 O   -4.218573   -0.003987    2.496078
 C   -3.843466   -1.645753    0.470931
 C   -2.786559   -2.265652    1.126903
 C   -2.342700   -3.481894    0.616933
 C   -2.940681   -4.052126   -0.498900
 C   -4.014193   -3.420929   -1.143810
 C   -4.465798   -2.195318   -0.643942
 N   -4.585942   -3.973950   -2.285796
 H    1.160876    4.061794   -1.359840
 H   -0.995290    5.327740   -2.067040
 H   -3.985538    1.574918   -0.431357
 H    2.803472    3.061927   -0.101893
 H    2.469840    2.091203   -1.554710
 H    4.200295    2.144448    1.735588
 H    6.016424    0.579340    2.348756
 H    3.454741   -0.147596   -1.817585
 H   -2.325741   -1.802906    1.989641
 H   -1.516592   -3.994787    1.099058
 H   -2.574651   -5.001296   -0.882024
 H   -5.302171   -1.680349   -1.106180
 H   -4.485528   -4.975167   -2.374138
 H   -5.530853   -3.674555   -2.480824
