35 
3qcq_ligand_xtb.xyz
 C   -2.336018   -1.458861   -0.773800
 C   -1.005852   -1.117854   -0.766593
 C   -1.443173    0.973973    0.383675
 C    1.880052   -0.520357   -0.223446
 C   -3.247780   -0.581801   -0.187717
 C   -0.550755    0.085958   -0.191301
 C   -2.788990    0.630337    0.385239
 C    0.877156    0.437477   -0.203766
 C    3.203489   -0.057190   -0.249269
 C   -4.663926   -0.549933    0.015005
 C    2.441540    2.082351   -0.193213
 C    4.271898   -2.586837    1.432646
 C    4.303454   -2.278414   -0.065609
 N    1.157690    1.744007   -0.180945
 N    3.478174    1.249369   -0.238159
 N   -5.018356    0.549439    0.644016
 N   -3.885874    1.262202    0.866999
 N   -5.579621   -1.468891   -0.438307
 N    2.726463    3.409381   -0.104589
 N    4.291830   -0.865516   -0.347603
 H   -2.670210   -2.379148   -1.230638
 H   -0.291088   -1.774701   -1.238673
 H   -1.084092    1.896636    0.809658
 H    1.650676   -1.570720   -0.202047
 H    5.136832   -2.150039    1.926920
 H    3.372953   -2.171672    1.882407
 H    4.282456   -3.661247    1.596094
 H    3.445606   -2.741652   -0.558797
 H    5.210513   -2.696426   -0.510819
 H   -5.246958   -2.419542   -0.477511
 H   -6.492806   -1.366931   -0.022878
 H    1.972325    4.043187   -0.302633
 H    3.661146    3.688735   -0.345111
 H    5.161967   -0.369904   -0.219916
 H   -3.948045    2.160397    1.312957
