24 
3qfy_ligand_xtb.xyz
 O   -2.114828   -1.006883   -0.532566
 C   -0.913556   -0.369004   -0.887388
 C   -0.988851    1.027045   -0.222462
 O   -0.031464    1.923151   -0.749131
 C   -0.800727    0.914669    1.295284
 N    0.391820    0.107610    1.621113
 C    0.259451   -1.278611    1.119963
 C    0.293686   -1.210690   -0.407073
 C    1.671825   -0.726763   -0.899167
 O    2.130545    0.451351   -0.257498
 H   -2.296954   -1.747482   -1.120865
 H   -0.843755   -0.225343   -1.975357
 H   -2.004321    1.399687   -0.393025
 H   -0.409891    2.444533   -1.463491
 H   -0.684331    1.917285    1.709484
 H   -1.687301    0.439791    1.719330
 H    1.238193    0.479260    1.064742
 H    0.571635    0.129072    2.626093
 H    1.088773   -1.880115    1.494472
 H   -0.686516   -1.708629    1.458172
 H    0.155923   -2.221458   -0.802555
 H    2.413117   -1.495379   -0.665040
 H    1.654295   -0.593338   -1.983846
 H    1.743391    1.228015   -0.697285
