30 
3qi4_ligand_xtb.xyz
 N   -0.364439    2.252800   -0.371801
 C    0.629886    3.054407   -0.074244
 N    1.776285    2.398878    0.193277
 C    1.497937    1.060327    0.055177
 C    0.158281    1.004725   -0.296537
 N   -0.473804   -0.174143   -0.529769
 C    0.232138   -1.354569   -0.416617
 N    1.572430   -1.263155   -0.055630
 C    2.311491   -0.108535    0.207809
 O    3.485287   -0.139212    0.522450
 O   -0.280702   -2.431054   -0.627194
 C    2.263449   -2.538093    0.049666
 C   -1.888411   -0.198063   -0.850042
 C   -2.758921    0.140225    0.366633
 C   -2.532630   -0.866638    1.490730
 C   -4.224650    0.158038   -0.055893
 H    0.540590    4.121746   -0.045846
 H    1.742206   -3.181519    0.757423
 H    2.280967   -3.031980   -0.921569
 H    3.276119   -2.335483    0.389943
 H   -2.113910   -1.203763   -1.210636
 H   -2.063476    0.533567   -1.642188
 H   -2.476906    1.139549    0.713672
 H   -2.735755   -1.876274    1.140867
 H   -1.504632   -0.830651    1.845704
 H   -3.188889   -0.650253    2.330316
 H   -4.386914    0.882924   -0.849711
 H   -4.527717   -0.823107   -0.414565
 H   -4.856623    0.425615    0.787166
 H    2.673543    2.780151    0.444761
