42 
3qip_ligand_xtb.xyz
 C    5.532571   -1.451139    0.070626
 C    5.995487   -0.134570    0.154109
 C    5.132886    0.935318    0.051297
 C    3.785421    0.657943   -0.138251
 C    3.300852   -0.669899   -0.228668
 C    4.198972   -1.732435   -0.119377
 N    2.715761    1.494283   -0.258651
 C    1.572976    0.752988   -0.456751
 C    1.891626   -0.584541   -0.433503
 C    0.273321    1.404075   -0.595545
 C    0.947826   -1.748162   -0.504652
 C   -0.358777   -1.391631    0.124225
 C   -0.119484    2.380713    0.318865
 C   -1.371488    2.960290    0.230730
 C   -2.243494    2.582758   -0.777698
 C   -1.851493    1.632418   -1.706348
 C   -0.602238    1.046679   -1.618652
 N   -1.452701   -1.517304   -0.589795
 C   -2.612621   -1.083186   -0.098322
 C   -2.672698   -0.510705    1.170875
 C   -1.454321   -0.481163    1.879469
 N   -0.326911   -0.911056    1.371567
 C   -3.787351   -1.216847   -1.034191
 O   -3.806141   -0.001479    1.731886
 O   -1.458880    0.026392    3.127243
 O   -3.685821   -1.702369   -2.122845
 O   -4.954593   -0.745118   -0.584503
 H    6.243431   -2.259887    0.156048
 H    7.050209    0.043872    0.302054
 H    5.489052    1.953248    0.114564
 H    3.853658   -2.753254   -0.187742
 H    1.393905   -2.584993    0.036907
 H    0.758857   -2.060428   -1.533626
 H    0.552382    2.663158    1.117978
 H   -1.670583    3.705033    0.954623
 H   -3.224334    3.030335   -0.840712
 H   -2.523570    1.336738   -2.497656
 H   -0.303397    0.303861   -2.341041
 H   -3.584337    0.338982    2.610816
 H   -0.555483   -0.016732    3.470181
 H   -4.889562   -0.373552    0.311080
 H    2.752370    2.499313   -0.279006
