42 
3qip_ligand_dft.xyz
 C    3.012900   74.809350   38.120179
 C    3.743843   75.811008   37.454466
 C    3.523891   76.090923   36.116174
 C    2.551340   75.339130   35.453468
 C    1.815491   74.320676   36.097072
 C    2.054008   74.064914   37.455214
 N    2.105136   75.399778   34.156215
 C    1.145386   74.421948   33.945231
 C    0.922546   73.748999   35.123634
 C    0.515548   74.308402   32.617887
 C   -0.076691   72.666935   35.443819
 C   -1.279438   72.646510   34.537562
 C    0.007642   75.449603   31.983927
 C   -0.627815   75.349474   30.751292
 C   -0.772463   74.106116   30.139166
 C   -0.261965   72.967837   30.757023
 C    0.391330   73.070541   31.981144
 N   -1.501895   71.556754   33.824817
 C   -2.517562   71.581376   32.944511
 C   -3.312229   72.698393   32.769591
 C   -2.995042   73.785722   33.606903
 N   -2.018674   73.771321   34.476883
 C   -2.643823   70.363908   32.075227
 O   -4.294673   72.776576   31.850559
 O   -3.755507   74.887811   33.466629
 O   -1.708545   69.826930   31.535703
 O   -3.909392   69.938506   31.963468
 H    3.209824   74.618220   39.170760
 H    4.493121   76.376135   38.000716
 H    4.084961   76.866805   35.603282
 H    1.500548   73.288510   37.976659
 H    0.383879   71.674539   35.405416
 H   -0.423903   72.821191   36.473698
 H    0.086807   76.413617   32.479882
 H   -1.024158   76.241502   30.274696
 H   -1.282742   74.024933   29.184007
 H   -0.379245   71.990095   30.300409
 H    0.785448   72.178863   32.456863
 H   -3.889035   69.172813   31.366493
 H    2.538625   75.921658   33.412109
 H   -4.662321   73.671294   31.884139
 H   -3.391155   75.560384   34.062110
