62 
3qiz_ligand_dft.xyz
 O    2.134435    0.261964    2.674921
 N    1.947734    1.321121    2.140339
 C    1.319912    1.129186    0.780197
 O    0.448279    1.928626    0.516295
 C    1.703950   -0.067570   -0.063946
 C    2.477376    0.417662   -1.304692
 C    3.834959    1.019856   -0.916219
 C    4.855422   -0.039995   -0.541599
 C    5.065201   -0.422628    0.784021
 C    5.969325   -1.431476    1.100411
 C    0.485392   -0.954413   -0.415151
 O    3.534126    1.908740    0.139499
 C    5.576419   -0.679858   -1.552462
 C    6.477848   -1.694091   -1.256507
 C    6.659194   -2.054902    0.071959
 F    7.527579   -3.025051    0.366485
 C   -0.430138   -0.502743   -1.552912
 C    4.547538    2.847577    0.466755
 C   -1.695854    1.367494   -2.546195
 N   -1.228468    0.743839   -1.278677
 C   -2.352700    0.484566   -0.312590
 C   -3.057049    1.754769    0.147069
 C   -4.009838    1.448355    1.317029
 C   -4.999390    0.352720    0.988436
 C   -6.020649    0.578345    0.058776
 C   -6.923249   -0.416047   -0.309733
 C   -8.036508   -0.186448   -1.294609
 C   -4.885446   -0.912699    1.561913
 C   -5.770322   -1.931340    1.217018
 C   -6.763471   -1.664915    0.292045
 F   -7.615661   -2.643440   -0.044403
 H    2.370210   -0.690760    0.539283
 H    1.894404    1.182814   -1.833774
 H    2.633299   -0.423434   -1.988541
 H    4.216237    1.590275   -1.776793
 H    4.533514    0.081054    1.585051
 H    6.147646   -1.731220    2.126912
 H    0.886091   -1.919262   -0.744879
 H   -0.088544   -1.173687    0.490974
 H    5.438493   -0.381367   -2.589399
 H    7.045908   -2.195748   -2.031817
 H    0.155037   -0.308207   -2.454237
 H   -1.153022   -1.288377   -1.788814
 H    4.180515    3.409082    1.326045
 H    5.484154    2.343666    0.727969
 H    4.721106    3.530061   -0.374111
 H   -0.832661    1.560558   -3.184363
 H   -2.197648    2.308301   -2.326483
 H   -2.384546    0.682740   -3.044980
 H   -0.589276    1.404813   -0.791735
 H   -1.910549   -0.024656    0.546769
 H   -3.045572   -0.208081   -0.798270
 H   -3.636919    2.185997   -0.675624
 H   -2.317077    2.499138    0.464430
 H   -3.420722    1.165710    2.197324
 H   -4.533416    2.374060    1.577518
 H   -6.132157    1.566555   -0.384909
 H   -9.012923   -0.306949   -0.814549
 H   -7.993448   -0.909049   -2.115471
 H   -7.985712    0.820622   -1.716066
 H   -4.111880   -1.107900    2.300605
 H   -5.704898   -2.918112    1.661754
