58 
3qk5_ligand_xtb.xyz
 N    4.581292   -2.797728   -0.329316
 N    0.957446    3.158972   -0.741772
 C    3.674067   -0.530219   -0.096717
 C    4.780508   -0.005153   -0.759936
 C    1.782060   -1.129806    0.964188
 C    2.470750   -0.038037    0.498629
 C    1.990438    1.375939    0.543547
 C    1.846555    4.177743   -0.230212
 C    0.470192   -1.218645    1.659707
 C   -2.346121    2.091189   -0.269587
 C   -2.208809    4.428434    0.026864
 C   -3.318673   -1.497636   -0.382145
 C   -4.620483   -1.075197   -0.042587
 C   -3.069554   -2.864523   -0.539776
 C   -5.382910   -3.323405   -0.030254
 C    2.116626   -3.637877    0.985568
 C   -2.424424   -0.402421   -0.505489
 C   -4.099200   -3.759880   -0.362474
 C   -5.655621   -1.980769    0.132993
 S   -4.709732    0.654960    0.117461
 C   -3.008844    0.803827   -0.265930
 N   -1.037924    2.056857   -0.501710
 C   -3.004799    3.295096   -0.005728
 N   -0.906144    4.404930   -0.178615
 C   -0.364772    3.209188   -0.455295
 C    1.581546    1.862371   -0.856896
 C    2.367545    3.774800    1.155037
 C    2.994409    2.379374    1.122171
 C    5.755591   -0.889728   -1.182554
 C    5.618761   -2.256898   -0.943717
 C    3.653062   -1.941243    0.064944
 N    2.506392   -2.278948    0.714059
 C    0.992504   -4.034649    0.162659
 N    0.096935   -4.313801   -0.490048
 H    4.884038    1.052940   -0.949073
 H    1.088240    1.410147    1.162936
 H    2.680102    4.284272   -0.931345
 H    1.295141    5.116209   -0.177247
 H   -0.152810   -1.992576    1.212245
 H   -0.062426   -0.275273    1.590091
 H    0.607209   -1.461169    2.715379
 H   -2.626953    5.404644    0.240776
 H   -2.076956   -3.204226   -0.794501
 H   -6.173700   -4.046572    0.102154
 H    1.848642   -3.770136    2.041865
 H    2.979156   -4.269408    0.741526
 H   -1.385992   -0.497397   -0.764679
 H   -3.913827   -4.816698   -0.481535
 H   -6.645160   -1.636983    0.391885
 H   -4.065423    3.330529    0.178077
 H    0.870361    1.172838   -1.309967
 H    2.459478    1.955339   -1.501141
 H    1.529089    3.779489    1.855312
 H    3.098990    4.508481    1.497232
 H    3.894914    2.399802    0.507468
 H    3.285397    2.077039    2.130421
 H    6.630213   -0.529586   -1.701658
 H    6.379593   -2.954299   -1.265847
