77 
3qkk_ligand_xtb.xyz
 C    1.759289    2.559293   -2.508191
 C    1.815986    3.158963   -1.249286
 C    2.334470    2.477135   -0.165625
 C    2.823919    1.187448   -0.319789
 C    2.789472    0.580681   -1.579236
 C    2.249843    1.269378   -2.662215
 O    3.301192    0.564626    0.806519
 C    3.669741   -0.805330    0.713859
 C    4.300369   -1.147612   -0.634310
 C    3.353441   -0.764554   -1.763610
 C    2.386093   -1.645033    0.916445
 N    1.754692   -1.228990    2.182302
 C    2.625453   -1.575131    3.325721
 C    3.936999   -0.807707    3.213322
 C    4.626958   -1.087291    1.880031
 O    1.239624    3.176642   -3.588457
 O    3.104993   -1.494595   -2.689561
 C    0.350929   -1.675785    2.302097
 C   -0.517212   -0.671045    1.526506
 O   -0.037197    0.600479    1.892754
 C   -2.010836   -0.849994    1.838578
 N   -2.784587    0.041565    1.012860
 C   -3.570851    1.079840    1.660483
 C   -3.189572    2.459602    1.131810
 C   -2.334153   -1.541589   -1.129128
 C   -2.171488   -2.926359   -1.195078
 C   -1.054047   -3.424268   -1.864092
 C   -0.145269   -2.579155   -2.471271
 C   -0.352144   -1.212782   -2.434715
 C   -1.445867   -0.671991   -1.766478
 C   -1.626613    0.810595   -1.753923
 C   -3.143167   -3.900502   -0.612677
 S   -3.680714   -0.792689   -0.191586
 O   -4.360367    0.204586   -0.955794
 O   -4.476826   -1.778324    0.477016
 O   -1.805355    2.665155    1.370323
 C   -1.734000    5.127505    1.504481
 C   -1.276702    3.853484    0.803349
 H    1.454619    4.169533   -1.121453
 H    2.378151    2.937972    0.807950
 H    2.246631    0.804969   -3.635749
 H    5.220574   -0.571858   -0.761849
 H    4.545091   -2.207610   -0.693896
 H    2.622526   -2.709540    0.958248
 H    1.693374   -1.468029    0.090886
 H    1.675267   -0.187186    2.138460
 H    2.115755   -1.309351    4.253077
 H    2.798647   -2.654146    3.314989
 H    3.739834    0.262012    3.295577
 H    4.591928   -1.093600    4.035308
 H    5.503671   -0.448016    1.784874
 H    4.955472   -2.125470    1.827822
 H    0.988039    4.086547   -3.387331
 H    0.066754   -1.647486    3.355786
 H    0.236375   -2.690599    1.922284
 H   -0.382051   -0.818473    0.443893
 H   -0.719346    1.280263    1.698897
 H   -2.183028   -0.649375    2.900573
 H   -2.306322   -1.883755    1.632551
 H   -4.631719    0.911430    1.457293
 H   -3.411123    1.048222    2.740817
 H   -3.787369    3.216314    1.652035
 H   -3.399375    2.512487    0.057278
 H   -0.913092   -4.492855   -1.922063
 H    0.715555   -2.975279   -2.987381
 H    0.337665   -0.554843   -2.938408
 H   -1.441255    1.208374   -0.758181
 H   -2.649236    1.059491   -2.023820
 H   -0.940319    1.276931   -2.456522
 H   -3.234182   -3.788675    0.465493
 H   -2.835507   -4.918372   -0.839504
 H   -4.136852   -3.732484   -1.021077
 H   -2.790342    5.314797    1.333541
 H   -1.170885    5.972871    1.119882
 H   -1.559266    5.047866    2.574374
 H   -1.534721    3.895360   -0.264254
 H   -0.193988    3.741215    0.904080
