35 
3qkv_ligand_xtb.xyz
 N    3.996026   -0.295020    0.013599
 C   -0.652312    1.178507   -0.077314
 C    2.058963    0.502580    1.328974
 C    2.870647    1.749207   -0.699922
 C    4.214320    1.133031   -0.300291
 C    0.399992   -0.997572   -0.691574
 C   -1.755203    1.976180    0.206058
 C   -3.014400    1.414909    0.244552
Br   -4.896030   -0.727327    0.071520
 C   -3.166455    0.055556    0.001514
 C   -0.808074   -0.177032   -0.342357
 C   -2.075336   -0.740168   -0.297471
 O    0.586918    1.783840   -0.109083
 C    1.697473    0.941506   -0.110813
 O    1.540604   -0.182554   -0.961188
 C    3.285375   -0.417380    1.313587
 C    5.198713   -1.152394   -0.043987
 O    4.726570   -2.455861    0.038220
 H    3.306372   -0.649828   -0.687796
 H    1.206095   -0.000207    1.784822
 H    2.244503    1.410318    1.902804
 H    2.745307    1.753163   -1.782777
 H    2.785922    2.776345   -0.349709
 H    4.931554    1.225105   -1.116961
 H    4.633862    1.618113    0.583501
 H    0.230647   -1.557592   -1.614211
 H    0.629766   -1.714808    0.110839
 H   -1.605763    3.027219    0.388596
 H   -3.875934    2.024931    0.463576
 H   -2.204077   -1.791792   -0.500721
 H    3.980458   -0.151944    2.112628
 H    3.005508   -1.465196    1.433582
 H    5.861413   -0.891216    0.795736
 H    5.718090   -0.959213   -0.994331
 H    5.440175   -3.096799   -0.057295
