67 
3qpp_ligand_xtb.xyz
 C   -1.428936    3.047229    0.262212
 C   -1.110253    1.703963    0.631010
 C    0.132747    1.193807    0.361813
 C   -0.455927    3.849778   -0.270275
 C    0.841753    3.352038   -0.501966
 C    1.119194    1.983152   -0.263046
 C    2.439295    1.558601   -0.621940
 N    3.376078    2.462986   -0.888188
 C    3.006869    3.734631   -0.991314
 N    1.799943    4.218157   -0.903387
 N    2.818979    0.256347   -0.674755
 C    1.974939   -0.828766   -1.117865
 C    2.132268   -2.020794   -0.174909
 C    3.597573   -2.448942   -0.149456
 C    4.487548   -1.257315    0.226646
 C    4.221866   -0.086161   -0.734279
 C    5.949571   -1.620420    0.233259
 C    6.703851   -1.467117    1.389449
 C    8.049827   -1.787671    1.408369
 C    8.664440   -2.268336    0.265744
 C    7.923306   -2.425895   -0.892800
 C    6.578298   -2.104153   -0.908279
 O   -2.708450    3.420054    0.523440
 O   -2.117426    1.038920    1.256721
 C   -3.088403    4.738120    0.210928
 C   -1.923403   -0.304353    1.634306
 C   -3.210830   -0.793675    2.301580
 C   -4.337169   -0.901687    1.312499
 N   -4.709535   -2.108793    0.978424
 C   -5.946836    0.130813   -0.125249
 C   -4.932016    0.264332    0.779301
 C   -6.382204   -1.159759   -0.496735
 C   -5.715038   -2.266931    0.093878
 C   -6.116449   -3.574014   -0.250500
 C   -7.137469   -3.768984   -1.138497
 C   -7.798634   -2.675467   -1.720263
 C   -7.429280   -1.396440   -1.407991
 H    0.384590    0.199909    0.690395
 H   -0.625665    4.887532   -0.502393
 H    3.802748    4.434060   -1.217323
 H    2.302200   -1.133275   -2.124453
 H    0.939540   -0.501708   -1.194791
 H    1.500729   -2.844656   -0.510912
 H    1.816850   -1.736307    0.831311
 H    3.879292   -2.823384   -1.135266
 H    3.745040   -3.257597    0.569060
 H    4.204563   -0.927247    1.232343
 H    4.802627    0.789370   -0.445351
 H    4.503997   -0.366049   -1.756808
 H    6.232453   -1.090319    2.286190
 H    8.619730   -1.660597    2.317191
 H    9.715294   -2.517241    0.276592
 H    8.395738   -2.800301   -1.789400
 H    6.017758   -2.231655   -1.822644
 H   -2.969929    4.945926   -0.857144
 H   -2.511785    5.468457    0.787096
 H   -4.140631    4.813949    0.480977
 H   -1.697942   -0.923983    0.754516
 H   -1.089003   -0.383300    2.346351
 H   -3.031421   -1.776728    2.736162
 H   -3.477402   -0.086748    3.088843
 H   -6.427670    0.996638   -0.560656
 H   -4.563767    1.231391    1.081623
 H   -5.597813   -4.401199    0.208611
 H   -7.446005   -4.770782   -1.400159
 H   -8.604087   -2.854507   -2.417538
 H   -7.934263   -0.549830   -1.852143
