31 
3qqk_ligand_xtb.xyz
 C    3.857263   -1.500887    1.534845
 C    3.817577   -2.143469    0.384074
 C    3.527226   -1.520206   -0.955259
 N    3.340715   -0.092487   -0.928374
 C    2.197477    0.479962   -0.516981
 N    2.098633    1.745533   -0.244720
 C    0.829038    2.085445    0.082246
 C   -0.108569    1.043085    0.081212
 S    0.710392   -0.441612   -0.380204
 N    0.516026    3.342346    0.420204
 C   -1.506587    1.230268    0.274298
 C   -2.406289    0.052071    0.149038
 C   -2.095661   -1.185147    0.702961
 C   -2.974211   -2.244862    0.567420
 C   -4.164911   -2.081392   -0.120650
 C   -4.488119   -0.846030   -0.657949
 C   -3.618136    0.217820   -0.515291
 O   -1.972550    2.354278    0.500346
 H    3.677992   -0.440798    1.610883
 H    4.063930   -2.011477    2.458853
 H    3.993067   -3.209476    0.337388
 H    2.617237   -1.973448   -1.365566
 H    4.348862   -1.742717   -1.644015
 H    4.164455    0.480423   -0.815371
 H    1.180040    4.075190    0.248527
 H   -0.479247    3.519974    0.527270
 H   -1.181469   -1.315373    1.263062
 H   -2.728914   -3.202455    1.003242
 H   -4.844663   -2.913990   -0.229987
 H   -5.421760   -0.712068   -1.184609
 H   -3.859614    1.190106   -0.918727
