30 
3qqs_ligand_xtb.xyz
 O    1.507216   -1.860001   -1.498810
 O   -3.387686   -2.046867    1.366996
 O    3.476265   -2.264405   -0.583459
 O   -1.315828   -2.296306    0.665249
 C    2.453996    2.350953    1.102855
 C   -2.591159    2.289133   -1.034924
 C    3.648924    1.727490    0.769932
 C   -3.747466    1.575000   -0.746964
 C    1.249735    1.746242    0.819224
 C   -1.354515    1.736267   -0.793218
 C    3.619007    0.480030    0.181545
 C   -3.646373    0.312041   -0.204238
 N    0.000584   -0.122936   -0.061421
 C    2.401543   -1.479825   -0.788813
 C   -2.306009   -1.606128    0.699284
 C    1.196485    0.498628    0.183144
 C   -1.228069    0.454551   -0.240527
 C    2.412444   -0.156627   -0.111150
 C   -2.405090   -0.265067    0.076227
 H   -4.104958   -1.399940    1.384365
 H    4.089347   -1.890767    0.063067
 H    2.466155    3.313170    1.592372
 H   -2.661133    3.272335   -1.475439
 H    4.592313    2.208152    0.976148
 H   -4.716880    1.997522   -0.959891
 H    0.327209    2.224037    1.110937
 H   -0.460717    2.270508   -1.075543
 H    4.557356    0.014793   -0.092319
 H   -4.559268   -0.244971   -0.034164
 H    0.006039   -1.139799   -0.133654
