56 
3qqu_ligand_dft.xyz
 C    5.408162   -0.041497   -0.310216
 N   -2.947814   -1.580809   -0.094462
 O   -5.009933    0.005190   -0.483247
 C   -4.708952   -0.256132    0.881834
 N    3.650192    1.611727   -0.371496
 O   -1.344639   -0.401842    1.756736
 C   -3.843163   -1.509923    1.044993
 N    1.107739    4.167896    0.144359
 C    3.504445   -1.892256   -0.000303
 N    4.765964   -2.343225   -0.046763
 C   -3.651708   -1.827458   -1.335867
 N    3.102069   -0.621538   -0.102294
 C   -5.043135   -1.169501   -1.254929
 N    2.532387   -2.840834    0.166738
 C   -1.277427    1.494954   -0.817977
 C   -2.461062    2.173861   -0.685215
 C   -2.460960    3.531030   -0.280953
 C   -1.282269    4.181841   -0.015732
 C    0.326018   -3.207144   -0.797873
 C    1.140565   -2.579483    0.129778
 C    0.580368   -1.669941    1.034606
 C   -0.764340   -1.345964    0.970123
 C   -1.616078   -1.984722    0.030287
 C   -1.039812   -2.920995   -0.827171
 C   -0.510291    0.415187    2.551190
 C    2.350674    2.142444   -0.327565
 C    1.197829    1.462569   -0.644917
 C   -0.042947    2.138309   -0.546200
 C   -0.047572    3.498221   -0.140258
 C    2.232160    3.510231    0.055833
 C    5.689706   -1.389991   -0.200947
 C    4.043430    0.301505   -0.259138
 H    6.190608    0.697792   -0.437178
 H   -5.640999   -0.354817    1.458829
 H   -4.156665    0.617792    1.237852
 H    4.396770    2.290185   -0.384411
 H   -3.273496   -1.440147    1.968978
 H   -4.465083   -2.419325    1.106927
 H   -3.792792   -2.903091   -1.552294
 H   -3.066571   -1.397839   -2.157695
 H   -5.383210   -0.884370   -2.252993
 H   -5.779033   -1.878238   -0.844244
 H    2.855781   -3.791733    0.071750
 H   -1.272042    0.450124   -1.113915
 H   -3.398783    1.658756   -0.875884
 H   -3.405955    4.056920   -0.179990
 H   -1.256496    5.221070    0.296280
 H    0.750913   -3.905316   -1.512813
 H    1.234022   -1.175644    1.740377
 H   -1.661528   -3.423350   -1.559975
 H   -0.049910   -0.156627    3.367108
 H    0.271442    0.889931    1.948017
 H   -1.160017    1.185448    2.967916
 H    1.223540    0.420888   -0.934652
 H    3.139461    4.066627    0.301992
 H    6.721018   -1.735209   -0.240740
