28 
3qs8_ligand_xtb.xyz
 O   -2.007969   -2.809439   -0.100113
 O    0.065790   -2.104454   -0.399309
 C    3.829928    0.420809   -0.910468
 C    3.797077   -0.340334    0.246289
 C    2.701506    1.118276   -1.304192
 C   -2.713284    2.111000    0.072394
 C   -3.384101    1.136020   -0.647140
 C    2.640679   -0.406406    1.001281
 C    1.543451    1.055105   -0.547985
 C   -1.548878    1.791801    0.746613
 C   -2.875966   -0.147169   -0.689139
 C    0.251427    0.217450    1.467445
 C   -1.239327   -1.889417   -0.164106
 C    1.499324    0.288830    0.612247
 C   -1.012667    0.509407    0.703309
 C   -1.684795   -0.466530   -0.040154
 H    0.587744   -1.285852   -0.436900
 H    4.731832    0.470979   -1.501391
 H    4.674352   -0.885242    0.560876
 H    2.719555    1.716671   -2.202816
 H   -3.102155    3.117339    0.118607
 H   -4.300932    1.373241   -1.164606
 H    2.618638   -1.002751    1.901831
 H    0.668367    1.606359   -0.861693
 H   -1.040793    2.551688    1.323618
 H   -3.388770   -0.928299   -1.229496
 H    0.351102    0.952364    2.272659
 H    0.192251   -0.768393    1.936321
