58 
3qsd_ligand_xtb.xyz
 C    1.354692   -2.430522   -0.745887
 C    1.964572   -2.964116    0.544187
 C    3.459502   -2.654015    0.644224
 N    3.704171   -1.231329    0.691340
 C    4.363381   -0.570873   -0.264193
 O    4.955641   -1.085502   -1.198387
 C    4.361972    0.960360   -0.133490
 O    5.410442    1.468966   -0.907078
 C    3.010856    1.517647   -0.631856
 C    1.860856    1.243828    0.314667
 O    2.004161    0.831099    1.455934
 N    0.648812    1.521401   -0.199172
 C   -0.570906    1.143050    0.477493
 C   -1.300116    0.132881   -0.406166
 O   -1.206705    0.175819   -1.621462
 C   -1.485521    2.359486    0.751479
 C   -1.763815    3.146318   -0.535208
 C   -0.850734    3.237674    1.826448
 C   -2.997937    4.033352   -0.418190
 N   -2.051737   -0.787325    0.220146
 C   -2.823459   -1.741431   -0.549564
 C   -4.148934   -1.151958   -1.025724
 O   -4.297463    0.129122   -0.690072
 C   -3.060583   -2.895462    0.424927
 C   -3.191883   -2.159635    1.757408
 C   -2.159590   -1.034287    1.646504
 O   -4.979430   -1.776936   -1.624799
 H    1.885544   -2.825790   -1.608425
 H    0.308106   -2.715115   -0.825276
 H    1.413250   -1.345204   -0.779003
 H    1.833795   -4.046643    0.593821
 H    1.454488   -2.521182    1.403668
 H    3.873269   -3.118798    1.546054
 H    3.990801   -3.040177   -0.228792
 H    3.188664   -0.685655    1.374034
 H    4.512532    1.258873    0.910767
 H    5.668265    0.744262   -1.507897
 H    3.123187    2.599410   -0.743358
 H    2.788941    1.102549   -1.618179
 H    0.544216    1.717404   -1.184663
 H   -0.267913    0.692087    1.426560
 H   -2.439212    1.968927    1.123531
 H   -0.896673    3.764458   -0.775525
 H   -1.918636    2.445100   -1.356817
 H   -1.479418    4.097369    2.040300
 H    0.121974    3.593039    1.494976
 H   -0.710598    2.677793    2.748238
 H   -3.874299    3.434717   -0.178585
 H   -2.872297    4.784953    0.357158
 H   -3.180648    4.546140   -1.359314
 H   -2.271438   -2.035152   -1.449340
 H   -5.127602    0.478352   -1.052140
 H   -3.946330   -3.468282    0.160417
 H   -2.195492   -3.558494    0.435817
 H   -4.194161   -1.740739    1.851567
 H   -3.003071   -2.803249    2.613456
 H   -2.476221   -0.138235    2.184072
 H   -1.189031   -1.356276    2.041249
