32 
3qt7_ligand_xtb.xyz
 O    0.522109   -1.775506    1.762534
 O   -1.780182   -2.494325    0.662575
 O   -1.946003    2.211726    1.453982
 O    0.865866   -1.665539   -0.433457
 O    3.568883    1.529825    0.481334
 O   -3.594376   -1.033144   -0.390740
 O   -1.498483   -1.380656   -1.660715
 O   -3.059428    1.552391   -0.781479
 F    4.760098   -0.797307   -0.452498
 C    3.640740   -0.305359   -1.087323
 C    0.698861    1.958696    0.056538
 C    1.633689    1.145712   -0.835366
 C    2.339231   -0.469663    1.052472
 O   -0.565285    2.107565   -0.605304
 O   -1.450973   -0.003361    0.471393
 C    1.166271   -1.360676    0.704749
 C    2.795620    0.488594   -0.074426
 P   -2.083867   -1.355997   -0.200363
 P   -1.852654    1.494765    0.039311
 H   -0.314348   -2.251147    1.497365
 H   -2.821133    2.161275    1.836703
 H    4.409792    1.162791    0.784321
 H   -3.709164   -0.146366   -0.780864
 H   -0.596312   -1.727542   -1.631447
 H    3.084844   -1.158281   -1.480563
 H    3.998663    0.338830   -1.894647
 H    0.544739    1.467961    1.017102
 H    1.095467    2.960600    0.228366
 H    1.052379    0.370168   -1.331334
 H    2.052882    1.800530   -1.599650
 H    2.087667    0.102094    1.946328
 H    3.177949   -1.122314    1.315736
