34 
3qtq_ligand_dft.xyz
 N    1.497122    1.236387    1.281776
 C    0.178095    1.418247    0.931741
 N   -0.675207    1.913784    1.894184
 C   -0.163921    1.123897   -0.361315
 C   -1.546822    1.068869   -0.936496
 C   -2.374832   -0.106108   -0.428195
 C   -3.770118   -0.031074   -0.397759
 N   -4.564884   -1.024259    0.006211
 C   -3.978596   -2.157648    0.396987
 C   -2.600622   -2.343955    0.405569
 C   -1.786887   -1.297793   -0.012665
 O   -2.279849    2.249164   -0.613188
 S    1.275723    0.616328   -1.229126
 C    2.183005    0.808988    0.259410
 N    3.529297    0.601904    0.315923
 C    4.246770   -0.336886   -0.530811
 C    4.313339   -1.762360    0.029039
 C    2.948518   -2.422007    0.219747
 H   -0.432857    1.657859    2.839973
 H   -1.659301    1.852824    1.672474
 H   -1.474755    0.972641   -2.032326
 H   -4.266206    0.884927   -0.705683
 H   -4.645788   -2.954060    0.720515
 H   -2.175007   -3.285155    0.738432
 H   -0.705305   -1.399806   -0.007214
 H   -1.694560    2.995943   -0.794334
 H    3.887778    0.722028    1.254759
 H    5.259992    0.051775   -0.678527
 H    3.769987   -0.338932   -1.516893
 H    4.850379   -1.740281    0.986785
 H    4.927582   -2.362620   -0.653870
 H    2.334874   -1.867888    0.938055
 H    2.396486   -2.468325   -0.725390
 H    3.062058   -3.443232    0.596585
