44 
3qtu_ligand_xtb.xyz
 N    0.608175    3.969966   -0.003562
 N    2.400341    2.549636   -0.006214
 N   -1.405896    5.165283    0.020665
 N    5.902466   -2.625123   -1.553147
 N   -6.325084   -2.823659    0.997324
 C   -1.382873    2.758889    0.100136
 C   -0.742881    4.006817    0.031314
 C    1.064524    2.750607    0.028562
 C    3.185168    1.409970    0.021220
 C   -2.793100    2.579857    0.033434
 C   -3.323468    1.184922    0.026741
 C    4.568971    1.594140   -0.100032
 C    5.423930    0.512446   -0.080030
 C    4.904684   -0.759684    0.066633
 C    3.546092   -0.961556    0.195006
 C    2.680894    0.117006    0.171857
 C   -4.330929    0.873105   -0.883633
 C   -4.848230   -0.408306   -0.934844
 C   -4.364914   -1.360920   -0.060799
 C   -3.387964   -1.064708    0.867520
 C   -2.861515    0.214444    0.911846
 O   -3.557974    3.543680   -0.061069
 O    5.438072   -3.208993    0.863242
 O    7.340837   -1.718817    0.313893
 O   -5.615403   -3.262155   -1.389183
 O   -4.117577   -3.930090    0.467402
 S   -0.158811    1.503862    0.107840
 S    6.000428   -2.161117    0.063846
 S   -5.054708   -3.002376   -0.095319
 H    2.910743    3.423098   -0.071677
 H   -0.907352    6.023630   -0.125666
 H   -2.416596    5.095086   -0.041621
 H    5.476257   -3.531626   -1.657280
 H    6.800183   -2.586978   -2.007557
 H   -7.220843   -2.945517    0.554041
 H   -6.222041   -3.430762    1.793921
 H    4.963542    2.594018   -0.208221
 H    6.491900    0.632111   -0.162959
 H    3.177794   -1.965716    0.327049
 H    1.623938   -0.054742    0.277969
 H   -4.691851    1.645722   -1.545642
 H   -5.610796   -0.688105   -1.643745
 H   -3.046970   -1.842513    1.531598
 H   -2.112443    0.462499    1.648568
