44 
3qtu_ligand_dft.xyz
 N    0.725688    4.061117    0.131710
 N    2.545050    2.646962    0.145649
 N   -1.308108    5.201772    0.037694
 N    5.458063   -2.974759   -1.476245
 N   -6.523435   -2.739917    0.862905
 C   -1.249638    2.779652    0.080935
 C   -0.639664    4.040469    0.079457
 C    1.196117    2.840200    0.147081
 C    3.288451    1.458598    0.129359
 C   -2.660966    2.575451   -0.059410
 C   -3.234746    1.185432   -0.045710
 C    4.516238    1.464827   -0.545565
 C    5.304022    0.327100   -0.574995
 C    4.858645   -0.828752    0.061635
 C    3.653460   -0.842692    0.751406
 C    2.870728    0.304423    0.796712
 C   -4.265230    0.896587   -0.944874
 C   -4.843127   -0.363607   -0.970068
 C   -4.402319   -1.326794   -0.065495
 C   -3.396200   -1.054139    0.852368
 C   -2.811503    0.208263    0.856641
 O   -3.434772    3.529590   -0.220937
 O    5.388006   -3.180549    1.060678
 O    7.248940   -1.890991   -0.107262
 O   -5.617101   -3.206201   -1.432375
 O   -4.257475   -3.846812    0.625031
 S    0.020947    1.552611    0.105327
 S    5.857278   -2.298108    0.003872
 S   -5.153075   -2.942540   -0.079675
 H    3.052254    3.509371   -0.003660
 H   -0.792630    6.061916   -0.045892
 H   -2.310448    5.150916   -0.104431
 H    4.854288   -3.782347   -1.357192
 H    6.305535   -3.207638   -1.984751
 H   -7.350313   -3.005331    0.337473
 H   -6.441669   -3.256502    1.732684
 H    4.845947    2.365617   -1.055207
 H    6.260344    0.331950   -1.086661
 H    3.343686   -1.738155    1.278977
 H    1.959363    0.304279    1.382580
 H   -4.601887    1.672917   -1.623484
 H   -5.620469   -0.606610   -1.686479
 H   -3.070698   -1.822863    1.544614
 H   -2.042890    0.434435    1.589133
