39 
3qtz_ligand_dft.xyz
 N    1.140350   -3.251727    0.030115
 N   -1.016264   -2.443437    0.028219
 N    3.422239   -3.739497   -0.022990
 N   -5.614373    1.932633   -1.509804
 C    2.649677   -1.446946    0.131295
 C    2.440263   -2.827741    0.041738
 C    0.329780   -2.226413    0.082166
 C   -2.086387   -1.541801    0.045000
 C    3.942992   -0.827461    0.062177
 C    4.081044    0.664361    0.176244
 C    3.342026    1.423105    1.086967
 C    3.541132    2.798839    1.172444
 C    4.467100    3.430446    0.350156
 C    5.199937    2.655014   -0.538359
 C    5.034772    1.285131   -0.632171
 C   -3.258450   -1.910540   -0.631218
 C   -4.358802   -1.072469   -0.633918
 C   -4.288835    0.150057    0.030962
 C   -3.142325    0.519023    0.721163
 C   -2.042372   -0.330307    0.739666
 O    4.963293   -1.506054   -0.118607
 O   -5.461378    2.261825    1.017672
 O   -6.899425    0.421241    0.005633
 F    6.101747    3.256659   -1.328566
 S    1.073360   -0.651869    0.155278
 S   -5.694747    1.235512    0.013114
 H   -1.233764   -3.409338   -0.179173
 H    3.184063   -4.703664   -0.184636
 H    4.366985   -3.387740   -0.128688
 H   -5.235386    2.873473   -1.461258
 H   -6.536927    1.920889   -1.934414
 H    2.640021    0.939816    1.758912
 H    2.975039    3.383713    1.890537
 H    4.635399    4.500840    0.393136
 H    5.638771    0.701246   -1.317158
 H   -3.297625   -2.857007   -1.162872
 H   -5.268859   -1.361574   -1.148384
 H   -3.121061    1.455310    1.268042
 H   -1.173069   -0.059854    1.326537
