52 
3que_ligand_dft.xyz
 O   -1.699564   -1.995380   -0.969718
 O   -9.451508   -1.312413    1.545468
 O   -7.663981    0.745820    1.619595
 F    8.524496    1.889619    1.514320
 F    6.907260   -1.684415   -1.068418
 C    6.292885    1.192605    1.791172
 C    2.274133   -2.402957   -0.434370
 C   -3.933464    2.344856   -0.915773
 C   -2.618313    2.596565   -1.263296
 C    5.264121    0.325629    1.436903
 C    0.934301   -2.193512   -0.668952
 C    7.761700    0.096521    0.206545
 C    2.555622   -0.030718   -0.175209
 C   -3.355742    0.048106   -0.505966
 C   -8.107555   -1.514491    1.186495
 C   -0.214986    1.954011   -1.574815
 C    0.740653    1.626349   -0.423791
 C   -6.041723   -0.391802    0.246993
 N    4.460504   -1.557996    0.060787
 O   -5.616997    0.885573   -0.199608
 C   -1.136149   -0.915782   -0.845409
 C    7.525530    1.064861    1.171412
 C    3.114210   -1.311807   -0.166527
 C    6.710774   -0.730804   -0.140203
 C   -4.306853    1.057167   -0.526566
 C   -1.637061    1.599273   -1.232261
 C    1.198176    0.187134   -0.410354
 C    5.443879   -0.642109    0.444813
 C    0.351820   -0.912807   -0.652854
 C   -2.020553    0.309759   -0.847552
 C   -7.506878   -0.238958    0.613207
 H   -9.461003   -0.497708    2.067087
 H   -7.250928    1.554186    1.289775
 H    6.150970    1.948256    2.555012
 H    2.681294   -3.410633   -0.443818
 H   -4.683157    3.129009   -0.939034
 H   -2.337739    3.601869   -1.566685
 H    4.307529    0.390794    1.943145
 H    0.281918   -3.037157   -0.861101
 H    8.729218   -0.005521   -0.269212
 H    3.199075    0.830574   -0.031823
 H   -3.610905   -0.972718   -0.251599
 H   -7.503061   -1.836005    2.050462
 H   -8.086878   -2.312454    0.438177
 H    0.115956    1.433574   -2.482314
 H   -0.162705    3.025486   -1.792774
 H    0.251675    1.873860    0.527587
 H    1.626110    2.266440   -0.492087
 H   -5.461683   -0.695173    1.129033
 H   -5.910415   -1.142041   -0.544414
 H    4.812351   -2.421472   -0.324035
 H   -8.071731    0.044628   -0.287730
