57 
3qw8_ligand_dft.xyz
 N   -2.284468    2.615195   -0.255642
 C   -0.981091    1.905370   -0.095882
 C   -1.355863    0.578878    0.571364
 O   -2.039545    0.607861    1.593786
 C   -0.023547    2.707949    0.779135
 S    0.449423    4.230866   -0.125262
 N   -0.962910   -0.532324   -0.065544
 C   -1.334881   -1.859449    0.419452
 C   -0.158688   -2.307387    1.301966
 O    0.659565   -3.136558    0.928820
 C   -1.579823   -2.816737   -0.747251
 C   -2.409093   -2.244130   -1.900536
 C   -3.916560   -2.101414   -1.674920
 N   -4.337883   -1.210896   -0.591434
 C   -4.329345    0.148966   -0.677463
 N   -4.884908    0.826232    0.385039
 N   -3.784860    0.870678   -1.613849
 N   -0.021836   -1.581131    2.443185
 C    1.302014   -1.402295    3.023279
 C    2.127139   -0.500868    2.095398
 O    2.198386    0.713183    2.246330
 N    2.707612   -1.140189    1.049952
 C    3.450615   -0.417662    0.040257
 C    2.589523    0.676736   -0.608870
 O    1.473798    0.431115   -1.075368
 C    3.911352   -1.415034   -1.030772
 S    5.047359   -0.719467   -2.269278
 N    3.157305    1.886465   -0.702561
 H   -2.140814    3.585094   -0.551606
 H   -2.765789    2.595791    0.651142
 H   -2.928790    2.050834   -0.951916
 H   -0.557400    1.744162   -1.088656
 H    0.858605    2.105053    1.009586
 H   -0.511706    2.963373    1.723287
 H    0.727173    4.989968    0.944695
 H   -0.154950   -0.448985   -0.686391
 H   -2.235755   -1.722663    1.021321
 H   -2.044339   -3.727002   -0.350989
 H   -0.604437   -3.126694   -1.135343
 H   -2.302030   -2.918213   -2.757896
 H   -1.980307   -1.287903   -2.217653
 H   -4.332243   -3.082997   -1.431821
 H   -4.392597   -1.787478   -2.613806
 H   -5.033575   -1.598837    0.028195
 H   -5.410896    1.652133    0.142403
 H   -5.237960    0.309027    1.175420
 H   -3.471465    0.330270   -2.412239
 H   -0.697963   -0.841725    2.603611
 H    1.768654   -2.379804    3.161661
 H    1.204318   -0.909009    3.989819
 H    2.461016   -2.111313    0.890098
 H    4.328948    0.041968    0.506083
 H    4.469741   -2.219570   -0.544027
 H    3.039484   -1.859285   -1.519641
 H    4.121597   -0.057143   -2.984048
 H    2.633771    2.656595   -1.097841
 H    4.036677    2.091422   -0.254311
