47 
3qxc_ligand_dft.xyz
 P    4.415996    0.056698   -0.570553
 O    4.790162   -1.341343    0.058038
 O    5.787106    0.845500   -0.596889
 O    3.697120    0.063469   -1.859430
 P    2.081617    0.725519    1.134035
 O    1.878588   -0.083588    2.341483
 O    1.665886    2.236846    1.145605
 O    3.601416    0.839581    0.606877
 P    1.236545   -1.375700   -0.707885
 O    2.270092   -2.233135   -0.078381
 O    1.286471   -1.156921   -2.264916
 O    1.259507    0.148131   -0.154942
 O   -0.251783   -1.867162   -0.473978
 C   -0.514572   -2.941535    0.453894
 C   -1.990679   -2.945767    0.796680
 O   -2.315176   -1.796897    1.591234
 C   -2.955968   -2.920855   -0.390426
 O   -4.144214   -3.562492   -0.002667
 C   -3.210020   -1.424255   -0.583898
 O   -4.468133   -1.221936   -1.157035
 C   -3.101954   -0.902992    0.867710
 N   -2.461095    0.412734    0.904763
 C   -1.359807    0.787572    1.611465
 N   -0.976681    2.017715    1.347731
 C   -1.877882    2.472172    0.405232
 C   -1.998446    3.668430   -0.328509
 N   -1.158953    4.710877   -0.173116
 N   -3.000639    3.777619   -1.213914
 C   -3.830735    2.745293   -1.378842
 N   -3.812424    1.561221   -0.766634
 C   -2.809458    1.484360    0.120942
 H    3.977903   -1.909252    0.103025
 H    6.312824    0.725342    0.206315
 H    0.681423    2.307106    1.369109
 H    2.133538   -0.687854   -2.465069
 H   -0.230312   -3.887991   -0.014497
 H    0.075107   -2.798264    1.362450
 H   -2.188613   -3.833309    1.405454
 H   -2.519418   -3.381006   -1.287128
 H   -4.858383   -3.110632   -0.478640
 H   -2.406697   -0.984221   -1.185011
 H   -4.579510   -0.253218   -1.229087
 H   -4.097093   -0.814738    1.317180
 H   -0.853416    0.111029    2.284925
 H   -0.301189    4.601076    0.343691
 H   -1.232333    5.473214   -0.828952
 H   -4.616877    2.888862   -2.115040
