42 
3qxh_ligand_xtb.xyz
 P    0.456041   -2.075361   -0.894840
 O    1.091316   -2.725909    0.363801
 O    0.627502   -0.641266   -1.116657
 O    0.978625   -3.005731   -2.057688
 P   -2.112868   -1.881820    0.197473
 O   -3.442986   -2.707324   -0.077530
 O   -1.664985   -1.914700    1.585273
 O   -1.113727   -2.504022   -0.868619
 O   -2.429799   -0.460436   -0.428398
 C   -3.315629    0.370218    0.317701
 C   -2.738267    1.774534    0.512105
 O   -1.655933    1.741572    1.435532
 C   -2.225289    2.425480   -0.783370
 O   -2.586453    3.777504   -0.814821
 C   -0.702084    2.249394   -0.687098
 O   -0.044052    3.327266   -1.282973
 C   -0.469373    2.175118    0.842811
 N    0.609677    1.263216    1.132373
 C    0.580819    0.109059    1.842572
 N    1.682653   -0.586869    1.751952
 C    2.501590    0.144501    0.923831
 C    3.771362   -0.070142    0.363203
 N    4.532078   -1.142583    0.650198
 N    4.254225    0.850381   -0.476643
 C    3.522461    1.909484   -0.766621
 N    2.313003    2.216050   -0.328500
 C    1.827941    1.304232    0.517434
 H    1.315451   -2.046856    1.064746
 H    0.922421   -2.558092   -2.901031
 H   -3.487660   -3.484201    0.479445
 H   -4.261462    0.433463   -0.226605
 H   -3.485361   -0.068676    1.304337
 H   -3.524631    2.406991    0.944100
 H   -2.627493    1.907019   -1.663103
 H   -1.831179    4.255667   -1.191620
 H   -0.406870    1.290957   -1.130311
 H    0.916302    3.174442   -1.159580
 H   -0.192311    3.173786    1.227606
 H   -0.276999   -0.192482    2.408282
 H    5.369147   -1.283261    0.112155
 H    4.118857   -1.911129    1.147446
 H    3.965492    2.611830   -1.459805
