42 
3qxh_ligand_dft.xyz
 P   -0.428089   -2.211087    0.955867
 O   -1.087529   -2.816154   -0.334137
 O   -0.714304   -0.815731    1.329481
 O   -0.780116   -3.329846    2.034264
 P    2.182017   -1.826835   -0.287018
 O    3.555801   -2.589878    0.022017
 O    1.741371   -1.894911   -1.690651
 O    1.188016   -2.471545    0.792424
 O    2.433288   -0.383524    0.331538
 C    3.324803    0.510485   -0.358938
 C    2.706928    1.888845   -0.478386
 O    1.591416    1.831690   -1.375301
 C    2.197542    2.519837    0.821484
 O    2.414915    3.907585    0.750361
 C    0.696225    2.226861    0.782975
 O    0.013799    3.227520    1.487273
 C    0.422187    2.247531   -0.735729
 N   -0.649032    1.321429   -1.091964
 C   -0.552594    0.161351   -1.800165
 N   -1.651059   -0.563950   -1.758815
 C   -2.515512    0.172027   -0.969176
 C   -3.792541   -0.086983   -0.442432
 N   -4.496475   -1.196874   -0.753791
 N   -4.337692    0.805934    0.397248
 C   -3.628808    1.886902    0.729149
 N   -2.406401    2.232048    0.325305
 C   -1.901322    1.333730   -0.530976
 H   -1.262051   -2.117917   -1.031024
 H   -0.704311   -2.975672    2.930581
 H    3.691155   -3.314438   -0.604530
 H    4.255922    0.558504    0.212852
 H    3.536436    0.133785   -1.364317
 H    3.462871    2.552501   -0.912666
 H    2.677962    2.082892    1.707276
 H    1.654289    4.309193    1.201719
 H    0.482349    1.222569    1.167621
 H   -0.940074    3.106949    1.301285
 H    0.129776    3.254289   -1.058008
 H    0.361288   -0.129815   -2.295577
 H   -5.320617   -1.393918   -0.207764
 H   -4.034915   -1.962438   -1.218494
 H   -4.109074    2.567072    1.427434
