38 
3qxm_ligand_xtb.xyz
 O    4.023489   -2.100639    0.304240
 C    4.127643   -0.841449   -0.043245
 O    5.014239   -0.338553   -0.674935
 C    2.931651    0.011072    0.433929
 N    3.306703    1.419549    0.199375
 C    1.706215   -0.397752   -0.394264
 C    0.331212    0.199898    0.001943
 C    0.147163    1.633300   -0.561085
 O   -0.983871    1.969893   -1.043432
 O    1.090126    2.420218   -0.537741
 C    0.068364    0.209945    1.526874
 O   -0.674800   -0.620421   -0.575863
 C   -1.444731   -1.246916    0.451066
 C   -1.391090   -0.239764    1.607517
 O   -2.183098    0.891984    1.348657
 C   -3.533562    0.598864    1.074352
 C   -3.671321   -0.235366   -0.202006
 O   -3.196486    0.539492   -1.288307
 C   -2.856637   -1.542458   -0.067151
 O   -2.810772   -2.242491   -1.279445
 H    4.771509   -2.639671   -0.008261
 H    2.762491   -0.173987    1.496248
 H    2.397759    1.970532   -0.136806
 H    4.038132    1.418329   -0.535516
 H    3.699272    1.873935    1.025385
 H    1.599758   -1.482003   -0.312414
 H    1.890313   -0.167785   -1.446440
 H   -1.741676    1.302370   -1.008026
 H    0.698290   -0.514047    2.040697
 H    0.191845    1.197803    1.965007
 H   -0.962136   -2.190792    0.743430
 H   -1.656887   -0.699099    2.568244
 H   -3.997449    0.065342    1.913143
 H   -4.015332    1.567721    0.939108
 H   -4.725705   -0.489389   -0.359123
 H   -3.361809    0.055888   -2.107659
 H   -3.365428   -2.193499    0.651948
 H   -2.089918   -1.890612   -1.817558
