18 
3r00_ligand_dft.xyz
 C   -2.671198   -0.263389   -0.000032
 O   -2.141945    1.004680    0.000348
 C   -1.712462   -1.217103    0.000666
 C   -0.458640   -0.511884    0.000414
 C   -4.146123   -0.381843   -0.000250
 C   -0.790816    0.848686    0.000219
 C    0.890264   -0.887744    0.000429
 O   -4.704268   -1.447027   -0.000799
 C    0.150136    1.869198   -0.000083
 C    1.833789    0.123323    0.000080
 O   -4.815003    0.782656    0.000140
 C    1.481250    1.483759   -0.000210
Br    3.674264   -0.330255   -0.000145
 H   -1.888594   -2.282346    0.000696
 H    1.188498   -1.929778    0.000671
 H   -0.140692    2.913235   -0.000079
 H   -4.189215    1.523055   -0.000618
 H    2.263293    2.234256   -0.000502
