22 
3r01_ligand_xtb.xyz
 O    2.139400    0.719326   -0.002085
 C    2.740035   -0.492212   -0.002041
 C    1.818028   -1.507770   -0.002792
 C    0.542029   -0.881611   -0.003186
 C    0.814534    0.499614   -0.001549
 C   -0.207721    1.465623    0.002208
 C   -1.505392    0.980222    0.000451
 C   -1.760545   -0.396129   -0.002234
 C   -0.775544   -1.350670   -0.003232
Br   -3.583084   -0.948917   -0.003352
 O    0.155696    2.761890    0.008669
 C   -0.854960    3.745365    0.017688
 C    4.222869   -0.515126   -0.006783
 O    4.901280    0.468693   -0.054891
 O    4.771171   -1.743907    0.046498
 H    1.990562   -2.566232   -0.008084
 H   -2.344840    1.655954    0.001619
 H   -1.000465   -2.404113   -0.003716
 H   -1.478896    3.684513   -0.878988
 H   -1.484014    3.663224    0.909032
 H   -0.331767    4.699334    0.030843
 H    4.116989   -2.452421    0.089912
