22 
3r01_ligand_dft.xyz
 O    2.138357    0.699657    0.016030
 C    2.733630   -0.520232   -0.001617
 C    1.822846   -1.530771   -0.023697
 C    0.531835   -0.901205   -0.014346
 C    0.806266    0.465419    0.012679
 C   -0.193663    1.449070    0.034864
 C   -1.504197    0.991040    0.022298
 C   -1.777755   -0.391057   -0.008951
 C   -0.797328   -1.357454   -0.027963
Br   -3.599203   -0.922922   -0.023977
 O    0.203077    2.732367    0.064626
 C   -0.800091    3.729310    0.077936
 C    4.218354   -0.516687   -0.048843
 O    4.870090    0.437003   -0.369945
 O    4.797048   -1.692344    0.276215
 H    2.021864   -2.592473   -0.080515
 H   -2.334666    1.684961    0.035168
 H   -1.042888   -2.412020   -0.051222
 H   -1.423777    3.675778   -0.822602
 H   -1.433450    3.642566    0.969150
 H   -0.270980    4.681563    0.098441
 H    4.148053   -2.296181    0.661206
