47 
3r04_ligand_dft.xyz
 C   -0.976561    1.868896    0.093496
 C   -2.517701    0.073277   -0.312727
 C   -1.240058    0.617911   -0.454736
 C   -3.495356    0.799712    0.380727
 C   -1.989790    2.566696    0.788370
 C   -3.264754    2.047223    0.943556
 O   -4.661733    0.102512    0.419841
 C   -3.159611   -1.148894   -0.716676
 C   -4.426227   -1.072507   -0.250637
 C   -5.536864   -2.046894   -0.352115
 O   -5.391287   -3.115635   -0.885081
 O   -6.699640   -1.662151    0.190399
 C    0.381453    2.447667   -0.051427
 C    2.622384    2.073689   -0.317279
 N    1.398049    1.577521   -0.183068
 C    2.853512    3.464264   -0.295187
 C    0.620010    3.819964   -0.063401
 N    1.856589    4.319098   -0.173674
 N    3.662155    1.182829   -0.500859
 C    3.451806   -0.237946   -0.349953
 C    4.613003   -1.008683   -0.982184
 C    4.387615   -2.523195   -0.885104
 C    4.158568   -2.926510    0.568469
 C    2.998814   -2.177799    1.215220
 C    3.242595   -0.667884    1.112104
 N    3.878288   -4.425472    0.627882
 H   -0.457326    0.089053   -0.987206
 H   -1.763134    3.526916    1.239899
 H   -4.038223    2.579630    1.484612
 H   -2.753567   -1.975654   -1.279877
 H   -6.620797   -0.770666    0.562997
 H    3.858887    3.870929   -0.388370
 H   -0.188817    4.540638   -0.002166
 H    4.588518    1.535502   -0.306736
 H    2.533188   -0.474206   -0.900029
 H    5.554489   -0.748055   -0.478335
 H    4.721535   -0.725597   -2.032408
 H    5.246395   -3.059039   -1.306527
 H    3.502805   -2.792498   -1.479207
 H    5.074708   -2.791329    1.152713
 H    2.880402   -2.474246    2.264205
 H    2.065028   -2.427598    0.691130
 H    2.382300   -0.135382    1.523551
 H    4.122584   -0.388984    1.706945
 H    3.739933   -4.744228    1.592558
 H    3.025533   -4.652255    0.104674
 H    4.644253   -4.972489    0.221242
