87 
3r0y_ligand_dft.xyz
 C   -2.119705    3.229411   -0.256073
 C   -2.639960    5.359522    0.366156
 C   -3.955476    4.999858    0.654278
 C   -1.084676    2.252114   -0.733096
 C   -4.339578    3.675688    0.476068
 C   -3.403523    2.760034    0.008273
 O   -1.381365    1.076511   -0.950627
 N   -1.729822    4.495894   -0.079111
 N    0.168263    2.733700   -0.873859
 C    1.270572    1.799297   -1.004375
 C    1.704948    1.380956    0.404341
 O    1.944531    2.230697    1.269047
 C    2.433248    2.336417   -1.858244
 C    1.977061    2.504040   -3.309288
 C    3.046198    3.630655   -1.316954
 N    1.749330    0.057705    0.616581
 C    2.162977   -0.590941    1.860757
 C    3.668565   -0.411948    2.125497
 C    4.523823   -0.887447    0.979753
 C    4.902915   -2.226812    0.866942
 C    4.934954    0.004519   -0.013597
 C    5.672021   -2.664828   -0.207686
 C    5.697918   -0.427309   -1.094534
 C    6.071407   -1.765508   -1.194132
 C    1.322866   -0.167915    3.093697
 O    1.814057    0.978996    3.739381
 C   -0.166670   -0.000139    2.758515
 C   -0.777559   -1.229770    2.114609
 O   -0.569087   -2.359487    2.551605
 N   -1.571113   -0.984556    1.043653
 C   -2.261396   -2.028966    0.335216
 C   -3.771385   -1.762083    0.372949
 O   -4.231471   -0.636155    0.242260
 C   -1.829687   -2.104878   -1.143976
 C   -0.335961   -2.196600   -1.363072
 C    0.250756   -1.476103   -2.407387
 C    0.488578   -2.993428   -0.562208
 C    1.621861   -1.543868   -2.647441
 C    1.859689   -3.061165   -0.800204
 C    2.435104   -2.334409   -1.839955
 N   -4.543665   -2.869714    0.508869
 C   -5.993211   -2.831154    0.435594
 C   -6.541579   -3.298707   -0.915097
 C   -6.046294   -2.455315   -2.088202
 H   -2.302510    6.383940    0.503460
 H   -4.655586    5.745038    1.017067
 H   -5.352381    3.356257    0.700956
 H   -3.636526    1.708254   -0.133815
 H    0.334211    3.660946   -0.500802
 H    0.857157    0.926838   -1.512861
 H    3.198559    1.548430   -1.828043
 H    2.809988    2.830307   -3.940830
 H    1.182792    3.255004   -3.380797
 H    1.587882    1.564005   -3.716659
 H    2.339784    4.465210   -1.405533
 H    3.326232    3.537024   -0.264965
 H    3.935415    3.897624   -1.897667
 H    1.506888   -0.550679   -0.153020
 H    1.955195   -1.651459    1.692401
 H    3.911253   -0.959684    3.042857
 H    3.862324    0.643208    2.331127
 H    4.597199   -2.933248    1.635780
 H    4.664431    1.054359    0.075305
 H    5.963815   -3.709190   -0.273557
 H    6.012135    0.285039   -1.852252
 H    6.676273   -2.104392   -2.030120
 H    1.417144   -0.985021    3.815687
 H    1.880692    1.665284    3.049167
 H   -0.692529    0.181198    3.701858
 H   -0.307614    0.890796    2.137454
 H   -1.629093   -0.058926    0.633619
 H   -2.026606   -2.959925    0.858562
 H   -2.210576   -1.211613   -1.648295
 H   -2.326601   -2.971595   -1.601668
 H   -0.374025   -0.833495   -3.021705
 H    0.073253   -3.529822    0.286021
 H    2.057419   -0.965938   -3.458057
 H    2.488883   -3.669038   -0.157183
 H    3.507609   -2.369161   -2.000198
 H   -4.090132   -3.763627    0.620012
 H   -6.400589   -3.444696    1.246578
 H   -6.280319   -1.793212    0.621074
 H   -7.636833   -3.260883   -0.861509
 H   -6.276064   -4.352585   -1.073377
 H   -6.274183   -1.395865   -1.934207
 H   -6.510444   -2.777569   -3.025493
 H   -4.961002   -2.542141   -2.205396
