34 
3r1v_ligand_dft.xyz
 C    5.829660   -0.177760   -1.265796
 N   -0.494129   -0.474253   -0.000184
 O   -6.725284   -0.372390   -0.000582
 N   -1.242182    0.527513    0.000770
 C    5.831053   -0.178697    1.264891
 C   -3.169457   -1.060988   -0.002154
 C   -4.539470   -1.240794   -0.002420
 C   -5.390899   -0.128899   -0.000159
 C   -4.859379    1.160969    0.002337
 C   -3.481009    1.332958    0.002546
 C   -2.627189    0.231902    0.000385
 C    2.806852    1.286984   -0.002161
 C    1.430236    1.117200   -0.002389
 C    0.894167   -0.173126   -0.000061
 C    1.750526   -1.274049    0.002207
 C    3.126749   -1.091305    0.002605
 C    3.679040    0.192721    0.000395
 C    5.182503    0.400008    0.000146
 H    5.703084   -1.265512   -1.311727
 H    5.381981    0.250377   -2.168186
 H    6.904501    0.034199   -1.279673
 H   -7.203104    0.465791    0.001135
 H    5.383388    0.247596    2.168161
 H    5.706181   -1.266704    1.309515
 H    6.905605    0.034726    1.278374
 H   -2.496836   -1.911222   -0.003898
 H   -4.978257   -2.232956   -0.004420
 H   -5.518761    2.025934    0.004087
 H   -3.044529    2.326670    0.004424
 H    3.219163    2.293307   -0.004013
 H    0.758467    1.968199   -0.004345
 H    1.314419   -2.268216    0.003840
 H    3.778164   -1.961418    0.004530
 H    5.362675    1.482770    0.000530
