60 
3r21_ligand_xtb.xyz
 S    4.139396    1.100551   -0.599972
 C    3.635214    1.021634   -2.320198
 N    3.918295   -0.420193    0.051358
 O    3.374006    2.059480    0.115839
 C    5.050424   -1.324344    0.127254
 N    6.776312    0.007811    1.320190
 O    5.589085    1.284254   -0.549881
 C    5.825627   -1.132496    1.433357
 N   -0.978416   -2.968407   -0.020200
 C    2.625013   -1.000146    0.039841
 N   -2.539648   -1.232535   -0.023052
 C    1.474293   -0.218554    0.059024
 N   -4.435513    0.252613   -0.044654
 C    0.248718   -0.854022    0.040245
 N   -5.772611    0.120578   -0.080050
 C    0.188713   -2.254080    0.006090
 N   -3.166263   -3.537347   -0.070494
 C   -2.278346   -2.527525   -0.036510
 N    2.583199   -2.324676    0.015257
 C   -3.843150   -0.952091   -0.047454
 C   -3.816180    1.558802    0.019977
 C   -2.952815    1.752186   -1.236168
 C   -1.865879    2.822782   -1.125410
 C   -2.307301    4.112464   -0.430348
 C   -2.085281    4.073245    1.080950
 C   -3.046247    3.161647    1.838943
 C   -3.065228    1.714647    1.348704
 C   -6.064115   -1.151935   -0.108757
 C   -4.878704   -1.929944   -0.090049
 C   -4.449512   -3.254850   -0.097556
 C    1.413328   -2.933045    0.004745
 H    2.606894    0.684184   -2.357336
 H    3.721751    2.019642   -2.732528
 H    4.294459    0.335632   -2.835673
 H    5.711390   -1.180624   -0.730464
 H    4.621039   -2.331755    0.093059
 H    6.931619    0.481145    2.212089
 H    7.677658   -0.291595    0.940834
 H    6.338500    0.700410    0.595567
 H    6.372208   -2.042537    1.682970
 H    5.110610   -0.921962    2.229016
 H   -0.910174   -3.977846   -0.032970
 H    1.535460    0.854482    0.111830
 H   -0.671267   -0.294894    0.056253
 H   -4.656740    2.259352    0.009961
 H   -3.619338    1.998805   -2.065346
 H   -2.473083    0.799916   -1.473178
 H   -1.537342    3.054143   -2.141122
 H   -0.999977    2.420824   -0.594898
 H   -3.354767    4.319065   -0.651318
 H   -1.720555    4.941658   -0.831710
 H   -2.195292    5.084226    1.479101
 H   -1.057012    3.757632    1.276362
 H   -4.057894    3.567837    1.774712
 H   -2.760318    3.167902    2.893047
 H   -2.050784    1.325805    1.261792
 H   -3.585249    1.110428    2.096503
 H   -7.082671   -1.481508   -0.141172
 H   -5.128361   -4.096468   -0.125700
 H    1.455259   -4.013752   -0.006358
