52 
3r24_ligand_xtb.xyz
 N    2.556472    2.172810    0.521396
 C    3.018777    0.814539    0.197150
 C    4.520848    0.745434   -0.064963
 O    5.180289   -0.246910    0.045485
 O    5.011435    1.925664   -0.458238
 C    2.289304    0.278862   -1.051845
 C    2.485816   -1.216846   -1.218513
 S    1.642130   -2.151396    0.347012
 C    2.799556   -3.533301    0.092614
 C    0.135607   -2.474258   -0.668280
 C   -1.086543   -2.873445    0.153569
 O   -1.319475   -1.974680    1.236635
 C   -2.383449   -2.832359   -0.675581
 O   -3.300929   -3.713071   -0.118503
 C   -2.823151   -1.358110   -0.512764
 O   -4.200164   -1.237511   -0.594882
 C   -2.242620   -1.006862    0.888407
 N   -1.584070    0.295298    0.839495
 C   -0.325455    0.560435    1.194968
 N   -0.000027    1.818798    0.935714
 C   -1.109022    2.418614    0.378718
 C   -1.452969    3.705203   -0.101962
 N   -0.629002    4.757792   -0.119103
 N   -2.681514    3.861139   -0.596169
 C   -3.534999    2.859153   -0.619985
 N   -3.337716    1.623416   -0.182370
 C   -2.120453    1.445386    0.317235
 H    1.058521    2.115103    0.854125
 H    2.768691    2.784944   -0.264236
 H    3.074221    2.525846    1.322734
 H    2.802718    0.159254    1.046235
 H    5.959688    1.857367   -0.654746
 H    2.652166    0.824448   -1.929971
 H    1.222731    0.499762   -0.950967
 H    2.084910   -1.550857   -2.171476
 H    3.543646   -1.450934   -1.184152
 H    2.776387   -3.821212   -0.951835
 H    3.791623   -3.175140    0.350064
 H    2.514256   -4.355194    0.738019
 H   -0.050062   -1.556156   -1.222378
 H    0.388673   -3.269950   -1.364778
 H   -0.951131   -3.859312    0.602565
 H   -2.201686   -3.069245   -1.734238
 H   -4.193727   -3.406789   -0.332613
 H   -2.321438   -0.741077   -1.274439
 H   -4.441476   -0.299398   -0.554808
 H   -3.045703   -0.956980    1.637755
 H    0.320124   -0.181274    1.625229
 H   -1.009607    5.634447   -0.437596
 H    0.257941    4.747416    0.351448
 H   -4.506997    3.069125   -1.041682
 H    0.965735   -3.029234    1.460218
