26 
3r4m_ligand_xtb.xyz
 C    2.285064    2.835142    0.868037
 O    1.485645    1.737857    0.497095
 C    2.086295    0.580444    0.111170
 C    3.464573    0.434501   -0.012794
 C    4.018266   -0.779422   -0.379651
 C    3.208512   -1.875746   -0.614976
 C    1.839684   -1.742864   -0.490228
 C    1.255870   -0.527936   -0.144050
 C   -0.207925   -0.470651   -0.046572
 C   -0.949101    0.673917   -0.353528
 C   -2.321537    0.551136   -0.223388
Cl   -3.342625    1.894017   -0.563926
 N   -2.929734   -0.550262    0.155414
 C   -2.135351   -1.598812    0.404253
 N   -2.743565   -2.753510    0.740768
 N   -0.809623   -1.600841    0.319403
 H    2.949840    2.586677    1.701087
 H    2.877212    3.206833    0.025492
 H    1.586816    3.609010    1.183831
 H    4.119909    1.270237    0.174875
 H    5.090780   -0.862689   -0.474983
 H    3.640645   -2.824488   -0.893179
 H    1.183643   -2.581022   -0.664061
 H   -0.490883    1.589711   -0.674339
 H   -3.727360   -2.729706    0.938563
 H   -2.176776   -3.511644    1.073964
