38 
3r4n_ligand_dft.xyz
 C   -1.947994   -0.585739   -0.003241
 C   -1.243573    0.729854    0.043859
 C   -1.222471   -1.751262    0.299733
 C   -3.286800   -0.723491   -0.351892
 C   -0.339784    1.073951   -0.956046
 N   -1.503683    1.523690    1.079224
 C   -1.822339   -3.006464    0.238956
 O    0.067378   -1.543187    0.657757
 C   -3.907934   -1.969219   -0.415359
Cl   -4.224864    0.691298   -0.765847
 C    0.319752    2.296118   -0.821651
 C   -0.830959    2.684840    1.100482
 C   -3.164581   -3.101839   -0.119417
 C    0.982510   -2.622278    0.644837
 N    0.074294    3.110268    0.204954
 C    1.364495    2.731910   -1.810509
 N   -1.068759    3.504004    2.162148
 C    2.370231   -2.022036    0.797520
 C    2.664963   -1.005950   -0.305705
 C    4.029647   -0.379792   -0.180780
 F    5.014056   -1.295007   -0.258939
 F    4.244177    0.516022   -1.165207
 F    4.181050    0.267062    0.986764
 H   -0.152364    0.413865   -1.795250
 H   -1.260509   -3.901784    0.478833
 H   -4.952049   -2.039351   -0.696613
 H   -3.636093   -4.078510   -0.164964
 H    0.894297   -3.174139   -0.302410
 H    0.771965   -3.316090    1.469499
 H    2.315921    2.232553   -1.593850
 H    1.077537    2.467544   -2.832838
 H    1.521397    3.809874   -1.740870
 H   -1.890187    3.314366    2.713153
 H   -0.749106    4.456122    2.089046
 H    3.107462   -2.831763    0.778972
 H    2.441818   -1.533178    1.774051
 H    1.925970   -0.200722   -0.278049
 H    2.610117   -1.475390   -1.293922
