53 
3r4p_ligand_xtb.xyz
 C   -2.917220    0.349139   -0.100262
 F    5.621049   -0.734945    0.168276
 N    1.485585    0.715439   -0.732228
 O    2.251458   -1.093573   -1.895563
Cl   -4.217373    2.275841   -1.453804
 C   -2.741648   -0.982826    0.318014
 F    6.349545    1.122181   -0.653976
 N   -0.100805    3.345461    1.051943
 O   -1.728903   -1.183334    1.188597
Cl   -5.718823   -2.860646   -1.528619
 C   -3.605635   -1.972047   -0.134699
 N   -2.316100    2.424161    0.952887
 C   -4.653670   -1.624905   -0.974810
 N   -1.889512    4.391759    2.028048
 C   -4.867289   -0.319142   -1.373957
 N    3.710112    0.557242   -1.400752
 C   -3.987480    0.657206   -0.927854
 N    0.826497   -1.857064    2.331089
 C   -0.558475    1.189117   -0.020163
 N    1.670562   -2.681648    1.715518
 C    0.199678    0.265118   -0.699738
 C    1.584437    1.924483   -0.081121
 C    0.331745    2.257673    0.377352
 C   -1.385639    3.362296    1.305723
 C   -1.926048    1.360575    0.313850
 C    2.492945   -0.031613   -1.375836
 C   -1.455038   -2.484850    1.667460
 C   -0.437927   -2.339898    2.803574
 C    1.327841   -0.609156    2.429337
 C    2.574331   -0.636748    1.851106
 C    2.732367   -1.960350    1.418423
 C    4.844700   -0.111177   -1.982420
 C    6.020860   -0.164930   -1.002021
 C    7.243607   -0.881404   -1.538412
 H   -3.478614   -3.003713    0.147386
 H   -1.304201    5.197438    2.158684
 H   -2.887975    4.501279    2.033756
 H   -5.687863   -0.061458   -2.022190
 H    3.880190    1.424925   -0.918334
 H   -0.058462   -0.665309   -1.162875
 H    2.496843    2.471706    0.028335
 H   -1.031016   -3.106021    0.868840
 H   -2.364507   -2.956095    2.059816
 H   -0.825390   -1.636664    3.543773
 H   -0.285783   -3.320305    3.262970
 H    0.777096    0.187952    2.886278
 H    3.277875    0.165547    1.770132
 H    3.569119   -2.402528    0.917141
 H    5.179334    0.411003   -2.886368
 H    4.526719   -1.124661   -2.240392
 H    7.593044   -0.387239   -2.439841
 H    8.029943   -0.856846   -0.787483
 H    6.990152   -1.914008   -1.758234
