21 
3r6u_ligand_xtb.xyz
 C    1.701442   -0.732284    0.003015
 C    0.291656   -0.878616   -0.583319
 C   -2.080562   -0.537904   -0.341596
 C   -0.631701    0.097729    1.466258
 C   -0.641809    1.369650   -0.572774
 O    2.110933    0.614692   -0.038389
 N   -0.755201    0.012981    0.000293
 H    2.355605   -1.364787   -0.608925
 H    1.736857   -1.112581    1.032839
 H   -0.013525   -1.916570   -0.438241
 H    0.333904   -0.671142   -1.654088
 H   -2.862546    0.147578   -0.019252
 H   -2.165458   -0.679225   -1.417721
 H   -2.234407   -1.496504    0.151238
 H    0.283201    0.623544    1.730297
 H   -1.477034    0.647581    1.875771
 H   -0.619982   -0.899096    1.903391
 H   -1.353936    2.036918   -0.091870
 H    0.367576    1.746141   -0.419919
 H   -0.850909    1.344128   -1.640326
 H    3.065445    0.674159    0.072361
