38 
3r7q_ligand_xtb.xyz
 C    4.208094    2.269013   -0.758408
 N   -3.005564   -0.668941   -0.772074
 O    3.838117   -1.540217    0.836509
 S    0.049151    0.201518   -0.832825
 C    5.272477    1.645003   -0.125515
 O   -2.402669   -2.840244   -0.951144
 C    5.134596    0.368477    0.389538
 C    3.925084   -0.305253    0.274030
 C    2.838451    0.333094   -0.351728
 C    2.995928    1.616083   -0.864778
 C    2.799642   -2.418292    0.424561
 C    1.540704   -1.712378    0.029000
 C    1.602086   -0.402400   -0.376837
 C    0.246196   -2.245003   -0.043708
 C   -0.684203   -1.334640   -0.478521
 C   -2.090531   -1.683079   -0.730342
 C   -2.784020    0.619493   -0.247399
 C   -2.974781    1.742694   -1.045784
 C   -2.793848    3.013301   -0.533297
 C   -2.421778    3.180881    0.789692
 C   -2.239733    2.076996    1.604003
 C   -2.430596    0.804835    1.092580
 C   -4.366549   -0.979764   -1.161461
Cl   -2.221757   -0.569548    2.124752
 H    4.323169    3.263488   -1.160969
 H    6.220178    2.153962   -0.034432
 H    5.954120   -0.125639    0.886892
 H    2.149081    2.088254   -1.341752
 H    2.625595   -3.089211    1.271518
 H    3.164050   -3.024441   -0.423672
 H   -0.018630   -3.254789    0.212143
 H   -3.250283    1.605498   -2.079952
 H   -2.939469    3.872707   -1.169370
 H   -2.275171    4.170748    1.192801
 H   -1.959765    2.194936    2.638709
 H   -4.667139   -0.376266   -2.018633
 H   -4.396914   -2.035174   -1.427646
 H   -5.053308   -0.794139   -0.333396
