66 
3r8i_ligand_dft.xyz
 N    1.444540    2.496136    0.129871
 N    1.846618    0.194125   -0.268246
 C    8.035674   -5.331341    0.490780
 C   -5.982877   -2.363433    0.784074
 C   -6.023088   -0.093321    1.893712
 O   -8.427603   -0.323300   -0.598578
 O   -8.677231   -1.301905    1.387162
 C    3.248988    5.742454    0.535774
 C    4.543624    5.241143    0.361234
 C   -2.522560   -1.073844   -1.661305
 C   -2.530950    1.069363   -0.580441
 C   -3.886855   -1.206942   -1.421590
 C   -3.892848    0.948253   -0.334434
 C    2.127534    4.915839    0.480522
 C    4.767206    3.883302    0.122568
 C    7.026765   -4.224000    0.791285
 C    6.495989   -3.555479   -0.479054
 C    5.566114   -2.362700   -0.232836
 C    4.248405   -2.730218    0.456280
 C    3.329374   -1.535550    0.726864
 C   -0.340106    0.202081   -1.452595
 C    2.809401   -0.861670   -0.544863
 C    0.429851   -0.108191   -0.159269
 O   -5.929492   -0.302266   -0.552824
 O    3.562355    1.732845   -0.142322
 C   -7.958119   -0.865899    0.525405
 C   -1.826312    0.060988   -1.245085
 C   -4.567397   -0.198454   -0.747208
 C    2.223960    1.475384   -0.089776
 C    2.336182    3.560737    0.244652
 C    3.639942    3.091545    0.073761
 C   -6.421639   -0.905418    0.662930
 H    7.585017   -6.114683   -0.129641
 H    8.902673   -4.936875   -0.051571
 H    8.400236   -5.800766    1.410179
 H   -6.252526   -2.924310   -0.116027
 H   -4.900834   -2.428188    0.931008
 H   -6.486220   -2.818138    1.640104
 H   -4.941811   -0.140937    2.052444
 H   -6.318411    0.953873    1.777444
 H   -6.529516   -0.501605    2.771101
 H   -7.655802   -0.049656   -1.127916
 H    3.115121    6.804301    0.718972
 H    5.391152    5.917154    0.411750
 H   -1.994870   -1.863571   -2.190467
 H   -1.999404    1.961997   -0.258756
 H   -4.431529   -2.081745   -1.761024
 H   -4.442783    1.738873    0.165120
 H    1.124951    5.307114    0.615613
 H    5.762563    3.476095   -0.015486
 H    7.494447   -3.462408    1.430062
 H    6.195433   -4.644087    1.370648
 H    5.972462   -4.304781   -1.090307
 H    7.350667   -3.216190   -1.079508
 H    5.356834   -1.884912   -1.198228
 H    6.090504   -1.610655    0.373800
 H    4.460720   -3.219464    1.413793
 H    3.714838   -3.473068   -0.154976
 H    3.858065   -0.784493    1.327047
 H    2.468425   -1.865685    1.322063
 H    0.005644   -0.461206   -2.254009
 H   -0.099168    1.229305   -1.744598
 H    3.632062   -0.436729   -1.123849
 H    2.313187   -1.599217   -1.187579
 H    0.010130    0.478660    0.662895
 H    0.327851   -1.166600    0.102726
