41 
3r8u_ligand_dft.xyz
 C   -3.435624    2.376931    1.672573
 C   -4.048645    3.064962    0.454473
 C   -3.536676    2.530786   -0.888092
 N   -3.821813    1.125523   -1.119118
 C   -3.000115    0.100647   -0.744908
 S   -1.270316    0.306053   -0.584947
 C   -1.152086   -1.402720   -0.200529
 C   -2.400868   -1.954683   -0.245844
 N   -3.445830   -1.107264   -0.537526
 N   -2.686877   -3.296303   -0.047354
 C    0.134758   -2.119715    0.067610
 C    1.306008   -1.179060    0.273035
 C    2.256129   -1.003082   -0.699781
 C    3.340077   -0.104316   -0.516748
 C    3.437930    0.614524    0.706038
 C    2.444994    0.409065    1.701783
 C    1.409591   -0.460185    1.493630
 C    4.329838    0.095242   -1.513479
 C    5.366636    0.968335   -1.306308
 C    5.464078    1.683785   -0.089875
 C    4.522353    1.510021    0.891698
 O   -0.072102   -2.938592    1.226970
 H   -3.666863    1.306846    1.684629
 H   -2.345149    2.479477    1.677376
 H   -3.822372    2.813129    2.599073
 H   -3.842400    4.142367    0.488024
 H   -5.141865    2.960455    0.481040
 H   -2.453637    2.675347   -0.964280
 H   -3.982844    3.104145   -1.708272
 H   -4.796312    0.854817   -1.088458
 H   -2.040022   -3.736665    0.595557
 H   -3.655519   -3.448520    0.198513
 H    0.365201   -2.780005   -0.785419
 H    2.184614   -1.552888   -1.636487
 H    2.520621    0.957916    2.637136
 H    0.651894   -0.619493    2.254420
 H    4.250961   -0.455266   -2.447522
 H    6.117867    1.114665   -2.076633
 H    6.289549    2.372655    0.062737
 H    4.594163    2.058338    1.827629
 H    0.725341   -3.472344    1.340656
