41 
3r8u_ligand_xtb.xyz
 C   -2.652916    2.597741    1.632846
 C   -3.381436    3.337654    0.518133
 C   -3.153737    2.694542   -0.855160
 N   -3.679446    1.355025   -0.953605
 C   -2.961929    0.255443   -0.631528
 S   -1.201384    0.255280   -0.674712
 C   -1.253287   -1.443989   -0.265986
 C   -2.551166   -1.854740   -0.157505
 N   -3.494452   -0.884627   -0.348898
 N   -2.965174   -3.147448    0.068371
 C   -0.000576   -2.250626   -0.102023
 C    1.166070   -1.329400    0.163831
 C    2.089070   -1.042954   -0.805580
 C    3.156908   -0.158924   -0.550366
 C    3.270529    0.431773    0.735293
 C    2.305441    0.118026    1.715597
 C    1.280595   -0.738291    1.437578
 C    4.120395    0.152958   -1.532028
 C    5.148816    1.008912   -1.253938
 C    5.261574    1.592511    0.017708
 C    4.343171    1.310810    0.989943
 O   -0.206032   -3.167259    0.967912
 H   -3.011569    1.573997    1.713924
 H   -1.583681    2.570041    1.435402
 H   -2.818069    3.092856    2.586811
 H   -3.031150    4.370353    0.472669
 H   -4.453546    3.356656    0.730153
 H   -2.084049    2.647702   -1.070923
 H   -3.637374    3.301288   -1.627474
 H   -4.670371    1.251456   -0.784351
 H   -2.275700   -3.706110    0.549644
 H   -3.894844   -3.204762    0.454760
 H    0.194021   -2.825679   -1.027840
 H    2.004299   -1.488720   -1.787318
 H    2.390346    0.571469    2.693063
 H    0.536740   -0.977829    2.183707
 H    4.028948   -0.298315   -2.509913
 H    5.883214    1.243199   -2.010900
 H    6.081425    2.266343    0.220134
 H    4.425587    1.757857    1.970708
 H    0.634552   -3.597552    1.157889
