67 
3r92_ligand_xtb.xyz
 C    2.949718   -3.411380   -0.692742
 C    2.562071   -1.980874   -0.576262
 C    1.301233   -1.452447   -0.650410
 N    1.389965   -0.068966   -0.506275
 C    2.696093    0.271717   -0.343880
 C    3.451120   -0.883333   -0.365338
 C    4.895600   -0.867854   -0.180548
 O    5.589949   -1.859350   -0.137266
 C    5.471234    0.534338   -0.076153
 C    4.564840    1.546500    0.640174
 C    3.220825    1.638122   -0.109522
 C    5.237381    2.920006    0.637954
 C    4.329732    1.102207    2.085430
 C    0.276018    0.775799   -0.445101
 C    0.108160    1.864215   -1.294157
 C   -1.074095    2.577873   -1.235030
 C   -2.113569    2.222405   -0.379710
 C   -1.943326    1.121661    0.495491
 C   -0.721661    0.446631    0.461605
 N   -2.942214    0.749915    1.352522
 C   -2.992863   -0.468401    2.101369
 C   -3.644987   -1.639396    1.327705
 C   -5.111526   -1.355269    0.972013
 C   -5.068437   -0.882892   -0.478731
 C   -3.992365   -1.782704   -1.058719
 N   -2.949910   -1.872904    0.005811
 C   -2.136740   -3.119589   -0.104065
 C   -0.650538   -2.891395    0.153194
 C    0.015106   -2.126329   -1.008650
 C   -3.424816    2.919001   -0.428320
 O   -4.469608    2.334316   -0.153813
 N   -3.421144    4.205509   -0.806910
 H    2.755797   -3.937199    0.242176
 H    4.013033   -3.482065   -0.899814
 H    2.390234   -3.905281   -1.486007
 H    6.439139    0.470004    0.422884
 H    5.653158    0.872401   -1.101351
 H    2.504986    2.238910    0.458406
 H    3.385059    2.139732   -1.069789
 H    4.598692    3.658628    1.117691
 H    5.443180    3.251095   -0.377602
 H    6.178482    2.881285    1.179841
 H    3.833591    0.134999    2.121103
 H    5.277929    1.014760    2.609076
 H    3.715154    1.828896    2.613276
 H    0.876779    2.126521   -2.001360
 H   -1.211700    3.399290   -1.921311
 H   -0.501444   -0.333064    1.170485
 H   -3.806725    1.268431    1.241365
 H   -3.593178   -0.301931    2.999564
 H   -1.994100   -0.753833    2.438483
 H   -3.555849   -2.541473    1.936636
 H   -5.548971   -0.609992    1.630730
 H   -5.703425   -2.266976    1.053283
 H   -4.800852    0.171993   -0.545211
 H   -6.021186   -1.019957   -0.982800
 H   -3.555473   -1.413129   -1.985547
 H   -4.395634   -2.783954   -1.223715
 H   -2.306666   -1.074254   -0.118218
 H   -2.543553   -3.859497    0.587294
 H   -2.250591   -3.508790   -1.117937
 H   -0.168625   -3.863737    0.251765
 H   -0.502685   -2.378242    1.103160
 H   -0.666603   -1.371796   -1.412643
 H    0.216496   -2.839963   -1.811238
 H   -4.302582    4.692326   -0.846039
 H   -2.576730    4.729587   -0.949633
