41 
3r9d_ligand_xtb.xyz
 N   -0.366619    3.178719   -0.025142
 N    1.715916    2.230053    0.011323
 N   -3.444738   -0.351874    0.067219
 N   -2.604834    3.875111   -0.020792
 N    6.476958   -1.791997   -1.565191
 C   -2.013869    1.539170    0.049025
 C   -1.693438    2.894196   -0.010284
 C    0.367415    2.110645    0.027088
 C    2.748653    1.312326    0.044351
 C   -3.355441    1.017058    0.017581
 C    4.050667    1.823284   -0.050401
 C    5.138912    0.977674   -0.027031
 C    4.937164   -0.384336    0.093633
 C    3.664753   -0.906968    0.195849
 C    2.567299   -0.066166    0.172551
 C   -4.576190   -1.158184    0.037311
 C   -4.394015   -2.540902    0.109701
 C   -5.478239   -3.395147    0.082035
 C   -6.766205   -2.896248   -0.019114
 C   -6.927320   -1.524914   -0.089976
 C   -5.865020   -0.642809   -0.063909
 O   -4.323877    1.767034   -0.057635
 O    5.991979   -2.706155    0.740326
 O    7.508335   -0.759830    0.497425
 F   -8.175703   -1.022279   -0.190233
 S   -0.527690    0.609440    0.100973
 S    6.338227   -1.478587    0.086264
 H    2.002026    3.200425   -0.050083
 H   -2.569879   -0.854494    0.135960
 H   -2.313433    4.818567   -0.195744
 H   -3.570691    3.580839   -0.097406
 H    6.332536   -2.767023   -1.771729
 H    7.356101   -1.466339   -1.932900
 H    4.195333    2.890050   -0.140608
 H    6.147786    1.352084   -0.086981
 H    3.548231   -1.972604    0.307890
 H    1.580545   -0.486301    0.260964
 H   -3.393354   -2.941420    0.188108
 H   -5.320432   -4.461258    0.139237
 H   -7.626401   -3.544976   -0.043088
 H   -6.034650    0.418765   -0.120636
