44 
3r9n_ligand_xtb.xyz
 C   -4.745293   -1.532584    0.288636
 N   -3.031025   -2.998836   -0.640356
 O   -1.850806   -3.202289   -0.854554
 S    0.482197    0.471427    0.008171
 C   -3.410127   -1.728434   -0.083486
 N    1.426599    2.800116   -0.614225
 O   -3.906889   -3.809358   -0.865754
 C   -2.449933   -0.758850    0.017159
 N    3.044891    1.123309   -0.588998
 O   -2.677014    2.932092    0.409581
 C   -2.744366    0.545252    0.656011
 N   -0.438536    4.246531   -0.605939
 C   -4.202551    0.741915    0.886235
 C   -5.107944   -0.260855    0.743379
 C   -1.994275    1.777615    0.223719
 C   -0.632321    1.834681   -0.061179
 C    0.106494    2.974199   -0.435250
 C    1.794168    1.568846   -0.415669
 C    3.485833   -0.201528   -0.210187
 C    3.799761   -0.287659    1.287973
 C    4.256700   -1.698021    1.646727
 C    5.482496   -2.086674    0.826126
 C    5.175409   -1.993952   -0.665360
 C    4.713980   -0.585860   -1.031717
 H   -5.459004   -2.330106    0.186114
 H   -1.454495   -0.970852   -0.332879
 H    3.748986    1.833888   -0.723197
 H   -2.065400    3.683143    0.474349
 H    0.292058    4.896106   -0.871282
 H   -1.198869    4.276560   -1.277194
 H   -4.514550    1.722892    1.203740
 H   -6.146099   -0.066237    0.969038
 H   -2.262480    0.521572    1.665599
 H    2.664928   -0.891905   -0.440125
 H    2.909636   -0.022766    1.861849
 H    4.587339    0.430028    1.531123
 H    3.445861   -2.400623    1.444776
 H    4.487834   -1.748974    2.712007
 H    5.789557   -3.102891    1.077743
 H    6.310527   -1.416858    1.069706
 H    4.389773   -2.708245   -0.918845
 H    6.062689   -2.250891   -1.246391
 H    5.518230    0.125874   -0.828004
 H    4.474313   -0.532488   -2.095118
