48 
3rah_ligand_xtb.xyz
 C    4.911378    0.210377    0.285825
 S   -1.153559   -0.745630   -1.563809
 C    4.787921   -1.169931    0.545565
 N   -1.384366   -0.103205    0.929278
 C    3.662376   -1.854383    0.183376
 N   -3.163736    0.633609   -0.404815
 O    1.312964   -3.268433   -0.301473
 C    2.696448    0.145256   -0.730461
 N    0.557067   -1.004877    1.941037
 C    3.843855    0.878233   -0.370380
 C    6.057937    0.947205    0.649258
 C    6.144759    2.282908    0.375163
 C    5.089053    2.943744   -0.273855
 C    3.964786    2.258443   -0.638198
 C    2.596198   -1.195303   -0.456791
 C    1.342258   -1.964704   -0.847347
 C    0.126613   -1.183417   -0.456728
 C   -0.194141   -0.757195    0.800729
 C   -2.000430   -0.011980   -0.200432
 C   -4.015248    1.002571    0.710035
 C   -4.989757    2.097085    0.273056
 C   -6.058587    1.569739   -0.682895
 C   -6.799052    0.386011   -0.067988
 C   -5.819585   -0.724412    0.299485
 C   -4.771786   -0.205167    1.279441
 H    5.603559   -1.682118    1.036115
 H    3.575010   -2.914292    0.371617
 H   -3.621225    0.459637   -1.285771
 H    1.092977   -3.194841    0.635499
 H    1.886274    0.658819   -1.229390
 H    0.263626   -0.420530    2.710751
 H    1.556624   -0.967403    1.786157
 H    6.867773    0.433238    1.147650
 H    7.026198    2.841315    0.654842
 H    5.175629    4.000173   -0.482747
 H    3.149227    2.761788   -1.137870
 H    1.346344   -2.111525   -1.934487
 H   -3.339529    1.389279    1.480028
 H   -4.432660    2.908064   -0.199443
 H   -5.475661    2.496442    1.164898
 H   -6.763881    2.371415   -0.911073
 H   -5.602094    1.262768   -1.626898
 H   -7.323234    0.715804    0.831840
 H   -7.544895    0.009167   -0.770670
 H   -5.330806   -1.097912   -0.603545
 H   -6.357177   -1.560886    0.749832
 H   -4.050735   -0.988500    1.518922
 H   -5.260832    0.098458    2.206819
