48 
3rah_ligand_dft.xyz
 C    5.109784    0.087319    0.147358
 S   -1.169724   -0.690858   -1.583940
 C    4.958390   -1.319701    0.258207
 N   -1.518194    0.003357    0.891764
 C    3.757423   -1.923638   -0.003013
 N   -3.299523    0.613110   -0.519282
 O    1.240352   -3.133588   -0.050816
 C    2.750390    0.207567   -0.500054
 N    0.461337   -0.784444    1.962732
 C    3.982628    0.862417   -0.240009
 C    6.340189    0.744149    0.409848
 C    6.446787    2.105706    0.290907
 C    5.324822    2.877851   -0.094542
 C    4.123003    2.270937   -0.351756
 C    2.626974   -1.156889   -0.390261
 C    1.315734   -1.881091   -0.717434
 C    0.106283   -1.037078   -0.435031
 C   -0.282561   -0.591377    0.792866
 C   -2.098341    0.022539   -0.277494
 C   -4.142859    1.077798    0.581588
 C   -5.195993    2.049355    0.035606
 C   -6.275910    1.344903   -0.795459
 C   -6.922289    0.197304   -0.013251
 C   -5.868501   -0.790173    0.499288
 C   -4.806681   -0.080885    1.343953
 H    5.816539   -1.916987    0.556872
 H    3.642854   -2.997986    0.089897
 H   -3.762988    0.356149   -1.377511
 H    1.001889   -2.939360    0.868564
 H    1.890250    0.807125   -0.789303
 H    0.048236   -0.286649    2.741818
 H    1.438853   -0.534234    1.852186
 H    7.199598    0.147543    0.705678
 H    7.393829    2.598043    0.490745
 H    5.422580    3.955338   -0.187952
 H    3.259201    2.860482   -0.648878
 H    1.341205   -2.137355   -1.782789
 H   -3.474392    1.612451    1.261782
 H   -4.703465    2.834803   -0.547977
 H   -5.675626    2.536744    0.893975
 H   -7.033835    2.072947   -1.104713
 H   -5.844815    0.950119   -1.727861
 H   -7.468800    0.614310    0.844412
 H   -7.659641   -0.319255   -0.638011
 H   -5.386382   -1.286778   -0.354929
 H   -6.343813   -1.583885    1.085849
 H   -4.032638   -0.779527    1.676434
 H   -5.276868    0.332165    2.246873
