62 
3rbm_ligand_dft.xyz
 C   10.600776   -2.078903   -1.446603
 O   -3.192254   -2.984164   -0.317701
 O   -6.210531    1.521993   -0.367665
 O   -4.396337   -2.511774    1.978972
 O   -5.766292   -2.987754   -0.118359
 O   -6.486323   -0.677924   -1.651490
 O   -7.023616   -0.638735    0.870749
 C   -2.318205    3.249933   -0.127669
 C   -3.327081    2.390318   -0.422991
 C   -1.436059    1.250960   -0.352701
 C    9.623839   -2.869482   -0.573190
 C    9.211569   -2.151224    0.725829
 C    7.903472   -1.353981    0.646592
 C    7.887478   -0.237682   -0.399642
 C    6.586531    0.571970   -0.426761
 C    6.320697    1.370942    0.852825
 C    5.162646    2.366433    0.737030
 C    3.808265    1.710427    0.460628
 C    2.658336    2.718076    0.466419
 C    1.306401    2.062298    0.168991
 C    0.186229    3.091868    0.192630
 C   -3.428011   -0.109266   -0.911147
 C   -4.455264   -0.561221    0.153996
 N   -1.146239    2.522092   -0.089404
 N   -2.751693    1.142344   -0.558166
 P   -4.345341   -2.391106    0.378068
 P   -6.125635    0.052507   -0.278857
 H   10.193735   -1.107904   -1.746050
 H   11.534210   -1.889777   -0.904496
 H   10.851487   -2.631815   -2.357956
 H   -3.983286   -3.328931    2.299055
 H   -6.456982   -2.919359    0.561519
 H   -6.521710   -1.647965   -1.572634
 H   -7.764196   -0.075058    1.143469
 H   -2.330579    4.312739    0.056510
 H   -4.396282    2.529100   -0.529703
 H   -0.731530    0.435773   -0.400951
 H   10.091882   -3.828093   -0.320917
 H    8.724502   -3.119242   -1.153264
 H   10.023773   -1.482706    1.043763
 H    9.098834   -2.889896    1.528386
 H    7.702974   -0.930099    1.638995
 H    7.075302   -2.046752    0.434971
 H    8.041278   -0.673051   -1.394203
 H    8.734319    0.440920   -0.224109
 H    5.749118   -0.112574   -0.622245
 H    6.620626    1.268822   -1.275920
 H    7.230271    1.924256    1.120144
 H    6.120563    0.688211    1.688784
 H    5.381712    3.089082   -0.061416
 H    5.094186    2.944880    1.667967
 H    3.618733    0.935431    1.216869
 H    3.832781    1.199164   -0.510227
 H    2.855618    3.500669   -0.278146
 H    2.615130    3.218082    1.443112
 H    1.113761    1.281482    0.916370
 H    1.350907    1.579406   -0.815829
 H    0.360889    3.869028   -0.556790
 H    0.123013    3.571090    1.173719
 H   -3.899339    0.024370   -1.888053
 H   -2.656720   -0.874142   -1.024136
 H   -4.195721   -0.129148    1.126788
