62 
3rbm_ligand_xtb.xyz
 C   10.522798   -1.567603   -1.129586
 O   -6.567192   -1.295875    0.108101
 O   -4.039143    1.217718    1.271773
 O   -5.480845   -2.445757   -1.942409
 O   -5.020964   -3.351193    0.331945
 O   -4.718703   -1.090219    2.173979
 O   -2.333377   -0.690234    1.646784
 C   -2.640124    3.303132   -0.962791
 C   -3.667558    2.517081   -1.380630
 C   -1.984176    1.231523   -0.872764
 C    9.406052   -2.557445   -0.814611
 C    8.686562   -2.259807    0.509033
 C    7.350147   -1.530507    0.354611
 C    7.480989   -0.131471   -0.242272
 C    6.152399    0.624978   -0.303414
 C    5.629576    1.030073    1.074632
 C    4.477421    2.033061    1.011931
 C    3.190165    1.437711    0.444350
 C    2.058711    2.463843    0.444825
 C    0.748858    1.874085   -0.082797
 C   -0.338476    2.941738   -0.106241
 C   -4.060232    0.062577   -1.547550
 C   -3.878270   -0.987449   -0.464150
 N   -1.600533    2.481431   -0.648009
 N   -3.238347    1.228810   -1.322440
 P   -5.403510   -2.007897   -0.420550
 P   -3.795468   -0.223716    1.212425
 H   10.145941   -0.550596   -1.194225
 H   11.284645   -1.599772   -0.353740
 H   10.993740   -1.819104   -2.077480
 H   -6.294398   -2.906190   -2.159686
 H   -5.289082   -3.379811    1.252119
 H   -5.628165   -0.770282    2.162540
 H   -2.175873   -0.606439    2.589740
 H   -2.585066    4.367349   -0.857340
 H   -4.656772    2.782424   -1.691727
 H   -1.384455    0.357807   -0.715751
 H    9.844306   -3.556437   -0.767058
 H    8.680734   -2.563485   -1.630981
 H    9.342985   -1.669863    1.151607
 H    8.488129   -3.200938    1.026891
 H    6.891218   -1.458327    1.342895
 H    6.686213   -2.128567   -0.275456
 H    7.873024   -0.214225   -1.257036
 H    8.195389    0.447177    0.347400
 H    5.414871    0.003934   -0.816283
 H    6.297971    1.530372   -0.898410
 H    6.448466    1.485307    1.635364
 H    5.302363    0.146664    1.625128
 H    4.778042    2.888452    0.402938
 H    4.276764    2.401150    2.020929
 H    2.899454    0.572717    1.044521
 H    3.363569    1.094958   -0.576446
 H    2.350267    3.314352   -0.174215
 H    1.905842    2.830571    1.461600
 H    0.448674    1.046983    0.563160
 H    0.910868    1.488253   -1.091518
 H   -0.006412    3.792780   -0.708074
 H   -0.522331    3.302399    0.911164
 H   -5.103594    0.392630   -1.540780
 H   -3.841640   -0.370591   -2.529898
 H   -3.006126   -1.617795   -0.623713
