109 
3rbq_ligand_dft.xyz
 O   -0.082694   -0.586210    2.093148
 C   -0.163829   -1.358265    3.052654
 C   -1.222420   -1.200963    4.129756
 C   -2.502460   -0.577246    3.572034
 C   -3.213249   -1.419597    2.510923
 C   -4.321850   -0.634861    1.810532
 C   -5.063602   -1.447873    0.747222
 C   -5.914967   -0.591967   -0.196039
 C   -7.067407    0.142289    0.492708
 C   -7.877242    1.045814   -0.442984
 C   -8.592680    0.298368   -1.571866
 C   -9.575001    1.166184   -2.365487
 C   -8.913338    2.331049   -3.102650
 N    0.679038   -2.407016    3.178929
 C    1.698053   -2.734695    2.196985
 C    1.188955   -3.453925    0.951601
 O    1.928633   -4.223844    0.332699
 N   -0.070695   -3.175789    0.580348
 C   -0.633289   -3.668960   -0.669315
 C   -1.716483   -2.688839   -1.140497
 O   -2.818883   -3.076594   -1.489982
 C   -1.183782   -5.080378   -0.521829
 N   -1.360104   -1.368169   -1.116080
 C   -2.257804   -0.397169   -1.708576
 C   -2.157378    1.012600   -1.150008
 O   -2.562297    1.951190   -1.816711
 N   -1.651331    1.164656    0.110191
 C   -1.168128    2.472740    0.481073
 C    0.206735    2.700554   -0.176051
 O    0.729387    1.851440   -0.895170
 C   -1.117913    2.633359    2.001486
 N    0.802621    3.886937    0.083232
 C    2.125625    4.234448   -0.411441
 C    3.175290    3.538174    0.474639
 O    3.808565    4.143347    1.334584
 C    2.284165    5.752692   -0.340462
 O    1.992563    6.222787    0.955614
 N    3.291762    2.206845    0.244650
 C    3.885819    1.323088    1.239266
 C    4.356842    0.040928    0.545621
 O    4.202921   -1.066010    1.041203
 C    2.916495    1.023883    2.377381
 N    4.954501    0.240884   -0.657930
 C    5.493587   -0.838836   -1.443524
 C    6.988886   -0.644760   -1.626914
 O    7.583231    0.386186   -1.427080
 C    4.821089   -0.962970   -2.830270
 C    3.297712   -0.834235   -2.772636
 C    2.609506   -1.760502   -1.796238
 O    3.169628   -2.958015   -1.723811
 O    1.623801   -1.434639   -1.160434
 O    7.575132   -1.756895   -2.096926
 H   -0.802224   -0.554743    4.911186
 H   -1.430620   -2.170461    4.598968
 H   -2.245319    0.391516    3.135710
 H   -3.189180   -0.378127    4.403234
 H   -2.494318   -1.744566    1.747454
 H   -3.620152   -2.334203    2.964417
 H   -5.027894   -0.256791    2.562134
 H   -3.868057    0.247020    1.336818
 H   -5.701076   -2.198199    1.236268
 H   -4.338054   -2.012534    0.148280
 H   -6.310349   -1.238332   -0.988624
 H   -5.270978    0.149113   -0.693810
 H   -6.670336    0.757983    1.309668
 H   -7.736977   -0.595759    0.958658
 H   -7.206547    1.805047   -0.866655
 H   -8.625453    1.591245    0.149292
 H   -9.135048   -0.555813   -1.142947
 H   -7.853314   -0.122796   -2.266015
 H  -10.344209    1.554905   -1.684026
 H  -10.099383    0.532632   -3.091769
 H   -8.469211    3.050086   -2.406415
 H   -8.115814    1.973163   -3.764477
 H   -9.640203    2.872985   -3.716832
 H    0.503381   -3.074024    3.914605
 H    2.209977   -1.826746    1.861429
 H    2.450916   -3.373507    2.659433
 H   -0.480022   -2.335732    0.968647
 H    0.167789   -3.663480   -1.419510
 H   -1.984742   -5.101031    0.221601
 H   -1.593758   -5.428785   -1.472135
 H   -0.379082   -5.750336   -0.208715
 H   -0.364243   -1.149491   -1.100005
 H   -3.279240   -0.761123   -1.570357
 H   -2.098908   -0.303178   -2.788145
 H   -1.182048    0.376405    0.546066
 H   -1.860188    3.201988    0.049295
 H   -0.452036    1.887628    2.445674
 H   -2.122272    2.494533    2.409677
 H   -0.775585    3.629454    2.296811
 H    0.415315    4.541861    0.750050
 H    2.213736    3.879795   -1.443655
 H    3.299653    6.025279   -0.656621
 H    1.570803    6.223366   -1.022292
 H    2.686288    5.835996    1.516676
 H    2.548388    1.804651   -0.330647
 H    4.771541    1.835296    1.631952
 H    2.669568    1.957254    2.891525
 H    1.997470    0.572516    1.991164
 H    3.367721    0.332424    3.093121
 H    5.130512    1.190507   -0.954405
 H    5.316813   -1.758150   -0.879607
 H    5.202715   -0.179821   -3.497143
 H    5.109383   -1.925290   -3.260268
 H    2.887045   -1.049029   -3.767026
 H    2.986425    0.180053   -2.514255
 H    2.711418   -3.488584   -1.020876
 H    8.513931   -1.545211   -2.225587
