63 
3rcd_ligand_dft.xyz
 N   -1.284716    2.982035    0.372622
 N   -4.905644   -1.733793   -1.488879
 C   -5.763237    2.541582    0.121413
 C   -5.301029    3.819388    0.259746
 C   -4.896466    0.205881    0.031231
 C   -5.260563   -0.332284   -1.366341
 C   -3.602286   -2.064371   -1.671442
 C   -0.476856    0.209342    0.180546
 C    1.940234   -1.064291    0.832196
 C   -0.012575   -0.878737   -0.575462
 C    5.424586   -1.929311    1.163932
 C    5.672681    0.189294   -0.608753
 C    4.403692   -0.199111   -0.184456
 C    5.795836    1.297259   -1.620564
 C   -4.192759   -4.093824    0.885877
 F    4.797061    2.188072   -1.516984
 F    6.952083    1.969004   -1.488714
 F    5.764187    0.817210   -2.878349
 C    6.814341   -0.465987   -0.161938
 C    6.679013   -1.528041    0.728516
 C    4.289780   -1.262328    0.704257
 O    3.091945   -1.730303    1.176928
 C    1.482656    0.026851    1.574139
Cl    2.420715    0.596913    2.924834
 C    0.288150    0.659254    1.263772
 C    1.181513   -1.506376   -0.242338
 N   -1.734262    0.737448   -0.121144
 C   -2.173635    2.026590    0.134386
 C   -1.721015    4.243735    0.546095
 C   -3.542730    2.362335    0.138665
 C   -3.878364    3.723795    0.293595
 N   -2.958618    4.692403    0.490007
 N   -4.723093    1.644542    0.045694
 O   -2.776016   -1.217047   -2.007678
 C   -3.187338   -3.485951   -1.379633
 C   -2.921686   -3.668455    0.154195
 O   -2.556523   -2.434883    0.754526
 C   -1.814446   -4.703937    0.352682
 H   -5.536822   -2.433267   -1.129297
 H   -6.781258    2.176060    0.088228
 H   -5.889091    4.719813    0.351870
 H   -3.975850   -0.265742    0.379559
 H   -5.674161   -0.058596    0.756079
 H   -6.326706   -0.212665   -1.576206
 H   -4.703171    0.220922   -2.124437
 H   -0.588806   -1.212946   -1.432810
 H    5.301119   -2.749632    1.862756
 H    3.523855    0.327748   -0.534618
 H   -4.963177   -3.319959    0.805054
 H   -4.585199   -5.033910    0.485650
 H   -3.976601   -4.226143    1.949392
 H    7.794415   -0.147066   -0.497480
 H    7.561884   -2.044995    1.090998
 H   -0.037246    1.506727    1.850612
 H    1.549777   -2.343608   -0.826819
 H   -2.256524    0.205469   -0.813376
 H   -0.941741    4.977290    0.738653
 H   -2.267068   -3.658430   -1.943555
 H   -3.932942   -4.212805   -1.720725
 H   -1.666911   -2.182543    0.462070
 H   -1.639497   -4.867735    1.419978
 H   -2.077764   -5.660162   -0.112085
 H   -0.878548   -4.354321   -0.099444
