30 
3rdh_ligand_xtb.xyz
 C   -2.201433    0.642360   -0.003086
 C   -2.700452   -0.625945    0.319623
 N   -1.991180   -1.716721    0.112695
 C   -0.786946   -1.649684   -0.449517
 C   -0.273768   -0.441443   -0.954430
 C   -0.991410    0.727027   -0.693567
 C   -0.450653    2.087424   -1.064363
 O    0.073884    2.697793    0.121441
 O   -2.920083    1.742157    0.365500
 C   -4.041206   -0.771209    0.960653
 C    1.033234   -0.401685   -1.691698
 O    2.010075    0.361122   -0.984875
 P    2.274688   -0.157021    0.521922
 O    2.359086   -1.612977    0.642623
 O    1.211446    0.534567    1.447586
 O    3.618346    0.630970    0.859428
 N   -0.102659   -2.837418   -0.562402
 H   -1.251041    2.720138   -1.477448
 H    0.332773    1.995427   -1.817248
 H    0.691647    3.393040   -0.125883
 H   -2.344032    2.515160    0.352858
 H   -4.102494   -0.130283    1.837539
 H   -4.818638   -0.456506    0.266801
 H   -4.200089   -1.806960    1.241297
 H    0.932043    0.079084   -2.669942
 H    1.406893   -1.416338   -1.838666
 H    0.861998    1.375708    1.101445
 H    4.375841    0.080300    0.671103
 H   -0.574084   -3.574861   -0.056504
 H    0.879504   -2.769753   -0.321543
