34 
3re4_ligand_xtb.xyz
 C   -1.344715   -0.146118   -0.935213
 N    0.036787    0.194321   -0.665219
 O   -2.122119    0.994295   -1.121219
 C    0.973965   -0.719023   -0.287079
 N    0.789282   -2.033188   -0.106029
 O   -1.972916   -2.325236    0.013685
 C    1.887995   -2.668698    0.259515
 N    3.093595   -2.167731    0.455814
 O   -4.264908   -1.063576   -0.443639
 C    3.289964   -0.857668    0.280643
 N    3.742631    3.126932   -0.264699
 O   -1.748466    1.585308    1.716407
 C    2.200132   -0.054942   -0.110251
 N    4.522057   -0.367677    0.489543
 C    1.950229    1.326119   -0.399283
 C    0.617698    1.419831   -0.732280
 C    2.906978    2.341261   -0.337837
 C   -1.938767   -0.952152    0.248610
 C   -3.356680   -0.372345    0.363633
 C   -3.167294    1.059196   -0.156934
 C   -2.834830    2.063298    0.952195
 H   -1.370451   -0.759789   -1.852473
 H   -1.040779   -2.616196   -0.053975
 H    1.788683   -3.733846    0.420047
 H   -3.943309   -1.975154   -0.508164
 H   -1.527130    2.241129    2.386443
 H    4.716902    0.609392    0.359018
 H    5.252287   -1.001824    0.759902
 H    0.042005    2.277447   -1.017562
 H   -1.374373   -0.709520    1.158209
 H   -3.699949   -0.371655    1.406898
 H   -4.066744    1.393226   -0.682315
 H   -3.724983    2.197170    1.580965
 H   -2.583408    3.022153    0.480957
