59 
3rey_ligand_dft.xyz
 C   48.893975   24.418537   30.561357
 N   47.428896   22.059303   31.334051
 O   49.480110   25.428005   30.201725
 C   47.378362   22.486557   30.014905
 N   48.115519   23.636014   29.686379
 O   46.721493   21.891917   29.177729
 C   49.194437   23.383203   34.004393
 N   48.381688   22.432133   33.545579
 O   51.047502   23.628686   39.302795
 C   48.205729   22.738565   32.237952
 N   49.528878   24.272612   33.034675
 O   51.379675   22.070523   42.469081
 C   48.898662   23.865080   31.879944
 N   52.095348   24.077904   41.659802
 C   48.020215   24.089976   28.295484
 N   52.347064   25.620004   45.054430
 C   46.813407   24.995972   28.065097
 C   46.718071   20.841903   31.718036
 C   47.568628   19.589272   31.522616
 C   46.814083   18.329170   31.939496
 C   46.733295   25.460514   26.612851
 C   50.574058   23.507927   38.036609
 C   49.913335   22.380128   37.547009
 C   49.471669   22.363276   36.229646
 C   49.676081   23.454745   35.385080
 C   50.332559   24.582639   35.894072
 C   50.779664   24.610856   37.202480
 C   50.871185   22.551737   40.202448
 C   51.473656   22.883645   41.563133
 C   52.687200   24.530982   42.903465
 C   51.671816   25.198730   43.831232
 H   50.163630   25.053112   33.095379
 H   52.072406   24.686025   40.855759
 H   48.945767   24.625788   28.078380
 H   47.958788   23.201629   27.665109
 H   51.722632   26.187028   45.619534
 H   52.575553   24.803342   45.615508
 H   45.904624   24.446873   28.334911
 H   46.890709   25.861197   28.733526
 H   46.434820   20.955409   32.767718
 H   45.813464   20.791908   31.109311
 H   47.857397   19.525313   30.467683
 H   48.488194   19.690882   32.111121
 H   47.430389   17.436822   31.794880
 H   46.527863   18.370872   32.996750
 H   45.899852   18.203684   31.348570
 H   45.867235   26.110559   26.455489
 H   47.630101   26.022391   26.327850
 H   46.639739   24.607461   25.931273
 H   49.739064   21.514029   38.174365
 H   48.957649   21.491387   35.839573
 H   50.486741   25.463782   35.277244
 H   51.285600   25.483165   37.602037
 H   49.807100   22.333423   40.352007
 H   51.362765   21.644059   39.831690
 H   53.121477   23.658377   43.401258
 H   53.497096   25.230235   42.679852
 H   50.833093   24.501574   43.986242
 H   51.268989   26.090159   43.336429
