95 
3rg2_ligand_xtb.xyz
 S    1.083427    1.327117    0.642951
 N   -4.911923   -2.177463   -0.282996
 C   -5.297422   -1.088932    0.356127
 N   -4.980264    0.167562    0.101376
 C   -4.218264    0.304462   -0.987500
 C   -3.793760   -0.764935   -1.795281
 C   -4.130499   -2.062559   -1.362541
 N   -3.738021   -3.185194   -1.987783
 N   -3.065035   -0.278264   -2.853211
 C   -3.043012    1.007221   -2.682933
 N   -3.713929    1.437454   -1.571407
 C   -3.747679    2.820640   -1.144024
 C    4.334557    1.009690    1.545440
 O    3.777401   -0.235777    1.562389
 C    5.029008    1.506853    2.639999
 C    5.627435    2.751457    2.581679
 C    5.541276    3.509945    1.427617
 C    4.831870    3.026013    0.344050
 C    4.221036    1.781893    0.388091
 O    1.054843   -0.112307    0.490992
 C   -4.403282    3.015536    0.227634
 O   -4.994860    4.286059    0.259352
 C    3.375338    1.294889   -0.751886
 C    2.032039    1.997872   -0.753679
 O    1.600510    1.817700    1.885240
 C   -3.181550    2.944036    1.162033
 O   -3.466915    3.592936    2.370471
 C   -2.120621    3.658717    0.304733
 O   -2.424520    3.306596   -1.038171
 C   -0.668582    3.299162    0.615910
 N   -0.472141    1.869718    0.514281
 O   -0.877544   -1.905458   -2.657337
 P   -0.311096   -1.077753   -1.428355
 O   -0.459428    0.374737   -1.667252
 O   -1.131041   -1.734445   -0.228732
 C   -1.621287   -1.125040    0.957041
 C   -1.733953   -2.109293    2.132963
 C   -2.368656   -3.423617    1.677548
 C   -2.634678   -1.426956    3.170375
 C   -0.351198   -2.368877    2.812873
 O   -0.519837   -2.868923    4.113749
 C    0.501751   -3.401453    2.063488
 O    0.499541   -4.560742    2.452289
 N    1.259970   -2.946491    1.065725
 C    2.101707   -3.833473    0.290266
 C    3.423673   -3.161951   -0.086547
 C    3.400148   -2.664796   -1.525232
 O    2.653044   -3.105268   -2.373797
 N    4.313837   -1.705048   -1.800288
 C    4.422709   -1.133636   -3.122812
 C    3.581909    0.128284   -3.307853
 S    4.229464    1.550540   -2.365847
 H   -5.936162   -1.246326    1.215061
 H   -2.957071   -3.135502   -2.620881
 H   -3.908837   -4.051110   -1.503481
 H   -2.536154    1.694405   -3.329603
 H   -4.273873    3.413152   -1.906099
 H    3.694431   -0.533368    2.476633
 H    5.090699    0.914207    3.542392
 H    6.163102    3.126045    3.440526
 H    6.014595    4.477844    1.374962
 H    4.752616    3.609199   -0.561817
 H   -5.136352    2.231537    0.447457
 H   -5.039722    4.550858    1.188234
 H    3.198784    0.223693   -0.656796
 H    1.439094    1.760024   -1.633611
 H    2.137554    3.069859   -0.614774
 H   -2.893439    1.896856    1.315298
 H   -2.760993    3.415744    2.999651
 H   -2.250655    4.745800    0.426261
 H   -0.034666    3.850407   -0.089744
 H   -0.406639    3.601438    1.632792
 H   -0.829908    1.490378   -0.366387
 H   -1.597386   -1.383439   -3.065149
 H   -2.623483   -0.743606    0.741870
 H   -0.990692   -0.281515    1.237922
 H   -1.776553   -3.875822    0.885865
 H   -3.374210   -3.243404    1.303367
 H   -2.423328   -4.117728    2.512439
 H   -2.216573   -0.463672    3.454355
 H   -3.631864   -1.275669    2.764543
 H   -2.701711   -2.044761    4.060538
 H    0.188720   -1.415413    2.879300
 H   -0.373110   -3.831396    4.037311
 H    1.209024   -1.971602    0.805165
 H    1.589653   -4.135392   -0.632698
 H    2.260396   -4.722798    0.905153
 H    4.242836   -3.880458   -0.011624
 H    3.630634   -2.331059    0.588158
 H    4.888319   -1.324292   -1.065610
 H    5.471544   -0.911295   -3.331560
 H    4.060514   -1.892532   -3.823411
 H    3.610933    0.435241   -4.352326
 H    2.546513   -0.041496   -3.011679
 H    0.946534   -1.592952   -1.385214
