36 
3rhx_ligand_xtb.xyz
 C   -1.434778    0.038552    0.248531
 C   -0.846526   -0.815351    1.191582
 N   -2.456627   -0.348321   -0.505370
 C   -2.901572   -1.591868   -0.328922
 N   -3.984959   -1.967127   -1.048366
 N   -2.391294   -2.492103    0.514916
 C   -1.377808   -2.092030    1.263523
 C    0.274868   -0.314980    2.043735
 C    1.199406    0.603786    1.226620
 C    1.999371   -0.228372    0.245156
 C    0.388928    1.672854    0.543416
 C   -0.894641    1.385437    0.065604
 C    1.577205   -0.456366   -1.057362
 C    2.314832   -1.267950   -1.902309
 C    3.483180   -1.861795   -1.459287
 C    3.914105   -1.637169   -0.162986
 C    3.176335   -0.827038    0.680056
 C    0.913020    2.939579    0.339695
 C    0.176484    3.914003   -0.312609
 C   -1.097236    3.628189   -0.777770
 C   -1.629073    2.366942   -0.592613
 H   -4.219320   -2.943333   -1.059967
 H   -4.264347   -1.381816   -1.814725
 H   -0.975030   -2.834008    1.943063
 H   -0.141673    0.256465    2.881443
 H    0.841762   -1.153367    2.454410
 H    1.906751    1.081130    1.914486
 H    0.671068    0.002528   -1.423176
 H    1.972233   -1.435918   -2.913003
 H    4.056579   -2.494631   -2.120488
 H    4.826912   -2.093450    0.192003
 H    3.518132   -0.655706    1.691831
 H    1.908500    3.165299    0.696094
 H    0.598152    4.897861   -0.458108
 H   -1.671070    4.388811   -1.286251
 H   -2.615088    2.114438   -0.950230
