86 
3rjw_ligand_xtb.xyz
 N    2.725437    0.270284   -0.436411
 C    2.429152    1.575308   -0.402504
 N    1.235695    2.094311   -0.526137
 C    0.204200    1.241666   -0.710523
 C    0.388219   -0.161276   -0.766041
 C    1.745901   -0.597573   -0.610746
 C   -3.188612   -2.552522   -0.773705
 C   -1.075700    2.348326    2.776988
 C   -1.602554   -0.107370    2.599165
 C   -1.095766    1.769270   -0.841317
 C   -0.722796   -1.004695   -0.935717
 C    6.467279    2.976124    0.199808
 C    5.776878    3.308961   -1.118963
 C    5.481129    3.096011    1.357177
 C   -5.576942   -1.607629    1.817320
 C   -6.099843   -0.225078    2.279479
 C   -5.654813    1.344746   -1.976973
 C   -4.150578    1.326496   -2.242385
 C    4.579855    2.391547   -1.342504
 C    4.283686    2.178887    1.135977
 C    3.664006   -2.504612    1.129445
 C    3.683435   -3.700973   -1.070102
 C   -5.909586   -1.721522    0.336953
 C   -6.067614    0.637641    1.013310
 C   -6.175727    0.027258   -1.403209
 C    5.086261   -3.027230    1.368187
 C    5.105150   -4.176912   -0.734383
 N    2.079068   -1.905772   -0.666063
 O   -3.138920   -1.187922   -1.150144
 O   -3.452736    1.445517   -1.007360
 C   -1.986150   -0.475458   -1.035299
 C   -2.167920    0.935673   -0.991584
 C   -2.171605    1.305477    2.597756
 C    3.419904   -2.365369   -0.378347
 C    3.583439    2.509800   -0.185393
 N   -5.636004   -0.290622   -0.082899
 N    5.350906   -4.280736    0.689340
 H   -2.544000   -2.749540    0.085212
 H   -2.687380    1.486518    1.652680
 H   -2.902594   -3.198415   -1.607610
 H   -0.546548    2.187837    3.714398
 H   -0.357770    2.288409    1.961898
 H   -1.497703    3.350616    2.788301
 H   -0.864344   -0.215383    1.807048
 H   -1.119849   -0.323526    3.550313
 H   -2.390460   -0.841205    2.441123
 H   -1.231472    2.836853   -0.787464
 H   -0.595941   -2.076134   -0.979432
 H    7.313494    3.648512    0.358670
 H    6.853354    1.954986    0.158332
 H    6.482014    3.203714   -1.946602
 H    5.438121    4.347402   -1.097982
 H    5.136352    4.129920    1.433401
 H    5.974956    2.837747    2.296748
 H   -6.012397   -2.420496    2.396271
 H   -4.490509   -1.641917    1.962852
 H   -5.487795    0.202217    3.073366
 H   -7.120759   -0.319857    2.649587
 H   -6.166804    1.534930   -2.921147
 H   -5.876078    2.169472   -1.297962
 H   -3.873669    2.175949   -2.883397
 H   -3.870263    0.400341   -2.754661
 H    4.912968    1.354083   -1.408192
 H    4.080793    2.646932   -2.279984
 H    3.574029    2.282870    1.959925
 H    4.612909    1.138583    1.101427
 H    3.529665   -1.534984    1.609469
 H    2.937937   -3.204294    1.554894
 H    2.960446   -4.443560   -0.717832
 H    3.567669   -3.596450   -2.149627
 H   -7.011105   -1.832916    0.250618
 H   -4.257164   -2.692422   -0.481543
 H   -5.369154    1.471386    1.089561
 H   -7.058809    1.021922    0.766177
 H   -5.901113   -0.800612   -2.061668
 H   -7.266906    0.054294   -1.328467
 H    5.263993   -3.170648    2.436223
 H    5.807923   -2.294266    0.995834
 H    5.829207   -3.464329   -1.140524
 H    5.293679   -5.152450   -1.188339
 H    1.341530   -2.589037   -0.611488
 H   -2.903083    1.401716    3.404156
 H    4.094958   -1.598796   -0.771725
 H    3.183640    3.526907   -0.147124
 H   -4.615079   -0.225532   -0.155406
 H    4.762905   -5.010200    1.083712
