34 
3rk9_ligand_dft.xyz
 C    5.465234   -0.847668   -0.233267
 C    3.946822   -0.979394   -0.155886
 C    3.518362   -2.145054    0.740827
 N    3.391359    0.296342    0.284255
 C    2.072435    0.623675    0.159431
 N    1.500795    1.540878    0.885741
 C    0.189682    1.712701    0.500313
 C   -0.254188    0.934937   -0.530892
 S    1.049199   -0.112513   -1.057783
 N   -0.576211    2.614799    1.230147
 C   -1.631251    0.826385   -1.113844
 C   -2.511578   -0.173543   -0.383716
 C   -2.721391   -0.088606    0.995444
 C   -3.559379   -1.014226    1.598254
 C   -4.155443   -1.994826    0.805033
 N   -3.967275   -2.095244   -0.509934
 C   -3.160558   -1.192635   -1.075717
 O   -2.214374    2.130828   -1.071770
 H    5.750843   -0.026178   -0.895920
 H    5.887402   -0.653899    0.760790
 H    5.910281   -1.774324   -0.607338
 H    3.569536   -1.152508   -1.171634
 H    3.904894   -2.005398    1.757151
 H    2.427950   -2.218314    0.794435
 H    3.907106   -3.093316    0.355006
 H    3.800564    0.692898    1.121612
 H   -0.005252    3.325242    1.669139
 H   -1.336146    2.997362    0.679822
 H   -1.551791    0.500766   -2.163364
 H   -2.224925    0.686177    1.575148
 H   -3.748081   -0.986612    2.666583
 H   -4.815497   -2.736252    1.250812
 H   -3.018393   -1.292944   -2.152056
 H   -3.163845    2.022979   -1.208833
