101 
3rl8_ligand_dft.xyz
 N    1.223089    0.607563   -2.411328
 C    1.190645   -0.759823   -3.005468
 C    0.566314   -1.794594   -2.063979
 O    0.127420   -2.825315   -2.565211
 C    2.604806   -1.187852   -3.444581
 C    3.616133   -1.151466   -2.322095
 C    4.497874   -0.079422   -2.180740
 C    3.671317   -2.177579   -1.372161
 C    5.402861   -0.017781   -1.124197
 C    4.557318   -2.129272   -0.306625
 C    5.429757   -1.044278   -0.176823
 O    6.313912   -0.921426    0.839665
 N    0.591147   -1.555089   -0.744265
 C    0.088029   -2.524432    0.223554
 C   -1.419176   -2.256550    0.375292
 O   -1.858879   -1.635582    1.345505
 C    0.850488   -2.366399    1.533726
 C    0.512041   -3.399690    2.615857
 C    1.307862   -3.079274    3.883387
 C    0.780026   -4.835169    2.155455
 N   -2.152107   -2.684100   -0.671326
 C   -3.570074   -2.403413   -0.920023
 C   -3.783488   -0.920579   -1.275472
 O   -4.195725   -0.563290   -2.363116
 C   -4.504378   -2.900492    0.203365
 C   -5.960080   -2.604735   -0.166733
 C   -4.291285   -4.393779    0.455269
 N   -3.503564   -0.057326   -0.253028
 C   -3.471680    1.358999   -0.457788
 C   -2.072602    1.824987   -0.907777
 O   -1.259634    1.023721   -1.379395
 C   -4.033441    2.060145    0.794091
 O   -4.182455    3.439793    0.467518
 C   -3.177307    1.866229    2.042587
 N   -1.813863    3.140545   -0.802842
 C   -0.590053    3.729268   -1.296818
 C    0.671956    3.212238   -0.591269
 O    1.715865    3.058673   -1.223499
 C   -0.682899    5.247324   -1.160246
 O   -0.965603    5.518574    0.197721
 N    0.548310    2.948923    0.721140
 C    1.638512    2.522222    1.578187
 C    2.555142    1.577190    0.820657
 O    3.827792    1.878843    0.959532
 C    1.063503    1.794392    2.820325
 C    0.334376    2.784480    3.734354
 C    2.154695    1.057087    3.602340
 O    2.173087    0.580931    0.226106
 H    1.532154    1.314802   -3.081235
 H    1.874446    0.676770   -1.611359
 H    0.278790    0.896944   -2.052635
 H    0.530196   -0.714107   -3.873352
 H    2.506710   -2.194656   -3.861638
 H    2.926183   -0.536363   -4.265827
 H    4.503812    0.718263   -2.920345
 H    3.012991   -3.036880   -1.470602
 H    6.128673    0.787312   -1.051785
 H    4.583321   -2.941525    0.415698
 H    6.302516   -1.713397    1.391577
 H    0.952193   -0.691963   -0.353519
 H    0.245078   -3.516877   -0.208726
 H    1.922907   -2.416738    1.299595
 H    0.652817   -1.361959    1.927051
 H   -0.554089   -3.299879    2.850708
 H    1.048347   -3.766706    4.694498
 H    2.386457   -3.171237    3.701429
 H    1.109340   -2.058868    4.230273
 H    0.606353   -5.541971    2.972866
 H    1.821190   -4.955103    1.828587
 H    0.129357   -5.136307    1.327169
 H   -1.626236   -3.074526   -1.447889
 H   -3.819975   -2.945527   -1.835756
 H   -4.257953   -2.358258    1.122102
 H   -6.237498   -3.105925   -1.101371
 H   -6.630513   -2.965382    0.619118
 H   -6.140864   -1.532870   -0.295840
 H   -4.510651   -4.977904   -0.446893
 H   -3.263145   -4.610343    0.760230
 H   -4.958699   -4.743061    1.249008
 H   -2.997170   -0.446831    0.540195
 H   -4.140163    1.582800   -1.297834
 H   -5.021149    1.613049    0.959760
 H   -4.572498    3.897822    1.221709
 H   -2.173535    2.277130    1.894134
 H   -3.629370    2.375343    2.900410
 H   -3.078713    0.808976    2.305224
 H   -2.517409    3.729307   -0.357172
 H   -0.450782    3.486803   -2.355800
 H   -1.481302    5.613674   -1.819839
 H    0.268408    5.689592   -1.482889
 H   -1.049894    6.471551    0.316709
 H   -0.312191    3.236072    1.165228
 H    2.238904    3.382768    1.895896
 H    4.351623    1.204265    0.480148
 H    0.345556    1.055640    2.438326
 H   -0.129935    2.250957    4.568707
 H    1.037220    3.514900    4.150573
 H   -0.462405    3.342146    3.229042
 H    2.594805    0.239666    3.021927
 H    2.957640    1.738544    3.904408
 H    1.727680    0.619211    4.509017
