35 
3rlb_ligand_xtb.xyz
 C   -5.669705   -0.668216   -0.742441
 N   -1.943808   -0.458310    2.095009
 C    2.319279    1.871239    0.989080
 O    4.535345    1.035481   -1.066468
 C    4.869824   -0.301832   -0.776250
 C    4.107985   -0.716626    0.493992
 C    0.317438   -0.887615   -0.304725
 S    1.688935   -1.860666   -0.339564
 C    2.642378   -0.559931    0.295075
 C    1.870151    0.550038    0.485537
 N    0.556383    0.329495    0.149810
 C   -0.469163    1.363930    0.271637
 C   -2.521824   -0.003810    0.947916
 N   -3.732376   -0.476098    0.673792
 C   -4.313040   -0.134369   -0.466437
 N   -3.763308    0.666260   -1.375948
 C   -2.560694    1.138478   -1.123220
 C   -1.851193    0.838527    0.032831
 H   -5.873888   -1.523183   -0.106148
 H   -6.404537    0.108896   -0.536055
 H   -5.757234   -0.932077   -1.792578
 H   -2.581205   -0.957150    2.698327
 H   -1.269995    0.119451    2.569765
 H    1.989948    2.034222    2.015344
 H    3.401741    1.926554    0.950661
 H    1.924713    2.672485    0.368643
 H    5.104221    1.363192   -1.770734
 H    5.944207   -0.413077   -0.591477
 H    4.586048   -0.961092   -1.609314
 H    4.436481   -0.085790    1.320336
 H    4.349211   -1.754064    0.723083
 H   -0.655130   -1.217158   -0.617673
 H   -0.248464    2.145845   -0.463140
 H   -0.379277    1.803751    1.270660
 H   -2.139411    1.787689   -1.881543
