29 
3rlp_ligand_xtb.xyz
 N   -4.048735    0.473508    0.136994
 N   -4.149118   -1.453550    1.373590
 C   -3.314831    1.373389   -0.497039
 C   -4.036620    2.523034   -1.123629
 C    0.103223   -0.086991   -0.017041
 C    0.654413   -1.340772   -0.267660
 C    2.031084   -1.512571   -0.299880
 C    2.341096    0.840563    0.184700
 C    0.961773    0.989023    0.203027
 C   -1.929093    1.251068   -0.582215
 C    2.863455   -0.436106   -0.072267
 C   -1.352904    0.137898    0.024130
 C   -3.405714   -0.557540    0.692059
 C    2.763354    3.131521    0.653742
 N   -2.090112   -0.762611    0.661315
 O    3.239146    1.832281    0.395381
Cl   -0.341671   -2.703237   -0.593749
Cl    4.570562   -0.644511   -0.100916
 H   -5.147580   -1.408975    1.281261
 H   -3.707941   -2.308351    1.661010
 H   -5.100043    2.439468   -0.921685
 H   -3.663876    3.463971   -0.722751
 H   -3.871953    2.525032   -2.199792
 H    2.450319   -2.484748   -0.501497
 H    0.523065    1.951031    0.414366
 H   -1.336686    1.970971   -1.122216
 H    2.178642    3.518718   -0.186587
 H    2.159956    3.164040    1.566127
 H    3.652133    3.745789    0.787157
