35 
3rlr_ligand_xtb.xyz
 N    3.349189    1.947385    0.233280
 N    4.079635   -0.231292   -0.459674
 C    1.868530    0.065626   -0.168125
 C    2.103239   -1.273277   -0.624731
 C    3.465205   -1.411573   -0.784500
 C    2.401780    4.078244    0.839428
 C   -0.595398    0.380344    0.245775
 C   -2.248966   -1.211677    0.984777
 C   -1.588439    1.072697   -0.441638
 C    1.134525   -2.240890   -0.916285
 C   -2.904721    0.633419   -0.447600
 C   -0.941383   -0.752375    0.975047
 C   -3.214881   -0.533243    0.269558
 C    0.788945    0.875443    0.189320
 C    3.140942    0.686557   -0.102263
 C    2.242815    2.635570    0.492859
 C    4.238955   -2.595918   -1.227350
 C   -3.668389    2.420573   -1.811578
 N    0.342892   -3.026013   -1.189126
 N    1.004097    2.152560    0.479892
 O   -3.928585    1.238583   -1.091435
Cl    0.224967   -1.567816    1.949195
Cl   -4.836220   -1.101509    0.264028
 H    3.061018    4.178317    1.698547
 H    2.858211    4.608897    0.006449
 H    1.431151    4.507639    1.064709
 H   -2.512324   -2.093213    1.546116
 H   -1.295433    1.963063   -0.973456
 H    4.843166   -2.354906   -2.102197
 H    4.909901   -2.931580   -0.435983
 H    3.560626   -3.407035   -1.478437
 H   -3.282852    3.209968   -1.159501
 H   -2.963033    2.243663   -2.629239
 H   -4.628472    2.727237   -2.223129
 H    5.070784   -0.057811   -0.493943
