45 
3rm8_ligand_xtb.xyz
 C   -3.824654   -0.950892    1.746090
 N   -1.529271   -1.714865    1.455254
 C   -2.611863   -1.243594    0.945662
 N   -1.839392    2.787002   -0.456764
 C   -2.511546   -1.029836   -0.521626
 N    0.806422    1.902745    0.193202
 C   -1.147490   -1.460487   -0.818833
 N    2.572525    0.783367   -0.725887
 C   -0.395904   -1.525804   -1.971947
 C    0.896295   -2.030105   -1.884984
 C    1.416077   -2.459170   -0.675202
 C    0.675316   -2.380426    0.498295
 C   -0.604409   -1.875655    0.415618
 C   -3.454424   -0.560846   -1.338017
 C   -0.930966    2.274391   -1.469343
 C    0.541802    2.492757   -1.100720
 C   -0.046206    2.423880    1.231879
 C   -1.519015    2.220011    0.839202
 C    1.833605    1.028301    0.363160
 C    2.129780    0.407548    1.591580
 C    3.214159   -0.435918    1.664075
 C    3.987251   -0.667796    0.531714
 C    3.603005   -0.035668   -0.634465
 H   -4.651695   -1.575186    1.408839
 H   -3.627894   -1.153898    2.794869
 H   -4.115754    0.091759    1.623841
 H   -1.750393    3.799844   -0.410578
 H   -0.797177   -1.200869   -2.921342
 H    1.502958   -2.091264   -2.776075
 H    2.418620   -2.858669   -0.641539
 H    1.081394   -2.706806    1.442355
 H   -3.277280   -0.441317   -2.394024
 H   -4.428573   -0.279245   -0.976159
 H   -1.158517    2.759675   -2.420457
 H   -1.117684    1.202614   -1.564493
 H    1.203988    2.021701   -1.825162
 H    0.756312    3.571460   -1.060158
 H    0.150990    3.501875    1.351419
 H    0.147154    1.933641    2.182486
 H   -1.722912    1.147825    0.790231
 H   -2.171866    2.667937    1.591776
 H    1.525633    0.571804    2.468402
 H    3.459579   -0.915936    2.601265
 H    4.846314   -1.318828    0.559598
 H    4.149950   -0.180009   -1.558560
