31 
3rm9_ligand_xtb.xyz
 C    1.826417   -1.142292    0.431385
 N   -0.309951   -0.032942    0.032792
Cl    5.602125    0.041861   -0.072475
 C    3.207146   -1.126001    0.386783
 N   -3.125862   -0.011786   -0.007740
 C    3.870875    0.015609   -0.025404
 N   -5.064108   -1.121535   -0.484486
 C    3.152506    1.138882   -0.402292
 N   -5.161964    1.065622    0.410229
 C    1.774585    1.114570   -0.365240
 C    1.074142   -0.023276    0.057135
 C   -1.056264    1.089126    0.559749
 C   -2.387281    1.218548   -0.182617
 C   -2.392584   -1.139196   -0.542121
 C   -1.048364   -1.268991    0.176556
 C   -4.498554   -0.068620   -0.052541
 H    1.337769   -2.037630    0.780377
 H    3.767294   -1.998851    0.684080
 H   -6.075109   -1.112492   -0.404056
 H    3.671033    2.025070   -0.733566
 H   -6.147317    0.921594    0.574231
 H   -4.715181    1.584956    1.149435
 H    1.235067    1.989778   -0.692214
 H   -0.482660    2.008316    0.457630
 H   -1.265416    0.929019    1.631034
 H   -2.946601    2.070722    0.201060
 H   -2.185491    1.390666   -1.251133
 H   -2.216325   -1.006486   -1.618424
 H   -3.001464   -2.030361   -0.397623
 H   -1.223642   -1.510731    1.236630
 H   -0.490625   -2.080869   -0.289311
