50 
3ro4_ligand_dft.xyz
 C   -3.714336   -3.932372    1.093283
 C   -3.800163   -3.162871   -0.231343
 C   -2.935763   -1.941641   -0.236954
 N   -3.443875   -0.734935   -0.156203
 N   -2.402919    0.148383   -0.163485
 C   -1.202874   -0.500832   -0.227446
 C    0.114720   -0.033707   -0.180219
 C    1.130067   -0.975642   -0.249625
 C    0.844437   -2.355892   -0.347568
 C   -0.463496   -2.806715   -0.354036
 C   -1.502693   -1.875651   -0.287749
 N    2.480369   -0.495654   -0.188775
 C    3.573032   -1.468715   -0.142522
 C    4.810102   -0.556432   -0.089330
 C    5.082355   -0.076071    1.342076
 N    4.148702    1.094591    1.456638
 C    4.382550    1.854077    0.181821
 C    4.348867    0.733161   -0.866529
 C    2.905546    0.401792   -1.275252
 C   -2.649745    1.539592   -0.071122
 C   -3.624889    2.005054    0.808721
 C   -3.862938    3.370932    0.901726
 C   -3.126562    4.270735    0.133719
 C   -2.161774    3.796478   -0.749595
 C   -1.927166    2.429483   -0.864597
 H   -4.350815   -4.821533    1.063635
 H   -2.689236   -4.257037    1.302079
 H   -4.043658   -3.303117    1.925684
 H   -4.831784   -2.852474   -0.418806
 H   -3.504357   -3.818260   -1.059548
 H    0.330264    1.023502   -0.065981
 H    1.648062   -3.080315   -0.412323
 H   -0.672704   -3.870404   -0.412036
 H    3.604536   -2.097286   -1.046384
 H    3.482788   -2.125750    0.726637
 H    5.696777   -1.028193   -0.512947
 H    4.850517   -0.806253    2.118416
 H    6.098071    0.300326    1.482122
 H    3.184564    0.707899    1.395771
 H    4.267575    1.648869    2.307421
 H    3.608312    2.613314    0.062075
 H    5.359291    2.336130    0.262829
 H    4.982463    0.981272   -1.718141
 H    2.263948    1.282463   -1.343551
 H    2.878486   -0.113335   -2.247545
 H   -4.191396    1.293243    1.398492
 H   -4.625432    3.734277    1.583288
 H   -3.314806    5.336448    0.214529
 H   -1.605564    4.489444   -1.373566
 H   -1.217493    2.051502   -1.594118
