49 
3roc_ligand_xtb.xyz
 C   -5.222307    0.831749   -0.101508
 C   -6.030213    1.817475   -0.658611
 C   -7.396805    1.855130   -0.466731
 C   -7.960426    0.861271    0.314621
 C   -7.197041   -0.138646    0.888046
 C   -5.829285   -0.145206    0.675150
 C   -3.740956    0.862322   -0.354764
 O   -3.146364   -0.301386    0.193429
 C   -1.832494   -0.443535    0.033965
 C   -1.199252   -1.553215    0.540391
 C    0.217744   -1.748150    0.392221
 N    0.827002   -0.703825   -0.351859
 C    0.125419    0.355795   -0.783170
 N   -1.143941    0.518428   -0.629103
 C    2.235929   -0.760442   -0.573566
 C    2.791112   -1.780795   -1.347859
 C    4.170935   -1.776515   -1.520460
 C    4.973403   -0.807475   -0.949473
 C    4.406317    0.207546   -0.186151
 C    3.028548    0.227494   -0.014330
 F   -5.457950    2.774049   -1.417996
 F   -9.290151    0.875072    0.516221
Cl   -2.077315   -2.757594    1.398236
 O    0.878066   -2.665796    0.824072
 C    1.944578   -2.835418   -1.981123
 C    5.199409    1.318763    0.424537
 O    4.743112    2.438948    0.555472
 N    6.433718    0.969515    0.844419
 C    7.383450    1.923769    1.357281
 C    8.548687    2.104536    0.383083
 O    9.195609    0.854771    0.242828
 H   -8.000107    2.629750   -0.910629
 H   -7.671796   -0.896463    1.489975
 H   -5.216293   -0.916949    1.110917
 H   -3.296133    1.758124    0.099213
 H   -3.539742    0.914325   -1.432755
 H    0.671499    1.124957   -1.313053
 H    4.621187   -2.552254   -2.122014
 H    6.038316   -0.831699   -1.128887
 H    2.586156    1.019105    0.572180
 H    1.641584   -3.557948   -1.223103
 H    1.040855   -2.407124   -2.413160
 H    2.497356   -3.356962   -2.757776
 H    6.786309    0.039728    0.684965
 H    7.771788    1.570069    2.316577
 H    6.857265    2.870266    1.493047
 H    9.238247    2.860291    0.780392
 H    8.165402    2.449231   -0.587413
 H    9.974018    0.960721   -0.312402
