39 
3rpr_ligand_xtb.xyz
 C    3.751917    0.033538   -1.970525
 F    5.255352    2.220481   -1.183675
 N   -1.852624    0.153094    0.843275
 O    1.793892   -1.645130    2.283613
 S   -1.269591   -2.124812   -0.219796
 C    3.878314    0.364824   -0.630128
 F    5.987131    0.870890    0.320427
 N   -3.566066   -0.773807   -0.503201
 C    3.115328   -0.272621    0.339004
 F    4.364989    2.206712    0.773453
 N    0.028932    0.692905    2.142017
 C    2.205257   -1.248055   -0.034872
 C    2.079211   -1.583673   -1.378627
 C    2.846854   -0.949047   -2.336605
 C    4.862501    1.409550   -0.190112
 C    1.297404   -1.898057    0.987546
 C   -0.084045   -1.338150    0.794764
 C   -2.348345   -0.755408    0.078942
 C   -0.584846   -0.147655    1.250314
 C   -4.595691    0.156976   -0.397136
 C   -5.773019   -0.093725   -1.100948
 C   -6.827242    0.795660   -1.031141
 C   -6.722932    1.942457   -0.261180
 C   -5.553812    2.190969    0.438327
 C   -4.490825    1.309289    0.376273
 H    4.350706    0.537203   -2.713274
 H    1.155751   -1.969789    2.927972
 H   -3.761239   -1.579597   -1.080721
 H    3.238931   -0.023947    1.381189
 H    1.029874    0.599018    2.209681
 H   -0.321687    1.636454    2.135713
 H    1.370425   -2.344937   -1.670606
 H    2.742115   -1.218520   -3.376172
 H    1.266940   -2.983452    0.793977
 H   -5.856787   -0.989039   -1.701639
 H   -7.734343    0.591392   -1.580322
 H   -7.547845    2.636308   -0.207405
 H   -5.466297    3.082595    1.041170
 H   -3.579337    1.495023    0.918407
