123 
3rq7_ligand_xtb.xyz
 C    7.175886    1.206489    2.006432
 O    8.144876    0.737665    2.576472
 C    5.912373    1.598222    2.726339
 N    7.194456    1.348996    0.654010
 C    6.238617    2.008454   -0.204363
 C    5.162398    1.072523   -0.774393
 O    4.430112    1.433994   -1.678632
 C    7.098609    2.559042   -1.346654
 C    8.145483    1.459691   -1.509813
 C    8.418493    1.026843   -0.071706
 N    5.114973   -0.152905   -0.228076
 C    3.961943   -1.009136   -0.387806
 C    3.164787   -0.945763    0.918089
 O    3.701891   -0.760960    1.993867
 C    4.359611   -2.453220   -0.699050
 C    5.141037   -2.594517   -2.010120
 C    4.322631   -2.106502   -3.203838
 C    5.545081   -4.054917   -2.202580
 C   -0.188913   -1.774142    1.917610
 N    1.841367   -1.107445    0.758341
 O   -0.336263   -2.701170    1.123952
 C    0.915844   -0.742624    1.797527
 C    0.298796    0.640503    1.456617
 C    1.376200    1.651476    1.252066
 C    1.267891    1.881197   -1.286330
 C    0.218768    2.909435   -1.723817
 C   -1.063541    2.821314   -0.899644
 C   -2.136552    3.786891   -1.397994
 C   -3.335971    3.889848   -0.452882
 C   -4.025593    2.562029   -0.130551
 C   -4.530790    1.784451   -1.345418
 C   -5.676957    2.478664   -2.091711
 C   -6.898948    2.584951   -1.224460
 C   -7.645843    1.449099   -0.932536
 C   -8.753576    1.523806   -0.108541
 C   -9.132870    2.738872    0.436998
 C   -8.398536    3.876238    0.150879
 C   -7.289109    3.797682   -0.673059
 N    1.775419    2.149025    0.035339
 C    2.200279    2.240911    2.176902
 C    2.785128    3.007754    0.293281
 N    3.070942    3.082154    1.565636
 N   -1.026126   -1.581055    2.943107
 C   -2.202331   -2.391674    3.197371
 C   -3.306106   -1.987352    2.202868
 O   -4.231541   -1.250559    2.517260
 C   -2.654011   -2.118180    4.641900
 O   -2.812409   -0.745863    4.860595
 N   -3.145705   -2.503938    0.982824
 C   -3.970555   -2.121025   -0.150676
 C   -3.196782   -2.351189   -1.450908
 C   -3.986518   -1.914997   -2.673825
 O   -1.988967   -1.591091   -1.343398
 P   -0.636688   -2.157253   -1.935925
 O    0.482639   -1.241110   -1.692148
 O   -0.959924   -2.418681   -3.468366
 O   -0.438121   -3.632012   -1.386068
 C   -5.286926   -2.935267   -0.111526
 O   -5.504616   -3.877095   -0.836671
 N   -6.144366   -2.469676    0.809213
 H    6.126846    1.627049    3.791230
 H    5.524463    2.561788    2.407249
 H    5.136309    0.852703    2.556461
 H    5.698812    2.801410    0.323197
 H    6.504500    2.723885   -2.243182
 H    7.568742    3.495934   -1.046924
 H    9.046413    1.806194   -2.011203
 H    7.722648    0.632840   -2.082099
 H    9.253101    1.578871    0.373217
 H    8.641932   -0.039145    0.020170
 H    5.678811   -0.334383    0.592195
 H    3.357841   -0.593191   -1.197937
 H    3.448005   -3.052523   -0.752664
 H    4.966145   -2.831565    0.127461
 H    6.049306   -1.987069   -1.938157
 H    4.191202   -1.028498   -3.173358
 H    3.340805   -2.576624   -3.208085
 H    4.829653   -2.356702   -4.133070
 H    6.135930   -4.172218   -3.107898
 H    6.137259   -4.405618   -1.360524
 H    4.661025   -4.683738   -2.286027
 H    1.445412   -1.199154   -0.175151
 H    1.486530   -0.678864    2.731712
 H   -0.354574    0.966055    2.269157
 H   -0.297260    0.527195    0.550186
 H    0.844308    0.876899   -1.326776
 H    2.124681    1.916883   -1.964841
 H   -0.012079    2.728240   -2.775094
 H    0.640508    3.913743   -1.639366
 H   -1.443364    1.798883   -0.955490
 H   -0.838199    3.050228    0.144707
 H   -2.468024    3.480004   -2.391815
 H   -1.698323    4.783215   -1.497441
 H   -4.061893    4.579622   -0.886899
 H   -3.000251    4.328394    0.490220
 H   -4.872162    2.766236    0.529891
 H   -3.330392    1.925778    0.421754
 H   -3.706533    1.602226   -2.036814
 H   -4.895472    0.814471   -0.996683
 H   -5.360535    3.469331   -2.418508
 H   -5.916463    1.891305   -2.982376
 H   -7.359764    0.498063   -1.361016
 H   -9.325573    0.632650    0.106379
 H   -9.998732    2.798874    1.079656
 H   -8.689895    4.828144    0.570474
 H   -6.722096    4.691360   -0.892538
 H    2.218462    2.107943    3.240021
 H    3.288937    3.548834   -0.482247
 H   -0.920069   -0.791692    3.567657
 H   -1.952558   -3.448596    3.054803
 H   -3.582642   -2.668974    4.837728
 H   -1.885032   -2.459447    5.339149
 H   -3.536794   -0.448988    4.286239
 H   -2.292284   -3.017315    0.787156
 H   -4.213212   -1.055395   -0.049375
 H   -2.950433   -3.415336   -1.535452
 H   -4.884311   -2.519740   -2.757119
 H   -4.254585   -0.865017   -2.595332
 H   -3.377248   -2.056998   -3.561252
 H   -0.155007   -2.553681   -3.965224
 H   -0.156474   -3.576228   -0.461787
 H   -7.002318   -2.973630    0.968082
 H   -5.848430   -1.772440    1.480706
