26 
3rqw_ligand_xtb.xyz
 N    1.691479    0.184635   -0.025852
 C    0.744083   -0.825308   -0.581950
 C   -0.340500   -1.357079    0.361699
 O   -1.300079   -0.394494    0.766834
 C   -2.195061    0.011059   -0.178958
 O   -2.066918   -0.296677   -1.330652
 C   -3.270401    0.854162    0.416202
 C    2.674517    0.506322   -1.079739
 C    2.407212   -0.347704    1.148072
 C    0.981413    1.419488    0.355889
 H    1.327220   -1.684254   -0.919968
 H    0.241595   -0.386654   -1.448206
 H    0.065992   -1.772112    1.284821
 H   -0.852125   -2.155372   -0.189811
 H   -3.515293    1.673858   -0.253961
 H   -4.163809    0.239581    0.521624
 H   -2.980250    1.220810    1.395641
 H    3.368454    1.266451   -0.724949
 H    3.241740   -0.381250   -1.354559
 H    2.168996    0.884752   -1.966511
 H    2.878996   -1.298018    0.904370
 H    3.178520    0.354505    1.460297
 H    1.722488   -0.492836    1.980468
 H    1.693640    2.162757    0.709800
 H    0.448094    1.825780   -0.502318
 H    0.263777    1.213288    1.147479
