30 
3rr4_ligand_xtb.xyz
 N   -2.750366   -1.069718   -0.039421
 N   -2.883935    1.167471    0.001744
 C   -3.547665   -0.035090   -0.026280
 C   -5.572926   -1.354147    0.102156
 C   -1.535110    0.866255   -0.007333
 C   -0.408079    1.642901    0.008780
 C    0.824185    0.981424    0.002146
 C    3.190144   -0.392723   -0.013379
 C    0.901659   -0.434860   -0.019978
 C   -0.260399   -1.207684   -0.035473
 C   -1.477743   -0.556567   -0.029690
 N   -4.899269   -0.093053   -0.101553
 C    2.048789    1.760487    0.017033
 O    2.141236    2.973437    0.036016
 N    3.202430    0.982838    0.011815
 N    4.402078   -1.000988   -0.074037
 C    4.533657   -2.430398    0.059950
 N    2.106948   -1.089534   -0.023830
 H   -4.892498   -2.139710   -0.216068
 H   -5.835756   -1.517362    1.152000
 H   -6.479297   -1.379789   -0.502286
 H   -0.428094    2.721721    0.025440
 H   -0.191648   -2.281722   -0.052517
 H   -5.405437    0.736423    0.169734
 H    4.078078    1.491511    0.007026
 H    5.219593   -0.442755    0.114890
 H    4.835853   -2.716302    1.071521
 H    3.560753   -2.863789   -0.156908
 H    5.272328   -2.799691   -0.651866
 H   -3.288053    2.087274   -0.019703
