26 
3rsx_ligand_dft.xyz
 C   -1.993603    0.694793   -0.108675
 C   -1.439699   -0.593253    0.106486
 C   -0.038406   -0.757926    0.155891
 C    2.280973    0.141014    0.024126
 C    3.191358    1.094805    0.589888
 C    2.945309   -0.946187   -0.477358
 N   -3.335122    0.927753   -0.156444
 C   -4.146908   -0.095212   -0.007827
 C   -2.354828   -1.668889    0.275133
 C   -3.694197   -1.434909    0.215216
 N   -5.499235    0.147976   -0.118766
 C   -1.106567    1.787146   -0.270972
 C    0.250649    1.598926   -0.223978
 C    0.814526    0.313007   -0.011510
 C    4.492750    0.706323    0.506638
 S    4.649313   -0.826476   -0.266498
 H    0.366792   -1.748151    0.351967
 H    2.873721    2.017707    1.061788
 H    2.517857   -1.795671   -0.992611
 H   -1.974476   -2.673036    0.445273
 H   -4.415161   -2.239571    0.323681
 H   -5.746780    1.125737   -0.062881
 H   -6.124656   -0.474254    0.369883
 H   -1.536612    2.768794   -0.440675
 H    0.914798    2.445937   -0.372707
 H    5.367855    1.228191    0.868370
