26 
3rsx_ligand_xtb.xyz
 C   -1.979842    0.695513   -0.101203
 C   -1.429494   -0.600117    0.092417
 C   -0.037356   -0.763632    0.127713
 C    2.260559    0.145981    0.018706
 C    3.165117    1.120298    0.531166
 C    2.925166   -0.961665   -0.424093
 N   -3.307088    0.918748   -0.146959
 C   -4.125907   -0.096463    0.003061
 C   -2.339691   -1.674444    0.242158
 C   -3.677498   -1.433155    0.198922
 N   -5.461340    0.180372    0.020436
 C   -1.098742    1.784487   -0.258065
 C    0.253129    1.596000   -0.217121
 C    0.809166    0.313538   -0.021974
 C    4.458331    0.727447    0.465970
 S    4.626443   -0.836178   -0.232671
 H    0.365235   -1.753145    0.294274
 H    2.851551    2.058621    0.951930
 H    2.516023   -1.840617   -0.880667
 H   -1.956645   -2.675520    0.387389
 H   -4.403607   -2.224865    0.309813
 H   -5.725053    1.105321   -0.273739
 H   -6.114792   -0.563896   -0.148054
 H   -1.525037    2.763634   -0.411375
 H    0.916960    2.436934   -0.354553
 H    5.333644    1.255818    0.787433
