114 
3rt4_ligand_xtb.xyz
 O   -7.253165    0.421744   -2.170280
 P   -6.192813    1.437930   -1.572657
 O   -6.746141    2.502816   -0.738771
 O   -5.407634    1.824200   -2.879306
 O   -5.179954    0.444681   -0.772339
 C   -4.895176    0.803016    0.543785
 C   -3.495734    0.274363    0.904000
 N   -2.456126    0.764565    0.031561
 C   -2.512080    1.681844   -0.947246
 C   -1.273370    1.690334   -1.835312
 C    0.072103    1.551975   -1.109276
 O    0.208024    0.285034   -0.475490
 C    0.282021    2.623349   -0.036557
 C    0.558381    4.003003   -0.630203
 C    1.037060    5.024840    0.405316
 C    2.325703    4.648411    1.142068
 C    3.502541    4.375764    0.207525
 C    4.803324    4.048057    0.944729
 C    4.723480    2.838822    1.880236
 C    4.224258    1.567010    1.199454
 C    4.210763    0.374960    2.152991
 C    3.524493   -0.839851    1.532683
 C    3.499703   -2.028428    2.486303
 O   -3.447127    2.434660   -1.166950
 C   -3.552118   -1.263088    0.830579
 C   -4.675784   -1.799760    1.733939
 C   -5.991978   -1.120239    1.343926
 O   -5.845389    0.293066    1.420649
 C   -7.152519   -1.478254    2.276096
 O   -8.332219   -0.848806    1.865553
 O   -4.829752   -3.184837    1.595540
 O   -2.329861   -1.848958    1.298284
 C   -1.399514   -2.214414    0.405417
 O   -1.516458   -2.065864   -0.784193
 C   -0.204383   -2.795179    1.107892
 C    0.558433   -3.841803    0.283627
 O    1.383907   -4.518922    1.210392
 C    1.361250   -3.196916   -0.851889
 C    2.188160   -4.210944   -1.642665
 C    2.799884   -3.612535   -2.911200
 C    3.748468   -2.435959   -2.673141
 C    4.955258   -2.787040   -1.805036
 C    5.949470   -1.629461   -1.725850
 C    7.080894   -1.922771   -0.742569
 C    8.172628   -0.851861   -0.723710
 C    7.677439    0.500628   -0.214966
 C    8.796787    1.527517   -0.036506
 C    9.692514    1.236174    1.161797
 H   -8.095606    0.548777   -1.735398
 H   -4.648167    2.353976   -2.602960
 H   -4.952823    1.890780    0.658734
 H   -3.280229    0.567936    1.942027
 H   -1.556196    0.299244    0.136439
 H   -1.392093    0.857188   -2.536066
 H   -1.280114    2.614873   -2.412392
 H    0.871437    1.649876   -1.862067
 H    0.093528   -0.413745   -1.133847
 H   -0.591308    2.666411    0.615539
 H    1.130918    2.298734    0.564911
 H   -0.356448    4.386751   -1.085720
 H    1.305631    3.914745   -1.421028
 H    1.189339    5.976683   -0.108712
 H    0.247020    5.173478    1.144896
 H    2.139801    3.775290    1.766739
 H    2.589281    5.471927    1.810155
 H    3.261982    3.548477   -0.459634
 H    3.671468    5.258737   -0.414160
 H    5.111223    4.916878    1.531651
 H    5.580278    3.863867    0.198064
 H    4.072722    3.072485    2.725216
 H    5.722031    2.654425    2.284755
 H    4.857390    1.342436    0.338931
 H    3.209008    1.719678    0.831174
 H    5.233947    0.113620    2.433445
 H    3.682104    0.653262    3.068429
 H    2.501835   -0.563721    1.258968
 H    4.049891   -1.116018    0.616286
 H    4.513117   -2.350523    2.717383
 H    3.011608   -1.755092    3.419583
 H    2.960264   -2.869397    2.057004
 H   -3.719384   -1.568182   -0.209628
 H   -4.428878   -1.537803    2.776196
 H   -6.249281   -1.414676    0.317937
 H   -6.886207   -1.180607    3.300293
 H   -7.328465   -2.554173    2.243132
 H   -8.130944    0.089593    1.751933
 H   -3.985271   -3.608507    1.792274
 H   -0.517548   -3.245399    2.050055
 H    0.471876   -1.970403    1.348051
 H   -0.165848   -4.552314   -0.149060
 H    1.880043   -5.198948    0.742877
 H    0.651594   -2.714328   -1.523633
 H    2.017897   -2.439991   -0.423499
 H    1.544869   -5.045585   -1.936665
 H    2.990374   -4.609606   -1.018118
 H    1.991516   -3.280802   -3.567291
 H    3.344884   -4.401683   -3.434768
 H    4.106426   -2.089044   -3.645826
 H    3.203653   -1.608314   -2.215007
 H    5.455491   -3.667001   -2.216410
 H    4.625080   -3.034814   -0.794469
 H    6.368994   -1.442004   -2.717069
 H    5.417277   -0.727906   -1.416131
 H    6.664716   -2.026795    0.262628
 H    7.536397   -2.879839   -1.010041
 H    8.981150   -1.203713   -0.080517
 H    8.579876   -0.731371   -1.730585
 H    6.953138    0.902978   -0.926016
 H    7.168569    0.360618    0.741128
 H    9.402447    1.563224   -0.944940
 H    8.346082    2.514077    0.098416
 H    9.101571    1.188234    2.074254
 H   10.436473    2.021178    1.277122
 H   10.215680    0.291050    1.041838
