58 
3rtn_ligand_xtb.xyz
 C   -0.130898   -1.845863    1.200409
 C   -0.338193   -1.450185   -0.146454
 C   -1.549459   -0.837807   -0.507607
 C    1.962578   -2.660291    0.725824
 C    0.727291   -1.656145   -1.051924
 C   -5.167908    2.052175    0.170783
 C   -5.919969    0.114011   -1.018443
 C   -4.549568   -1.980455   -1.159774
 C    3.637730    0.047786   -1.001123
 C    2.587945    1.635229    0.603549
 C    2.856838    4.125949    0.734887
 C    0.603400    3.137901    0.276409
 C    3.519030    2.816387    0.319700
 C    1.535564    4.312104   -0.004085
 C    1.259789    1.824165   -0.133548
 N    3.224827    0.373959    0.242353
 O    3.574848    0.789977   -1.959399
 C    4.197802   -1.367154   -1.105053
 C    3.081965   -2.331154   -1.548306
 C    1.893369   -2.233074   -0.637540
 N    1.001363   -2.462280    1.593745
 N    3.112581   -3.235244    1.219030
 C   -1.137516   -1.585635    2.150063
 C   -2.295462   -0.963899    1.773297
 C   -2.519699   -0.592216    0.433387
 C   -3.783522    0.082750    0.066284
 C   -4.003899    1.383636    0.502544
 C   -6.128164    1.414615   -0.595014
 C   -4.753762   -0.567871   -0.698948
 H   -1.698078   -0.536726   -1.535315
 H    0.619148   -1.319120   -2.073924
 H   -5.325186    3.065606    0.509493
 H   -6.677741   -0.384775   -1.606532
 H   -5.502706   -2.446640   -1.398521
 H   -3.928127   -2.002215   -2.055049
 H   -4.047983   -2.568705   -0.393723
 H    2.392439    1.584094    1.681066
 H    3.527325    4.959585    0.517484
 H    2.672221    4.116852    1.812488
 H   -0.333513    3.262793   -0.270177
 H    0.366389    3.107431    1.343339
 H    3.739017    2.833694   -0.747613
 H    4.458179    2.677524    0.860216
 H    1.728922    4.369461   -1.076806
 H    1.062935    5.246771    0.305168
 H    0.595717    0.987559    0.092803
 H    1.458435    1.826182   -1.205638
 H    3.236589   -0.346349    0.946060
 H    4.613927   -1.678596   -0.146947
 H    4.986492   -1.367131   -1.858249
 H    3.475984   -3.351970   -1.575992
 H    2.773425   -2.062478   -2.560150
 H    3.651147   -3.797460    0.579618
 H    2.990685   -3.638935    2.135810
 H   -0.963864   -1.884104    3.172219
 H   -3.066338   -0.756216    2.501954
 H   -3.245665    1.871893    1.098657
 H   -7.041647    1.927359   -0.858324
