48 
3ru1_ligand_dft.xyz
 C   -2.644699   -1.141813   -1.728297
 C   -1.729460   -1.360221   -0.672173
 C   -2.039856   -0.897375    0.630195
 C   -0.052350   -1.685487    1.480545
 C   -0.483991   -2.018536   -0.844471
 C    2.903310   -1.917672    0.194449
 C    2.744306    1.734533   -0.881603
 C   -1.114315    2.294755   -0.693338
 C   -1.216384    2.704344    0.777829
 C   -0.018528    3.561975    1.195124
 C    0.206889    1.576304   -0.973258
 C    1.300626    2.838471    0.907137
 C    1.413121    2.429816   -0.568810
 N    2.928653    0.483503   -0.169543
 C    2.779864   -0.733886   -0.755400
 O    2.566973   -0.891195   -1.949298
 C    1.710023   -2.870681    0.016310
 C    0.369166   -2.203476    0.206548
 C   -3.834001   -0.495622   -1.495050
 C   -4.148465   -0.042574   -0.193587
 C   -3.272871   -0.235564    0.846767
 N   -1.191359   -1.064990    1.683499
 N    0.797506   -1.785169    2.576278
 H   -2.389650   -1.491979   -2.725300
 H   -0.194742   -2.358810   -1.835757
 H    2.979675   -1.584574    1.233605
 H    3.826576   -2.452635   -0.054099
 H    3.580246    2.402450   -0.637554
 H    2.803748    1.491821   -1.945252
 H   -1.181993    3.192621   -1.325374
 H   -1.955638    1.649587   -0.966378
 H   -1.243355    1.798983    1.399602
 H   -2.153610    3.243618    0.959501
 H   -0.081921    3.817095    2.259587
 H   -0.037085    4.510833    0.639921
 H    0.281099    1.291108   -2.029173
 H    0.232692    0.642387   -0.398335
 H    1.341555    1.935621    1.535465
 H    2.153475    3.469715    1.191351
 H    1.402004    3.351653   -1.171495
 H    2.998986    0.517458    0.835501
 H    1.825853   -3.721232    0.702643
 H    1.752357   -3.278865   -0.996892
 H   -4.534235   -0.329198   -2.307733
 H   -5.091048    0.467912   -0.018813
 H   -3.493772    0.111785    1.850826
 H    1.348826   -2.630670    2.631952
 H    0.316270   -1.574278    3.441453
