42 
3rv4_ligand_xtb.xyz
 P   -2.503547   -1.293996   -0.616718
 O   -1.503075   -1.968480   -1.440140
 O   -3.566548   -2.204694    0.092051
 O   -3.376498   -0.172568   -1.250730
 P   -0.703618   -1.456723    1.391295
 O   -0.391916   -0.609633    2.687300
 O   -1.209901   -2.813438    1.598818
 O   -1.767097   -0.518250    0.641901
 O    0.654794   -1.267115    0.621568
 C    1.252143   -2.281064   -0.190461
 C    2.582272   -1.739298   -0.730298
 O    2.384263   -0.768055   -1.747659
 C    3.422346   -1.018523    0.338994
 O    4.779079   -1.073847    0.007670
 C    2.865245    0.415316    0.268206
 O    3.851353    1.366630    0.547885
 C    2.331834    0.507158   -1.189200
 N    0.975712    1.018768   -1.201857
 C   -0.054222    0.604073   -1.984844
 N   -1.186004    1.187786   -1.711357
 C   -0.908280    2.039599   -0.669402
 C   -1.689949    2.873159    0.149509
 N   -3.020898    3.016058    0.006744
 N   -1.068458    3.578398    1.099157
 C    0.237218    3.453328    1.253085
 N    1.070932    2.666161    0.595919
 C    0.454980    1.951896   -0.351204
 H   -3.102199   -2.904619    0.566868
 H   -2.733060    0.434328   -1.702124
 H   -0.926343   -0.892576    3.428243
 H    0.581700   -2.516148   -1.021348
 H    1.415627   -3.175723    0.413911
 H    3.146515   -2.555726   -1.187650
 H    3.256627   -1.454798    1.333075
 H    5.158803   -0.206373    0.209282
 H    2.030453    0.504310    0.967062
 H    3.393299    2.199157    0.730597
 H    2.968020    1.177578   -1.789648
 H    0.074547   -0.139846   -2.744588
 H   -3.505849    3.525345    0.726171
 H   -3.524782    2.334460   -0.534833
 H    0.677978    4.062962    2.030474
