29 
3rv8_ligand_dft.xyz
 O    0.287645    2.741543    0.195425
 O   -4.252671    0.890212   -0.501512
 O    1.940933    2.477235    1.654864
 O   -4.791463   -1.005375    0.524324
 O   -1.663208    1.243824   -1.069058
 C    2.930870    0.270956    0.187919
 C   -0.744538   -2.197655    0.904399
 C    0.238447   -1.586088    0.227012
 C   -2.119913   -1.764656    0.763543
 C    4.375149   -1.890606    0.177085
 C    5.004610   -1.069978   -0.588988
 O    0.924057    0.402974   -1.084148
 C    1.336139    2.081242    0.688254
 C   -3.951117   -0.283056    0.047773
 C    1.743048    0.836579   -0.048511
 C   -1.458661    0.124580   -0.607586
 C   -0.086911   -0.533366   -0.786018
 C   -2.494767   -0.682915    0.036064
 C    3.502499   -0.875849   -0.545402
 H   -0.097326    2.280562   -0.574376
 H   -3.434965    1.335862   -0.808622
 H    3.522570    0.716833    0.983296
 H   -0.527182   -3.019098    1.578241
 H    1.273644   -1.895676    0.317792
 H   -2.904001   -2.300903    1.291877
 H    4.369147   -2.713282    0.874217
 H    5.916243   -0.688622   -1.019759
 H   -0.242047   -1.088636   -1.731738
 H    2.912435   -1.205476   -1.403359
