29 
3rv8_ligand_xtb.xyz
 O    1.680900   -2.133035   -0.306721
 O   -3.693515   -2.048458    0.683082
 O    3.670895   -1.913961   -1.411870
 O   -5.205091   -0.504716    0.225688
 O   -1.142766   -1.378539    0.453565
 C    2.895578    1.205899   -0.372136
 C   -2.407603    2.447983   -0.542347
 C   -1.053100    2.157051   -0.470609
 C   -3.337177    1.466605   -0.283135
 C    4.642810    1.206339    1.523601
 C    4.838257    0.083639    0.908110
 O    0.671267    0.488483   -0.035518
 C    2.677791   -2.014584   -0.857667
 C   -4.045993   -0.812254    0.326599
 C    1.621456    1.174400   -0.750334
 C   -1.584654   -0.131398    0.127362
 C   -0.643115    0.875514   -0.148982
 C   -2.947217    0.169712    0.060202
 C    3.422424    0.607685    0.865061
 H   -0.174220   -1.401295    0.385204
 H   -2.726392   -2.153296    0.716464
 H    3.606831    1.707277   -1.010824
 H   -2.724193    3.447597   -0.794587
 H   -0.317491    2.927441   -0.645555
 H   -4.395994    1.667213   -0.330697
 H    4.990143    2.031837    2.093053
 H    5.471014   -0.703748    0.581656
 H    1.273781    1.640760   -1.663870
 H    2.666256    0.138471    1.488999
