30 
3rv9_ligand_dft.xyz
 C   -4.487452    1.856229   -1.401089
 O   -1.107124   -2.624953    0.160234
 O    3.953635   -1.296516   -0.944228
 O   -3.106237   -2.393665    1.104637
 O    4.950300    0.498006   -0.096346
 O    1.287000   -1.387327   -0.741196
 C   -3.270295    0.287422    0.129950
 C    1.291832    2.316146    1.007382
 C    0.118365    1.681430    0.886036
 C    2.528639    1.656814    0.630527
 C   -3.395107    1.704285   -0.334850
 O   -0.988074    0.004725   -0.469824
 C   -2.184656   -1.909075    0.497017
 C    3.939748   -0.119360   -0.325128
 C   -2.171101   -0.464206    0.074367
 C    1.346439   -0.316255   -0.140312
 C    0.055960    0.251506    0.452015
 C    2.588699    0.414231    0.090337
 H   -4.249072    1.260921   -2.287567
 H   -5.458746    1.522876   -1.021008
 H   -4.583812    2.902301   -1.706651
 H   -0.479432   -2.121067   -0.396677
 H    3.039231   -1.634771   -1.045576
 H   -4.158841   -0.205686    0.516750
 H    1.341933    3.336821    1.370757
 H   -0.824714    2.152051    1.147496
 H    3.470398    2.185808    0.752969
 H   -3.648335    2.337217    0.526893
 H   -2.437227    2.055525   -0.730794
 H   -0.093815   -0.349157    1.369681
