45 
3rx8_ligand_xtb.xyz
 O   -0.446459    2.450994    0.033111
 C   -1.272125    1.395343   -0.393441
 C   -2.672567    1.491939    0.205667
 O   -3.263402    2.667213   -0.278343
 C   -3.485851    0.242468   -0.160279
 O   -4.713732    0.360054    0.502167
 C   -2.710339   -1.020493    0.258536
 C   -3.392799   -2.296286   -0.247385
 O   -4.672674   -2.385789    0.333919
 O   -1.399394   -1.038663   -0.281528
 C   -0.624566    0.081594    0.055994
 O    0.591320   -0.014070   -0.613931
 C    1.651827   -0.709573    0.016556
 C    2.610450   -1.023910   -1.155699
 O    3.631370   -1.937309   -0.811112
 C    3.234493    0.277961   -1.673401
 N    3.801963    1.079373   -0.570735
 C    2.769556    1.473930    0.416153
 C    2.291215    0.193716    1.097819
 C    3.419469   -0.449975    1.926401
 O    4.648841   -0.575711    1.230573
 H   -0.982897    3.253739   -0.032787
 H   -1.346326    1.387890   -1.490389
 H   -2.592178    1.537176    1.305727
 H   -4.202583    2.632141   -0.055634
 H   -3.630401    0.224716   -1.254102
 H   -5.137205   -0.511493    0.524980
 H   -2.667706   -1.045238    1.359811
 H   -2.768290   -3.154123    0.029153
 H   -3.455772   -2.249261   -1.342176
 H   -5.094506   -3.206262    0.056588
 H   -0.483724    0.121308    1.153327
 H    1.294425   -1.646398    0.464538
 H    1.992976   -1.426494   -1.965835
 H    3.327247   -2.841876   -0.935931
 H    4.024413    0.032775   -2.385277
 H    2.449220    0.852925   -2.166243
 H    4.290468    1.894721   -0.943888
 H    4.458674    0.462562    0.015396
 H    1.923103    1.963679   -0.073840
 H    3.212497    2.152777    1.145710
 H    1.499909    0.463487    1.801414
 H    3.094090   -1.420008    2.311145
 H    3.634229    0.198729    2.779699
 H    4.627068   -1.387117    0.693382
