24 
3rxa_ligand_xtb.xyz
 N   -2.609931   -0.185891   -0.167006
 C   -1.104982   -0.066023   -0.302346
 C   -0.440946   -1.162790    0.525324
 C    0.876868   -1.622240   -0.107864
 C    2.022899   -0.625414    0.038080
 C    1.727113    0.781128   -0.482040
 C    0.759275    1.554620    0.415628
 C   -0.726625    1.364039    0.081934
 H   -2.938880   -1.095991   -0.512566
 H   -2.868720   -0.098230    0.824651
 H   -3.077968    0.563267   -0.692493
 H   -0.879761   -0.237512   -1.358479
 H   -1.105511   -2.029600    0.569499
 H   -0.262863   -0.824516    1.545512
 H    0.708089   -1.834690   -1.165749
 H    1.177713   -2.556819    0.366145
 H    2.881224   -1.025853   -0.502177
 H    2.308015   -0.555485    1.089238
 H    1.356513    0.742547   -1.507129
 H    2.671888    1.324544   -0.505094
 H    0.968641    2.621525    0.340120
 H    0.945128    1.268962    1.451196
 H   -1.304869    1.670749    0.957406
 H   -0.990740    2.028425   -0.743326
