24 
3rxa_ligand_dft.xyz
 N   -2.628187   -0.159476   -0.162433
 C   -1.106053   -0.061611   -0.300184
 C   -0.468014   -1.197903    0.499902
 C    0.878556   -1.633339   -0.101483
 C    2.030981   -0.636880    0.044141
 C    1.764813    0.784319   -0.468743
 C    0.773629    1.571269    0.402389
 C   -0.718620    1.368482    0.087677
 H   -2.986979   -1.047784   -0.526245
 H   -2.903968   -0.094649    0.823217
 H   -3.099611    0.600558   -0.664020
 H   -0.930228   -0.228548   -1.367298
 H   -1.134747   -2.071127    0.488104
 H   -0.350279   -0.900606    1.549646
 H    0.722387   -1.865511   -1.163855
 H    1.167599   -2.575233    0.375032
 H    2.895853   -1.052105   -0.483695
 H    2.320767   -0.574563    1.101231
 H    1.435282    0.764495   -1.517296
 H    2.716584    1.324076   -0.468656
 H    0.969631    2.643769    0.314645
 H    0.956952    1.318420    1.453161
 H   -1.297221    1.673069    0.971432
 H   -1.016468    2.036044   -0.730565
