22 
3rxd_ligand_xtb.xyz
 N   -3.038270   -0.981481   -0.679213
 O    2.599321   -0.180556   -0.177442
 C   -2.222877   -0.910953    0.587140
 C   -1.030920   -0.027349    0.345303
 C   -1.220533    1.342066    0.221045
 C   -0.130801    2.161091   -0.038059
 C    1.128416    1.621413   -0.169693
 C    1.333833    0.241029   -0.039900
 C    2.906430   -1.548287   -0.009998
 C    0.235968   -0.582927    0.207799
 H   -3.903491   -1.520907   -0.552514
 H   -3.270544   -0.020915   -0.968388
 H   -2.477814   -1.410088   -1.426926
 H   -1.921860   -1.921221    0.863842
 H   -2.860374   -0.499364    1.371197
 H   -2.201272    1.775967    0.351606
 H   -0.270141    3.226215   -0.128997
 H    1.986326    2.243820   -0.363079
 H    2.628271   -1.900994    0.987147
 H    2.419731   -2.164524   -0.771967
 H    3.985465   -1.621100   -0.128027
 H    0.361928   -1.648570    0.318302
