22 
3rxd_ligand_dft.xyz
 N   -2.873025   -1.160888   -0.723985
 O    2.559002   -0.246423   -0.176207
 C   -2.274991   -0.764920    0.628356
 C   -1.060521    0.076346    0.382658
 C   -1.200943    1.449752    0.211877
 C   -0.072571    2.214224   -0.093434
 C    1.166372    1.614775   -0.223006
 C    1.312466    0.229551   -0.043229
 C    2.796082   -1.625531    0.043929
 C    0.189042   -0.545582    0.254158
 H   -3.716757   -1.737365   -0.637036
 H   -3.108143   -0.318167   -1.259214
 H   -2.180557   -1.678410   -1.275415
 H   -2.059230   -1.701429    1.146182
 H   -3.066231   -0.231839    1.158823
 H   -2.167679    1.930725    0.339558
 H   -0.164268    3.287765   -0.219113
 H    2.052869    2.196850   -0.450171
 H    2.517878   -1.917046    1.063581
 H    2.253695   -2.242384   -0.683217
 H    3.866906   -1.767903   -0.093099
 H    0.281065   -1.614899    0.418832
