13 
3rxf_ligand_dft.xyz
 N   -1.899609    0.000025    0.000002
 C   -1.187660   -1.131086    0.000006
 C    0.196931   -1.195823   -0.000033
 C    0.931635   -0.000036   -0.000041
 C    0.196973    1.195805    0.000028
 C   -1.187591    1.131129    0.000002
 N    2.298043   -0.000016    0.000025
 H   -1.763691   -2.054924   -0.000017
 H    0.701708   -2.157725   -0.000050
 H    0.701845    2.157657    0.000167
 H   -1.763581    2.054981    0.000003
 H    2.816503   -0.860974    0.000499
 H    2.816453    0.860979   -0.000571
