13 
3rxf_ligand_xtb.xyz
 N   -1.873712    0.001186   -0.000979
 C   -1.184401   -1.129554   -0.000017
 C    0.194130   -1.194903    0.000796
 C    0.923990   -0.001253    0.000398
 C    0.195887    1.193436    0.000971
 C   -1.182605    1.130859   -0.000087
 N    2.283725   -0.000204   -0.000810
 H   -1.777546   -2.035199   -0.000122
 H    0.705785   -2.146012    0.001551
 H    0.709938    2.143256    0.002184
 H   -1.773813    2.037722   -0.000409
 H    2.793640   -0.863287   -0.000642
 H    2.789899    0.865128   -0.002401
