22 
3rxg_ligand_xtb.xyz
 N   -2.809668   -0.007825    0.013550
 O    2.827563    0.087339   -0.135457
 C   -1.342702   -0.002072   -0.350369
 C   -0.677802   -1.255056    0.202772
 C    0.801581   -1.255333   -0.183142
 C    1.511642    0.005003    0.338493
 C    0.793240    1.258815   -0.167857
 C   -0.686596    1.252460    0.209154
 H   -3.275601   -0.844093   -0.360150
 H   -2.903718   -0.011397    1.037992
 H   -3.277316    0.830625   -0.353411
 H    3.357813   -0.638021    0.211655
 H   -1.279806    0.000850   -1.442048
 H   -1.153867   -2.153533   -0.193924
 H   -0.761139   -1.269403    1.291892
 H    0.907740   -1.285408   -1.268737
 H    1.282314   -2.145578    0.223779
 H    1.496178   -0.003583    1.441474
 H    0.914036    1.301357   -1.250373
 H    1.284149    2.135673    0.250579
 H   -0.778586    1.266225    1.297421
 H   -1.161196    2.149450   -0.191645
