17 
3rxh_ligand_xtb.xyz
 N    2.278621   -0.966694    0.093161
 C    2.095556    0.372282   -0.461685
 C    1.013244    1.128628    0.316411
 C   -0.330503    0.510598    0.136490
 N   -0.503412   -0.846248    0.146688
 C   -1.581460    1.033306   -0.049574
 C   -1.822573   -1.076708   -0.040400
 N   -2.496577    0.033457   -0.155354
 H    2.952055   -1.486824   -0.459243
 H    2.642920   -0.900539    1.039407
 H    0.276550   -1.487905    0.214600
 H    1.780252    0.258112   -1.502607
 H    3.023814    0.965716   -0.451130
 H    0.976228    2.164462   -0.022732
 H    1.281413    1.132940    1.379012
 H   -1.879518    2.060553   -0.113741
 H   -2.249716   -2.058761   -0.082479
