24 
3rxi_ligand_dft.xyz
 N    3.858597   -0.952656    0.386283
 C    2.480363   -0.271296    0.572893
 C    2.026323    0.433704   -0.695567
 C    0.618926    0.843285   -0.440939
 C    0.114722    2.108808   -0.099419
 N   -1.183160    2.114111    0.230566
 C   -1.565223    0.801635    0.125849
 C   -0.483070   -0.043568   -0.286188
 C   -2.825759    0.238531    0.374309
 C   -3.000844   -1.128757    0.225890
 C   -1.936172   -1.959595   -0.177842
 C   -0.682389   -1.427392   -0.435862
 H    4.172271   -1.456727    1.218997
 H    3.802024   -1.616428   -0.390424
 H    4.566462   -0.255902    0.142487
 H    2.592032    0.421110    1.408022
 H    1.788842   -1.071254    0.843711
 H    2.115319   -0.260579   -1.550809
 H    2.671018    1.299552   -0.900940
 H    0.685356    3.038084   -0.099677
 H   -3.647566    0.879971    0.682433
 H   -3.975134   -1.571478    0.418446
 H   -2.106178   -3.027597   -0.295412
 H    0.126230   -2.081071   -0.773526
