24 
3rxi_ligand_xtb.xyz
 N    3.855490   -0.944108    0.450752
 C    2.446777   -0.264707    0.534764
 C    2.024951    0.383321   -0.760042
 C    0.621645    0.811792   -0.454486
 C    0.156163    2.077196   -0.100683
 N   -1.131540    2.094324    0.238850
 C   -1.552388    0.806428    0.135680
 C   -0.485290   -0.053395   -0.290561
 C   -2.811053    0.269154    0.393490
 C   -2.998041   -1.086779    0.237780
 C   -1.958518   -1.924701   -0.178592
 C   -0.705273   -1.420877   -0.445810
 H    4.118183   -1.397985    1.331304
 H    3.815511   -1.640339   -0.300093
 H    4.547488   -0.229938    0.204614
 H    2.493044    0.468836    1.336436
 H    1.739090   -1.048718    0.797974
 H    2.047744   -0.338207   -1.582599
 H    2.655305    1.238959   -1.009162
 H    0.731421    2.992382   -0.103216
 H   -3.620860    0.911213    0.710314
 H   -3.969315   -1.522117    0.436756
 H   -2.148334   -2.985476   -0.293449
 H    0.089230   -2.084712   -0.785331
