22 
3rxj_ligand_xtb.xyz
 C   -3.304016   -0.301871   -0.007804
 O   -4.151932    0.743545    0.091359
 C   -1.852210    0.008932    0.013552
 C   -0.972431   -1.030833    0.318332
 C   -1.324542    1.270855   -0.260913
 C    0.388245   -0.827141    0.358179
 C    0.037373    1.477177   -0.239605
 C    0.917828    0.432841    0.061306
 N    2.272189    0.691629    0.097202
 C    3.323711   -0.211936   -0.100899
 N    3.284309   -1.338344   -0.670385
 N    4.511451    0.226470    0.426259
 O   -3.733054   -1.420769   -0.096980
 H   -3.688517    1.582029    0.212270
 H   -1.388750   -2.001463    0.539812
 H   -1.962613    2.102466   -0.532435
 H    1.045634   -1.632589    0.644437
 H    0.435434    2.457329   -0.462935
 H    2.525356    1.667375    0.163364
 H    2.379772   -1.623991   -1.021360
 H    5.310650   -0.314284    0.140858
 H    4.663538    1.214503    0.536539
