21 
3rxl_ligand_xtb.xyz
 N   -2.624480   -1.074393    0.635040
 O    1.311145    0.875160    0.149269
 C    3.044759   -0.838985    0.171807
 C    1.632070   -0.428512   -0.002976
 C    0.510086   -1.138645   -0.304737
 C   -0.561208   -0.195612   -0.343514
 C   -1.983438   -0.509933   -0.617954
 C   -0.003693    1.026421   -0.051745
 C   -0.590797    2.385929    0.058878
 H   -3.601225   -1.349768    0.475143
 H   -2.084205   -1.895511    0.938354
 H   -2.587513   -0.372941    1.385368
 H    3.676487   -0.328807   -0.553340
 H    3.398667   -0.568616    1.165338
 H    3.140193   -1.911213    0.035159
 H    0.450657   -2.188732   -0.503713
 H   -2.538024    0.381454   -0.909903
 H   -2.070257   -1.266400   -1.398722
 H   -0.923156    2.590058    1.077183
 H    0.167843    3.122179   -0.192213
 H   -1.433943    2.503790   -0.616637
