21 
3rxm_ligand_xtb.xyz
 C   -3.385632   -0.906329    0.002014
 N   -2.659960   -2.201739   -0.010146
 S   -0.731781    2.128361    0.003789
 C   -2.295916    0.136366    0.001422
 N   -1.048615   -0.403515   -0.004100
 S    1.855293   -1.437955    0.009384
 C   -2.334445    1.491225    0.006209
 C   -0.100155    0.499694   -0.003101
 C    1.287139    0.210848   -0.004058
 C    2.341942    1.096946   -0.012116
 C    3.586502    0.453892   -0.007490
 C    3.477837   -0.906202    0.004496
 H   -4.013033   -0.812949    0.890063
 H   -4.024981   -0.803225   -0.876373
 H   -2.827943   -2.770748    0.818492
 H   -2.837293   -2.759759   -0.844237
 H   -1.601323   -1.769134   -0.012105
 H   -3.183561    2.142184    0.011743
 H    2.212675    2.164492   -0.021431
 H    4.527711    0.971798   -0.012602
 H    4.267947   -1.631014    0.011149
