26 
3rxo_ligand_xtb.xyz
 C   -3.062315   -0.964701    0.674640
 N   -3.724326   -1.386692   -0.613457
 C   -1.943363   -0.012194    0.359569
 N    1.719801   -0.036106   -0.004856
 C   -2.235038    1.317161    0.072731
 C   -1.203440    2.187488   -0.238832
 C    0.102932    1.743933   -0.272546
 C    0.412642    0.410515    0.016629
 C    2.839755    0.735581    0.201371
 C    3.940393   -0.056977    0.110814
 C    3.492175   -1.369158   -0.180716
 C    2.134335   -1.328105   -0.233299
 C   -0.632931   -0.463406    0.327336
 H   -2.692455   -1.856805    1.180246
 H   -3.818094   -0.485938    1.298712
 H   -4.524311   -2.009891   -0.447242
 H   -4.045170   -0.545839   -1.112594
 H   -3.039214   -1.868364   -1.210191
 H   -3.252013    1.677721    0.115799
 H   -1.422335    3.219967   -0.459265
 H    0.891424    2.430399   -0.533267
 H    2.767410    1.775829    0.444698
 H    4.958305    0.251886    0.235596
 H    4.109089   -2.232000   -0.330601
 H    1.439813   -2.110552   -0.464407
 H   -0.411644   -1.487654    0.584525
