21 
3ry8_ligand_xtb.xyz
 C    2.442249   -0.694715   -0.020110
 C    1.189343   -0.954328    0.810743
 C    0.001479   -0.266118    0.103204
 C    0.269060    1.271145    0.122543
 C   -1.310007   -0.573204    0.865625
 C   -2.559573   -0.233154    0.062292
 O    2.639404   -1.312143   -1.035313
 O    3.263121    0.252804    0.400474
 O    1.054246    1.743316    0.911434
 O   -0.376001    1.977152   -0.763153
 O   -2.592602    0.531576   -0.860198
 O   -3.672220   -0.839059    0.477811
 O   -0.159256   -0.718043   -1.217037
 H    1.288891   -0.571376    1.825784
 H    1.015209   -2.031433    0.829579
 H   -1.335545   -0.005075    1.800023
 H   -1.325782   -1.640209    1.104353
 H    2.836104    0.863022    1.031023
 H   -1.082954    1.448794   -1.212151
 H   -3.540344   -1.441610    1.221921
 H    0.695591   -1.004688   -1.578457
