27 
3ryv_ligand_xtb.xyz
 S   -3.318241   -0.205830    0.233585
 N    3.407083   -0.562620   -0.198035
 O    3.081820    1.612899   -0.721822
 C    1.164370    0.292773   -0.236754
 C   -0.965162    1.168157    0.462729
 C    0.399056    1.326334    0.297721
 C   -1.553598   -0.017916    0.072600
 C    0.551133   -0.894152   -0.629743
 C   -0.816713   -1.046385   -0.478089
 C    2.635322    0.528195   -0.408812
 C    4.851647   -0.511548   -0.242118
 O   -3.788338    0.590498    1.328467
 C    5.465551   -0.636079    1.147993
 O   -3.658059   -1.597584    0.173549
 N   -3.831966    0.518866   -1.196555
 H    2.987551   -1.398470    0.177168
 H   -1.581125    1.940613    0.893870
 H    0.892711    2.245207    0.575036
 H    1.131279   -1.686516   -1.079836
 H   -1.325435   -1.951507   -0.769212
 H    5.112539    0.450431   -0.687803
 H    5.215405   -1.316434   -0.889221
 H    5.120386    0.175125    1.784077
 H    5.188718   -1.582799    1.608175
 H    6.548571   -0.588105    1.079940
 H   -4.387414    1.340723   -1.024079
 H   -4.310174   -0.131489   -1.798062
