58 
3ryw_ligand_xtb.xyz
 C    9.757017   -2.435065   -0.975676
 O   -6.131985   -2.156719    0.456970
 O   -3.723884   -2.120155    1.821981
 O   -6.063331   -1.065028   -1.739642
 O   -4.199092   -2.695386   -1.186598
 O   -1.959053   -1.847596    0.012896
 O   -2.017715   -0.237319    1.979122
 C   -3.258319    2.971269   -0.331501
 C   -1.285477    3.732075    0.488268
 C   -1.404492    1.473783   -0.272759
 C    9.336757   -2.135128    0.458575
 C    8.554394   -0.828646    0.596853
 C    7.181755   -0.869176   -0.071156
 C    6.397008    0.418944    0.166585
 C    5.038066    0.400126   -0.529735
 C    4.260954    1.692978   -0.290166
 C    2.951251    1.771393   -1.075683
 C    1.877903    0.773209   -0.634849
 C    1.264222    1.133247    0.720241
 C   -3.597499    0.595505   -1.105152
 N   -2.540349    3.960875    0.174800
 O    0.627598    2.401725    0.712262
 C   -2.738875    1.708277   -0.577504
 C   -0.652965    2.492944    0.304227
 C   -4.156003   -0.231077    0.050319
 P   -5.082875   -1.658724   -0.642663
 P   -2.818387   -1.012059    1.039077
 H    8.890723   -2.605576   -1.609345
 H   10.326879   -1.604208   -1.386313
 H   10.379742   -3.326423   -1.007871
 H   -5.704359   -2.713936    1.110055
 H   -3.348897   -2.238286    2.697755
 H   -6.868676   -0.694609   -1.376778
 H   -2.543545   -2.375110   -0.569037
 H   -4.290254    3.208261   -0.556199
 H   -0.732309    4.556585    0.914967
 H   -0.983028    0.501353   -0.471483
 H   10.232688   -2.070797    1.080980
 H    8.730003   -2.960238    0.838650
 H    9.140139   -0.012199    0.167619
 H    8.419605   -0.612950    1.659959
 H    6.614333   -1.716241    0.322241
 H    7.298970   -1.017222   -1.145946
 H    6.979393    1.267294   -0.201243
 H    6.250677    0.561587    1.240067
 H    4.465748   -0.453580   -0.162163
 H    5.186247    0.263168   -1.603817
 H    4.887896    2.535446   -0.592625
 H    4.063211    1.804972    0.776949
 H    3.168784    1.606741   -2.133751
 H    2.538931    2.777657   -0.973537
 H    2.292144   -0.232743   -0.568236
 H    1.090660    0.760244   -1.391178
 H    2.050369    1.228779    1.473085
 H    0.561319    0.360725    1.050780
 H   -3.011319   -0.062176   -1.753660
 H   -4.424960    1.000637   -1.693972
 H   -4.774233    0.374341    0.712989
