30 
3ryx_ligand_xtb.xyz
 S   -5.177392   -0.438352    0.155221
 N    1.454176    0.383420   -0.752417
 O    0.991434    2.274178    0.383264
 C   -0.807932    0.768310   -0.025835
 C   -2.489458   -0.938135    0.156885
 C   -1.154884   -0.576744    0.083866
 C   -3.459502    0.042724    0.119878
 C   -1.801706    1.745732   -0.028882
 C   -3.134473    1.381802    0.036829
 C    0.610873    1.225016   -0.083662
 F    3.365734   -1.690187   -0.528505
 F    5.623337   -0.239620   -1.193593
 F    3.149957   -0.545035    1.290809
 F    5.774875   -1.191043    0.731363
 F    5.432060    0.930401    0.600309
 C    2.869173    0.618605   -0.773050
 O   -5.959679    0.613181    0.731527
 C    3.602794   -0.468862    0.021776
 O   -5.287239   -1.772858    0.664091
 C    5.136659   -0.247772    0.051850
 N   -5.498431   -0.481108   -1.498236
 H    1.113189   -0.485647   -1.131289
 H   -2.795652   -1.967057    0.258372
 H   -0.394622   -1.341190    0.150809
 H   -1.506259    2.782511   -0.080214
 H   -3.925784    2.113843    0.043266
 H    3.037592    1.591928   -0.297335
 H    3.263258    0.620539   -1.795009
 H   -6.202108    0.189743   -1.761192
 H   -5.740619   -1.407938   -1.808795
