36 
3rz1_ligand_dft.xyz
 S    6.741538   -0.705582   -0.180223
 N    0.210557    0.816122    0.862021
 O    0.791120    2.443722   -0.611467
 C    2.476671    0.871032   -0.008405
 C    4.028068   -0.976593    0.122752
 C    2.727789   -0.488923    0.184282
 C    5.068163   -0.089415   -0.127413
 C    3.531059    1.739122   -0.296769
 C    4.833642    1.264307   -0.351191
 C    1.093008    1.453672    0.031467
 F   -1.758110   -1.099486    0.855569
 F   -3.771191    1.643243    0.025454
 F   -4.033767   -1.819743   -0.406595
 F   -6.140817   -1.141273    1.057518
 F   -1.709114   -0.033785   -1.056536
 F   -3.881117    0.205306    1.675292
 F   -4.356419   -0.134793   -1.772271
 F   -6.661214   -1.124494   -1.042074
 F   -6.375116    0.746025    0.013600
 C   -1.178373    1.179370    0.903031
 O    7.512341    0.188593   -1.028137
 C   -2.023820    0.089754    0.251221
 O    6.672571   -2.139060   -0.413381
 C   -3.541097    0.360081    0.375754
 N    7.279133   -0.481907    1.390533
 C   -4.450447   -0.543345   -0.496624
 C   -5.949483   -0.512071   -0.098941
 H    0.522648    0.045787    1.431166
 H    4.234788   -2.034272    0.243550
 H    1.910063   -1.187719    0.336986
 H    3.310248    2.784123   -0.485170
 H    5.659843    1.927545   -0.583147
 H   -1.296141    2.113406    0.352655
 H   -1.520931    1.322865    1.932031
 H    8.068992    0.155484    1.406570
 H    7.500525   -1.374401    1.820341
