50 
3rz3_ligand_dft.xyz
 O    7.270230    0.024663    1.273498
 C    6.787402   -0.974865    0.523912
 C    5.301057   -1.218895    0.751583
 O    7.452027   -1.612073   -0.255764
 C    4.523470    0.011617    0.254466
 C    2.991977   -0.183090    0.390575
 C    2.367362   -0.976054   -0.780914
 O    4.933828   -2.415693    0.126478
 O    4.947692    0.247010   -1.060539
 N    2.300066    1.095308    0.584499
 C    2.285902    2.091323   -0.319164
 O    3.082814    2.231856   -1.247082
 C    1.160622    3.102215   -0.151352
 O    0.288921    2.705987    0.873089
 C   -0.958321    3.353641    0.828860
 C    0.863223   -0.959701   -0.701354
 C    0.177430   -1.780869    0.196143
 C   -1.198970   -1.674823    0.356377
 C   -1.933231   -0.738014   -0.377357
 C   -1.252761    0.071249   -1.291939
 C    0.121979   -0.043880   -1.452015
 C   -3.397543   -0.597836   -0.183325
 C   -4.213831   -1.726823   -0.068611
 C   -5.580497   -1.570470    0.121071
 C   -6.172292   -0.315080    0.200683
 C   -5.345725    0.795798    0.083473
 C   -3.976432    0.671899   -0.105361
Cl   -6.049215    2.390928    0.193951
Cl   -6.591414   -2.987831    0.250698
 H    8.200931    0.138202    1.021713
 H    5.125914   -1.333874    1.827898
 H    4.797339    0.848266    0.916273
 H    2.812824   -0.734653    1.320148
 H    2.704630   -0.531067   -1.720017
 H    2.769492   -1.990947   -0.740578
 H    5.507359   -2.499043   -0.651269
 H    4.455155    1.036273   -1.363108
 H    1.482479    1.083470    1.182095
 H    0.643968    3.149095   -1.121475
 H    1.596711    4.093277    0.041492
 H   -0.855729    4.437573    0.979391
 H   -1.567368    2.934983    1.631973
 H   -1.459431    3.178217   -0.135343
 H    0.732382   -2.504204    0.789172
 H   -1.706619   -2.307183    1.079840
 H   -1.809287    0.779731   -1.900022
 H    0.636058    0.591486   -2.169673
 H   -3.788396   -2.720930   -0.151626
 H   -7.239706   -0.206460    0.348968
 H   -3.357502    1.559943   -0.168312
