36 
3rz5_ligand_dft.xyz
 S   -4.705806   -0.329322    0.289491
 N    1.964022   -0.056627   -1.024594
 O    1.695900    1.777251    0.278538
 C   -0.242443    0.455501   -0.136001
 C   -2.098991   -1.092989   -0.088386
 C   -0.737703   -0.846940   -0.225899
 C   -2.956635   -0.022843    0.136844
 C   -1.117461    1.511002    0.126530
 C   -2.479062    1.279148    0.258292
 C    1.220650    0.789958   -0.263936
 C    3.389936    0.155297   -1.212564
 O   -5.271233    0.736129    1.101299
 C    4.229158   -0.390188   -0.057534
 O   -4.879391   -1.735745    0.616946
 C    5.722909   -0.141365   -0.259937
 N   -5.271725   -0.112842   -1.273471
 C    6.578491   -0.671702    0.891102
 C    8.070486   -0.415349    0.687642
 H    1.505289   -0.784779   -1.546957
 H   -2.492202   -2.102780   -0.130985
 H   -0.062792   -1.687232   -0.361471
 H   -0.707465    2.509182    0.235354
 H   -3.165230    2.091487    0.472134
 H    3.559446    1.231955   -1.315510
 H    3.677738   -0.321222   -2.155677
 H    4.039811   -1.466390    0.051976
 H    3.892523    0.091794    0.867629
 H    5.899262    0.937417   -0.374091
 H    6.051781   -0.608218   -1.200038
 H   -5.931421    0.657948   -1.306037
 H   -5.676407   -0.974984   -1.624489
 H    6.402176   -1.749569    1.005706
 H    6.248683   -0.204830    1.828283
 H    8.431063   -0.896465   -0.228990
 H    8.276225    0.657822    0.602395
 H    8.660123   -0.803964    1.524195
