30 
3s0b_ligand_dft.xyz
 C    2.893524    0.815750    1.478030
 N    0.817871   -1.037190   -0.991696
 C    1.782954    0.214955    0.893654
 C    4.140937    0.767830    0.864598
 C    1.907358   -0.436696   -0.337780
 C    4.266877    0.108788   -0.356435
 C    3.163562   -0.481564   -0.957075
 C   -1.282775    0.060312   -0.332948
 C   -2.584642   -0.045846    0.231229
 C   -0.476252   -1.118610   -0.426545
 C   -3.070780   -1.315172    0.641168
 C   -0.984814   -2.330393   -0.021243
 C   -2.293040   -2.432862    0.500875
 C   -2.913221    2.337899   -0.088281
 C   -3.378745    1.125331    0.347806
 C   -0.835410    1.325031   -0.796349
 C   -1.630396    2.435263   -0.674782
 H    2.776855    1.319043    2.433612
 H    1.076614   -1.857527   -1.521570
 H    0.822244    0.247487    1.395706
 H    5.002849    1.235218    1.329851
 H    5.232033    0.058865   -0.852477
 H    3.265736   -0.977112   -1.919731
 H   -4.071210   -1.384794    1.059588
 H   -0.361771   -3.218249   -0.090912
 H   -2.667343   -3.404408    0.808916
 H   -3.531181    3.225879    0.006250
 H   -4.369493    1.040384    0.786934
 H    0.144747    1.399382   -1.254134
 H   -1.276010    3.396077   -1.035696
