33 
3s0d_ligand_dft.xyz
 C   -1.816004   -1.850678   -0.118603
 N    1.188488   -2.184822    0.203409
 C   -2.273716   -0.034905    1.520619
 C   -2.002176   -0.541770    0.130080
 C   -2.058510    0.470595   -0.988298
 C   -1.052093    1.633392   -0.918596
 C    0.415856    1.198883   -1.037857
 C    1.097314    0.828372    0.291960
 C    2.378802    0.005228    0.077084
 C    1.432108    2.076252    1.114893
 C    2.184955   -1.358021   -0.572875
 H   -1.912851   -2.594560    0.671515
 H   -1.742717   -2.225133   -1.138712
 H    0.209333   -1.812357    0.118273
 H    1.164058   -3.153008   -0.128101
 H    1.424206   -2.205581    1.200011
 H   -2.213271   -0.828823    2.269445
 H   -3.282577    0.392188    1.561698
 H   -1.586901    0.769369    1.806505
 H   -1.944296   -0.041124   -1.951098
 H   -3.070112    0.897891   -0.983069
 H   -1.289989    2.309135   -1.745595
 H   -1.209105    2.218296   -0.005256
 H    1.002988    2.002882   -1.498651
 H    0.456920    0.360557   -1.748132
 H    0.400053    0.226767    0.893081
 H    3.073344    0.563989   -0.561536
 H    2.894198   -0.131244    1.037355
 H    2.152410    2.707305    0.582407
 H    1.865918    1.812008    2.084729
 H    0.540447    2.680055    1.305356
 H    3.117495   -1.925197   -0.595833
 H    1.791813   -1.293750   -1.588703
