56 
3s1y_ligand_xtb.xyz
 S   -4.077177    0.768690   -0.414774
 O   -2.856320    1.519483   -0.366922
 O   -4.301199    0.345604   -1.930681
 O   -5.257919    1.330054    0.115549
 N   -3.799523   -0.688060    0.332143
 C   -2.628222   -1.379309   -0.145346
 C   -2.372131   -2.767928    0.455172
 C   -0.848629   -2.956275    0.324887
 N   -0.318758   -1.608687    0.143835
 C   -1.366334   -0.614596    0.275869
 C   -1.465390   -0.100350    1.719585
 O   -0.407928    0.821940    2.004780
 C    0.892695   -1.238974   -0.282373
 O    1.065331   -0.051863   -0.682324
 N    1.915643   -2.105700   -0.242026
 C    3.335965   -1.787235   -0.420881
 C    3.626276   -0.929263   -1.678912
 C    4.692187    0.149812   -1.476711
 C    4.270168    1.354519   -0.614292
 N    3.124735    1.092954    0.285870
 C    2.547570    2.343239    0.844532
 C    1.552114    3.062820   -0.067372
 N    0.250011    2.362496   -0.122641
 C    3.411735    0.122084    1.368861
 C    3.953672   -1.219547    0.874274
 H   -5.176172    0.587135   -2.244605
 H   -4.642482   -1.239814    0.343726
 H   -2.642343   -1.444016   -1.242780
 H   -2.683150   -2.773818    1.498421
 H   -2.914266   -3.550607   -0.069108
 H   -0.431458   -3.431747    1.216827
 H   -0.603628   -3.566523   -0.548853
 H   -1.205035    0.220316   -0.399091
 H   -2.432939    0.393591    1.829283
 H   -1.400570   -0.941581    2.415438
 H   -0.560196    1.141544    2.903100
 H    1.714899   -3.044788    0.061719
 H    3.819110   -2.757241   -0.565099
 H    3.990733   -1.593954   -2.461780
 H    2.710901   -0.486352   -2.066338
 H    4.961119    0.532081   -2.461492
 H    5.594639   -0.307437   -1.075460
 H    5.116756    1.695899   -0.014460
 H    3.975482    2.173930   -1.270944
 H    2.351223    0.599193   -0.283018
 H    2.036658    2.095445    1.777127
 H    3.366666    3.026237    1.083822
 H    1.403766    4.068951    0.330790
 H    1.939451    3.158559   -1.083668
 H   -0.132977    2.112282    0.821199
 H    0.379749    1.411626   -0.564620
 H   -0.471518    2.883120   -0.630829
 H    2.469596   -0.043175    1.897978
 H    4.128436    0.559643    2.067229
 H    3.791777   -1.941615    1.676523
 H    5.030056   -1.162661    0.728101
