57 
3s2o_ligand_xtb.xyz
 C    2.987998    0.185866   -0.133060
 C    3.282313   -0.454776   -1.323061
 C    4.213929   -1.478288   -1.297195
 C    4.826607   -1.849442   -0.104235
 C    4.541503   -1.238030    1.100249
 C    3.606317   -0.213060    1.080814
 N    3.112678    0.529551    2.118082
 C    2.241848    1.342473    1.581890
 N    2.126904    1.207527    0.216033
 N    1.529489    2.279220    2.268528
Cl    5.983648   -3.141107   -0.140360
 C    1.336351    2.049838   -0.649607
 C    2.191051    2.705174   -1.742123
 C    3.333558    3.516269   -1.143106
 C    0.150574    1.258022   -1.216497
 C   -0.912320    1.028650   -0.145963
 N   -1.820898    0.095861   -0.469097
 O   -0.943336    1.646313    0.904046
 C   -2.946559   -0.226462    0.388151
 C   -4.113646    0.753750    0.196610
 C   -5.185649    0.437012    1.237868
 C   -5.682481   -0.993762    1.034279
 C   -6.280851   -1.127311   -0.365656
 C   -5.207726   -0.814671   -1.407510
 C   -4.700208    0.612994   -1.206882
 C   -3.441375   -1.654139    0.148096
 C   -4.047598   -1.796612   -1.249321
 C   -4.516105   -1.970119    1.189819
 H    2.811143   -0.190544   -2.257563
 H    4.468326   -1.998165   -2.207170
 H    5.012751   -1.540295    2.020087
 H    0.559266    2.357556    1.975828
 H    1.639255    2.172540    3.266043
 H    0.935739    2.851670   -0.019334
 H    1.544721    3.362271   -2.328036
 H    2.596616    1.948385   -2.412711
 H    2.948590    4.278917   -0.469811
 H    4.007664    2.873222   -0.582443
 H    3.902615    4.003733   -1.930682
 H    0.489245    0.297163   -1.606649
 H   -0.310040    1.820869   -2.032174
 H   -1.775437   -0.354345   -1.368636
 H   -2.577623   -0.127817    1.416315
 H   -3.740734    1.772199    0.345074
 H   -4.772094    0.551115    2.241870
 H   -6.016796    1.137679    1.136058
 H   -6.448793   -1.223552    1.782181
 H   -7.119750   -0.437244   -0.478084
 H   -6.659463   -2.140862   -0.514971
 H   -5.633949   -0.913131   -2.412230
 H   -3.943897    0.853614   -1.958119
 H   -5.523578    1.319654   -1.329982
 H   -2.602371   -2.350276    0.260127
 H   -4.407057   -2.819474   -1.381486
 H   -3.298123   -1.616624   -2.024661
 H   -4.095398   -1.890522    2.194227
 H   -4.868570   -2.994769    1.054503
