40 
3s2v_ligand_dft.xyz
 C    4.444365   -1.709004   -0.219383
 N    2.019191   -2.304360    0.048936
 O    5.385231   -0.967171   -0.194511
 C    3.006635   -1.199413   -0.194322
 C    2.853629   -0.096973    0.865812
 O   -1.924973   -2.092027   -2.300354
 O   -2.130335    2.237511    0.938536
 O    0.710322   -1.144040    2.063933
 O   -0.499235   -1.582016   -0.652578
 C   -5.149984   -0.456600    0.101804
 C   -4.290506   -0.155070    1.121520
 C    0.071544    3.524879   -0.594327
 C    2.281066    2.395892   -0.683415
 C   -1.873085   -0.286861    1.880219
 S    1.577051    3.833046   -1.331504
 S   -4.359317   -1.165832   -1.230027
 C   -1.646796   -1.588829   -1.095751
 C   -2.947971   -0.506964    0.842180
 C   -2.824205   -1.078230   -0.417816
 C   -1.023008    1.761394    0.837688
 C    0.512683   -0.087753    1.457674
 C    0.100366    2.362156    0.126846
 C    1.369528    1.720616    0.078154
 N   -0.733998    0.492486    1.388097
 N    1.553248    0.536664    0.801593
 O    4.506572   -3.045330   -0.295674
 H    1.668273   -2.241310    1.030352
 H    2.434527   -3.220468   -0.140302
 H    1.148274   -2.173087   -0.506045
 H    2.793520   -0.782766   -1.184037
 H    3.000848   -0.510757    1.866021
 H    3.631624    0.647998    0.699933
 H   -1.103579   -2.405189   -2.707261
 H   -6.216732   -0.278853    0.068267
 H   -4.598312    0.326324    2.041565
 H   -0.771725    4.190860   -0.716116
 H    3.315349    2.163251   -0.893465
 H   -2.310476    0.236611    2.732622
 H   -1.471498   -1.236414    2.232869
 H    5.440850   -3.315996   -0.326401
