20 
3s3k_ligand_dft.xyz
 S   -2.384950   -0.786365    0.078609
 O   -1.474722    0.158826   -0.896573
 O   -2.377427    0.072990    1.435202
 O   -1.675532   -1.997864    0.357576
 O   -3.693379   -0.729466   -0.509672
 O   -0.961786    2.729853   -0.252481
 O    2.957659   -2.120251   -0.321312
 O    4.286820   -0.560368    0.377683
 C    0.842001   -0.449742   -0.443375
 N    3.196859   -0.968815    0.006893
 C    1.308990    2.244780    0.213309
 C   -0.176569    0.481068   -0.483586
 C    2.341454    1.323630    0.282675
 C    0.035288    1.831197   -0.176043
 C    2.097404   -0.004799   -0.049932
 H   -3.157815    0.651434    1.443241
 H   -1.722305    2.304021   -0.675015
 H    0.669804   -1.489137   -0.691459
 H    1.468644    3.289686    0.452820
 H    3.338400    1.620980    0.582766
