49 
3s3o_ligand_dft.xyz
 C   -5.408943   -0.405605    2.491663
 O    1.906144   -1.094695   -2.030725
 O   -3.922712    2.082000    0.980316
 O    0.982198    2.544759   -0.047492
 O   -1.503687    2.976846    0.786641
 F    6.866706   -2.088264    2.463579
 F    5.844753    1.861723    0.166576
 C    5.399894   -2.194669    0.625814
 C    4.733931   -1.527019   -0.396106
 C    6.381848   -0.091270    1.336438
 C   -0.617248   -0.442087   -1.259764
 C   -6.181630   -2.167958   -0.081952
 C   -6.752548   -0.825708    0.348317
 C    4.115697    0.579762   -1.672592
 C   -2.965087   -1.073303   -1.355739
 N    2.747631    0.892212   -1.305334
 O   -5.059473   -1.953795   -0.925343
 C    1.751969    0.001204   -1.489382
 C   -3.590544    1.051024    0.378811
 C    6.215034   -1.459699    1.474193
 C    5.694947    0.532961    0.306500
 C    4.869099   -0.148900   -0.581206
 C   -1.266446    1.863499    0.115783
 C    0.402227    0.432813   -1.001012
 C   -2.225021    0.916962   -0.163188
 C    0.145706    1.678456   -0.308400
 C   -5.690450    0.027569    1.049865
 C   -4.019138   -1.283753   -0.284927
 N   -4.456263    0.006826    0.242089
 N   -1.883751   -0.237614   -0.865630
 H   -4.668089    0.259451    2.942908
 H   -6.326352   -0.346383    3.085701
 H   -5.034636   -1.433244    2.551471
 H   -2.464066    2.975727    1.016309
 H    5.294954   -3.263576    0.771077
 H    4.075764   -2.072019   -1.065648
 H    7.019987    0.472039    2.005926
 H   -0.405567   -1.353271   -1.810065
 H   -6.896132   -2.740194   -0.676040
 H   -5.885111   -2.780664    0.783335
 H   -7.108405   -0.301125   -0.544272
 H   -7.605649   -0.969914    1.019276
 H    4.083600   -0.041213   -2.570821
 H    4.619343    1.515839   -1.920287
 H   -3.451031   -0.604204   -2.218619
 H   -2.561428   -2.039605   -1.659742
 H    2.519852    1.739711   -0.788835
 H   -6.017372    1.068122    1.063090
 H   -3.625645   -1.903177    0.540092
