100 
3s56_ligand_xtb.xyz
 C    4.226567   -0.675123    0.415935
 O    3.538886   -1.681791    0.550736
 N    6.252245    0.463043   -0.110069
 C    5.652166   -0.702467   -0.007339
 C    6.281029   -1.933312   -0.273429
 C    7.593047   -1.924132   -0.662405
 C    9.619039   -0.588781   -1.177617
 C   10.217392    0.636435   -1.273324
 C    9.498121    1.808599   -0.980958
 C    8.188616    1.745717   -0.597462
 C    8.270111   -0.693815   -0.783672
 C    7.541309    0.495615   -0.489323
 N    3.759043    0.567084    0.631792
 C    2.428473    0.824180    1.129897
 C    1.394426    0.676322   -0.003337
 O    0.858184    1.640465   -0.537579
 C    2.315115    2.200177    1.770883
 C    0.968634    2.329019    2.464918
 O    0.074052    1.514118    2.346033
 N    0.836516    3.440989    3.209892
 C   -1.099859   -0.475322   -1.360312
 O   -1.107742    0.729965   -2.079629
 C    0.302757   -1.120533   -1.345337
 N    1.153734   -0.601873   -0.289135
 C    0.265859   -2.654394   -1.225107
 C   -0.322429   -3.138133    0.071991
 C    0.473458   -3.291525    1.201476
 C   -1.676627   -3.443028    0.161110
 C   -0.079129   -3.708777    2.400309
 C   -2.227823   -3.862081    1.359986
 C   -1.432042   -3.987650    2.485794
 N   -2.721225    0.840202   -0.090942
 C   -1.695726   -0.224563    0.050636
 C   -4.071165    0.433978    0.345465
 C   -4.531075   -0.765025   -0.517755
 O   -4.109137   -0.873556   -1.650490
 C   -5.078164    1.556750    0.071893
 C   -4.653631    2.884180    0.700523
 C   -5.637206    4.012669    0.373321
 C   -5.572689    4.443705   -1.089687
 C   -4.149111    4.833628   -1.473588
 C   -3.191884    3.669773   -1.229089
 C   -3.236909    3.253382    0.243821
 C   -2.285221    2.100687    0.547750
 N   -5.428669   -1.555087    0.075801
 C   -6.232794   -2.593626   -0.596643
 C   -7.084702   -3.256803    0.482134
 C   -7.119278   -1.921682   -1.647165
 C   -5.314069   -3.620965   -1.255074
 H    5.713322   -2.843165   -0.161666
 H    8.119194   -2.842948   -0.878116
 H   10.166668   -1.492764   -1.400773
 H   11.250798    0.713969   -1.575144
 H    9.994016    2.763989   -1.063327
 H    7.622592    2.635651   -0.370245
 H    4.405175    1.322723    0.440807
 H    2.194865    0.052567    1.876995
 H    3.121469    2.352890    2.488844
 H    2.372729    2.969448    0.996565
 H   -0.013906    3.593490    3.726830
 H    1.586724    4.098736    3.326062
 H   -1.777914   -1.134304   -1.913386
 H   -0.360452    1.274687   -1.735687
 H    0.745312   -0.871793   -2.322950
 H    1.790883   -1.280955    0.135106
 H   -0.307862   -3.048772   -2.064514
 H    1.291480   -3.017348   -1.314097
 H    1.536724   -3.111849    1.144691
 H   -2.298517   -3.364176   -0.719339
 H    0.551418   -3.827207    3.268214
 H   -3.280102   -4.102061    1.416521
 H   -1.861271   -4.318901    3.419153
 H   -2.738025    1.012985   -1.122125
 H   -2.143524   -1.140213    0.434597
 H   -0.935436    0.111034    0.757183
 H   -4.024005    0.189021    1.411059
 H   -6.051747    1.260589    0.466519
 H   -5.184855    1.668486   -1.007711
 H   -4.639116    2.750395    1.789339
 H   -5.394022    4.871800    1.001559
 H   -6.651448    3.697612    0.624150
 H   -5.921814    3.639557   -1.739284
 H   -6.239843    5.292987   -1.239085
 H   -4.114217    5.124567   -2.523628
 H   -3.835982    5.693541   -0.878037
 H   -2.173919    3.967053   -1.486025
 H   -3.465997    2.843423   -1.887140
 H   -2.902347    4.111248    0.836464
 H   -1.282844    2.333514    0.182915
 H   -2.218124    1.921734    1.623621
 H   -5.714688   -1.337095    1.018009
 H   -7.752804   -2.535607    0.949193
 H   -6.456255   -3.704927    1.248915
 H   -7.691791   -4.041405    0.040994
 H   -6.503592   -1.438177   -2.400634
 H   -7.764501   -1.176497   -1.186310
 H   -7.743071   -2.663689   -2.135598
 H   -4.684837   -4.104766   -0.512681
 H   -5.912228   -4.381364   -1.747826
 H   -4.685292   -3.140314   -1.998259
