25 
3s5y_ligand_xtb.xyz
 C    0.403180    1.695341    0.152927
 C    1.582076    0.715121    0.272444
 O    2.703247    1.415878   -0.188894
 C    1.328828   -0.573124   -0.560307
 O    2.243245   -1.578767   -0.200325
 C   -0.071925   -1.142671   -0.242353
 O   -0.172020   -1.448550    1.127965
 C   -1.141379   -0.087775   -0.521137
 N   -0.867880    1.013860    0.437161
 C   -2.574841   -0.563980   -0.257924
 O   -3.354598    0.610634   -0.163779
 H    0.392641    2.101517   -0.860899
 H    0.559961    2.520941    0.848751
 H    1.706351    0.411616    1.322728
 H    3.517946    1.010034    0.127096
 H    1.395737   -0.329575   -1.627597
 H    3.071870   -1.479812   -0.679975
 H   -0.238045   -2.037321   -0.855951
 H    0.525916   -2.081230    1.343767
 H   -1.061719    0.305664   -1.537301
 H   -1.690240    1.636768    0.421658
 H   -0.815016    0.546692    1.358393
 H   -2.610037   -1.135254    0.678506
 H   -2.903606   -1.207170   -1.079469
 H   -4.291221    0.389068   -0.181465
