20 
3s72_ligand_dft.xyz
 N   15.344911   -0.344820   15.987128
 S   14.958475    1.000137   16.884970
 N   15.088913    3.228337   15.335031
 O   15.520346    0.887639   18.213947
 C   15.812490    2.299737   16.024673
 N   17.099494    2.454842   15.976903
 O   13.543505    1.257999   16.652927
 C   15.886309    5.228174   13.985381
 C   17.063885    5.849647   13.607204
 C   18.323926    5.358876   14.006550
 C   18.441510    4.230578   14.797512
 C   17.263981    3.584926   15.191874
 C   16.012187    4.088484   14.781948
 H   16.087846   -0.887076   16.416060
 H   14.513232   -0.891586   15.789092
 H   14.918112    5.608712   13.677023
 H   17.016592    6.739174   12.986711
 H   19.218114    5.882939   13.684224
 H   19.406007    3.847026   15.111979
 H   14.081165    3.256254   15.288862
