13 
3s77_ligand_xtb.xyz
 S    1.386095    0.055301   -0.126190
 O    1.603448    1.449111    0.108846
 S   -1.406471    1.164073    0.045920
 C   -0.365691   -0.212637   -0.059310
 O    1.911709   -0.554522   -1.307176
 N   -0.955279   -1.353156   -0.079625
 C   -2.296684   -1.215143   -0.012929
 C   -2.735691    0.073124    0.060395
 N    1.882166   -0.780429    1.228426
 H   -2.911398   -2.096177   -0.021202
 H   -3.743910    0.428993    0.119185
 H    2.515748   -0.243967    1.797336
 H    2.244498   -1.692505    1.005101
