46 
3s7l_ligand_xtb.xyz
 C   -4.419135    3.860323    0.164857
 N   -3.372962    1.966423   -0.976923
 O   -1.991063   -1.417956    2.156376
 C   -3.891168    3.296686   -1.151961
 N   -4.124757    0.907404   -1.246730
 C   -2.171384    1.615688   -0.482505
 N   -1.557952   -2.903760    0.473894
 C   -2.146780    0.236354   -0.431479
 N   -0.655595   -1.583764   -1.066257
 C   -3.405360   -0.148573   -0.927989
 N   -0.976117   -3.785304   -1.697961
 C   -1.043876   -0.686169    0.002022
 N    5.515908   -0.735720   -1.005167
 C   -1.595642   -1.674293    1.046907
 N    5.867979    1.560249   -0.616392
 C   -1.068100   -2.861949   -0.847462
 C   -2.014077   -4.100719    1.131619
 C    0.125146    0.068436    0.597230
 C   -0.079755    0.858591    1.723260
 C    0.979295    1.549648    2.283678
 C    2.242642    1.467095    1.727415
 C    2.461362    0.668758    0.607617
 C    1.394221   -0.033566    0.052349
 C    3.797997    0.561459    0.019107
 C    4.311569   -0.641636   -0.471823
 C    6.238572    0.368797   -1.049667
 C    4.659127    1.655487   -0.093273
 H   -4.822068    4.856810    0.007574
 H   -5.207249    3.220341    0.552974
 H   -3.622308    3.917116    0.902841
 H   -4.699655    3.228433   -1.882457
 H   -3.097427    3.935944   -1.548756
 H   -1.431394    2.341388   -0.212770
 H   -0.547451   -1.260977   -2.012671
 H   -3.795847   -1.137353   -1.065574
 H   -1.287093   -4.695689   -1.384409
 H   -2.326523   -3.820509    2.136572
 H   -1.206679   -4.833357    1.190322
 H   -2.861221   -4.535103    0.595758
 H   -1.061869    0.909395    2.165647
 H    0.818470    2.155467    3.162855
 H    3.068310    1.998375    2.177125
 H    1.555761   -0.651169   -0.817999
 H    3.741896   -1.561133   -0.419876
 H    7.227169    0.290556   -1.482313
 H    4.360244    2.643915    0.233494
