63 
3s8l_ligand_xtb.xyz
 C    2.789634    2.869243   -1.295082
 O    4.003150    2.720566   -1.273828
 C    2.022886    3.288258   -2.522787
 N    2.012183    2.667826   -0.215261
 C    2.485794    2.224857    1.082806
 C    2.738329    0.710684    1.041427
 O    2.216521   -0.076689    1.817630
 C    1.455106    2.595684    2.168454
 C    0.037454    2.401518    1.693188
 C   -0.677493    3.474228    1.166612
 C   -0.573361    1.153696    1.719214
 C   -1.953611    3.303900    0.662810
 C   -1.844704    0.968371    1.205459
 C   -2.537351    2.042781    0.668713
 O   -3.802924    1.925337    0.157029
 P   -4.305055    0.582644   -0.571461
 O   -5.614039    1.150190   -1.267424
 O   -4.579415   -0.571366    0.304005
 O   -3.270321    0.380667   -1.719128
 N    3.572004    0.315442    0.064262
 O    1.206476   -0.269466   -0.953347
 C    3.415178   -1.021811   -0.471046
 C    1.892273   -1.202528   -0.584420
 C    4.151122   -1.295246   -1.796099
 C    4.745328   -2.573991   -1.185655
 C    4.268232   -2.117911    0.200497
 N    1.362443   -2.389293   -0.227141
 C   -0.045847   -2.479881    0.090901
 C   -0.222604   -2.920579    1.554421
 O   -1.093870   -3.698039    1.897952
 C   -0.847187   -3.372172   -0.875199
 C   -2.220299   -2.732025   -1.024622
 O   -2.505011   -2.065998   -2.016890
 N   -3.037573   -2.906034    0.008167
 N    0.674651   -2.400361    2.400610
 H    2.718189    3.539116   -3.318465
 H    1.388148    4.143661   -2.306155
 H    1.393319    2.459451   -2.841424
 H    1.010877    2.619352   -0.343259
 H    3.445916    2.720778    1.275120
 H    1.601789    3.638479    2.451879
 H    1.647936    1.962698    3.035371
 H   -0.229699    4.457962    1.149454
 H   -0.041910    0.317565    2.143576
 H   -2.506201    4.134350    0.252746
 H   -2.318977   -0.000473    1.226687
 H   -6.385649    0.874764   -0.776481
 H   -3.058732   -0.573398   -1.917267
 H    3.997829    1.030370   -0.523577
 H    3.509551   -1.419856   -2.665499
 H    4.896127   -0.532025   -2.009589
 H    4.248616   -3.477136   -1.533777
 H    5.819235   -2.696274   -1.298915
 H    5.064209   -1.661110    0.785029
 H    3.763488   -2.848142    0.828959
 H    1.956164   -3.152111    0.053602
 H   -0.418694   -1.448119    0.002216
 H   -0.357994   -3.385179   -1.848170
 H   -0.928993   -4.384432   -0.479121
 H   -2.690793   -3.384880    0.831284
 H   -3.855388   -2.307323    0.094786
 H    0.563091   -2.601238    3.381855
 H    1.300611   -1.643634    2.141048
