24 
3s9i_ligand_xtb.xyz
 O   -3.099962    1.613762   -0.534337
 C   -2.270803    0.478005   -0.478056
 C   -2.728811   -0.512349    0.587208
 O   -4.061091   -0.669043    0.564473
 O   -2.016040   -1.097714    1.352437
 C   -0.828627    0.906158   -0.219213
 C    0.146785   -0.154092   -0.696738
 C    1.554660   -0.010524   -0.255981
 C    2.403047   -1.104324   -0.434210
 C    3.728526   -1.038441   -0.052431
 C    4.228413    0.127375    0.505068
 C    3.397117    1.222768    0.678480
 C    2.067289    1.158303    0.305574
 O   -0.205014   -1.065213   -1.412677
 H   -4.018705    1.321058   -0.554282
 H   -2.303912   -0.073481   -1.436316
 H   -4.337283   -1.315101    1.233287
 H   -0.680115    1.095836    0.843733
 H   -0.650233    1.831940   -0.770001
 H    1.993636   -2.001795   -0.872911
 H    4.373966   -1.892995   -0.190507
 H    5.265171    0.184745    0.802427
 H    3.789457    2.133066    1.107659
 H    1.439297    2.025120    0.439532
