37 
3s9t_ligand_dft.xyz
 N   -4.308821    0.536111   -0.162175
 C   -3.163113   -0.111315   -0.361627
 N   -1.948935    0.251550    0.037535
 C   -1.862176    1.387930    0.744858
 C   -2.999717    2.141929    1.012633
 C   -4.223682    1.677063    0.529725
 S   -3.335451   -1.638059   -1.240548
 C   -1.591084   -2.121720   -1.376315
 C   -0.914878   -2.392533   -0.031718
 O   -1.431808   -3.144317    0.766002
 C   -0.496273    1.785404    1.224278
 C   -5.509612    2.416212    0.762685
 C    0.415845   -1.767846    0.283970
 C    1.049631   -0.842708   -0.542587
 C    2.240400   -0.238471   -0.158610
 C    2.810967   -0.558660    1.078975
 C    2.193868   -1.497463    1.900638
 C    1.006535   -2.095018    1.504462
 S    2.972298    1.026681   -1.198428
 O    4.317068    0.613240   -1.552802
 O    2.694004    2.313355   -0.579761
 N    2.038778    0.947040   -2.585118
Cl    4.268171    0.193443    1.645218
 H   -2.937638    3.061492    1.584139
 H   -1.065551   -1.389345   -1.986259
 H   -1.611636   -3.070304   -1.923875
 H   -0.015624    0.939553    1.725741
 H    0.147127    2.067550    0.384136
 H   -0.544341    2.629941    1.915901
 H   -5.987778    2.641055   -0.195416
 H   -6.201464    1.785630    1.329622
 H   -5.348767    3.348449    1.309636
 H    0.621251   -0.541737   -1.487870
 H    2.647212   -1.744390    2.854098
 H    0.508627   -2.812893    2.147201
 H    2.601945    0.636669   -3.370465
 H    1.596632    1.843870   -2.759093
