36 
3s9y_ligand_dft.xyz
 P    0.924074    2.124822   -0.824057
 N   -0.901733   -0.994646    0.395110
 C   -1.604369   -1.796252   -0.493992
 N   -2.875006   -1.406905   -0.813122
 O   -1.136626   -2.824638   -0.970251
 N   -0.935755    0.888833    1.952034
 C   -3.604545   -0.319408   -0.315054
 O   -4.738411   -0.089604   -0.676353
 C   -2.828580    0.400756    0.655805
 C   -1.557059    0.079539    1.000256
 C    0.501492   -1.451977    0.665344
 O    1.359005    3.346569   -1.759130
 C    1.411952   -1.627161   -0.584048
 O    1.467745   -2.916155   -1.118963
 F   -3.408064    1.440685    1.282871
 O   -0.077184    1.214825   -1.418068
 C    2.800387   -1.351621    0.015615
 O    3.290719   -2.517167    0.629792
 O    0.497398    2.808383    0.546528
 C    2.532265   -0.326196    1.105586
 O    1.140439   -0.476820    1.445754
 C    2.842324    1.114036    0.740791
 O    2.364621    1.474437   -0.550025
 H   -3.347654   -2.000689   -1.483089
 H   -1.625160    1.318719    2.558484
 H   -0.169146    0.447414    2.444094
 H    0.430235   -2.401678    1.209070
 H    0.668365    3.523323   -2.411947
 H    1.138847   -0.865406   -1.323118
 H    0.544921   -3.185685   -1.273011
 H    3.492334   -0.973448   -0.747674
 H    2.972637   -3.247472    0.073029
 H   -0.100483    2.203570    1.061525
 H    3.117569   -0.586173    1.993608
 H    2.443122    1.795444    1.497720
 H    3.928492    1.233675    0.702078
