22 
3s9z_ligand_xtb.xyz
 O   -5.133610   -0.306163    0.304395
 C   -4.031052    0.396548    0.503314
 O   -3.959432    1.415666    1.133314
 C   -2.827899   -0.278453   -0.201405
 O   -3.076037   -1.305305   -0.817192
 C   -1.575253    0.397805   -0.039566
 C   -0.394489   -0.032194   -0.561249
 O   -0.339915   -1.140145   -1.290905
 C    0.828689    0.765819   -0.334062
 C    0.765079    2.149408   -0.515116
 C    1.874498    2.949272   -0.324196
 C    3.078422    2.383941    0.065169
 C    3.165732    1.018140    0.260410
 C    2.052408    0.219278    0.055446
Br    2.248641   -1.660840    0.390406
 H   -4.875076   -1.082775   -0.250253
 H   -1.604020    1.290425    0.563706
 H    0.560482   -1.375217   -1.555812
 H   -0.170853    2.584895   -0.827983
 H    1.799740    4.014290   -0.477778
 H    3.948607    3.002081    0.220899
 H    4.093814    0.565894    0.573641
