22 
3saz_ligand_dft.xyz
 O   -5.887088   -0.305751    0.410136
 C   -4.738058    0.351612    0.512992
 O   -4.625367    1.461771    0.965741
 C   -3.553717   -0.489433   -0.027213
 O   -3.826714   -1.601218   -0.462781
 C   -2.260263    0.147457    0.039647
 C   -1.107874   -0.394847   -0.425120
 O   -1.082157   -1.637135   -0.922448
 C    0.182232    0.335648   -0.377571
 C    0.242588    1.705587   -0.647292
 C    1.462439    2.368950   -0.604362
 C    2.632816    1.681608   -0.295722
 C    2.565137    0.319246   -0.027935
Br    4.144229   -0.627039    0.407410
 C    1.355342   -0.361059   -0.067716
 H   -5.655252   -1.169597    0.007941
 H   -2.229017    1.126490    0.500027
 H   -0.235111   -1.792129   -1.362254
 H   -0.663552    2.241643   -0.909211
 H    1.507729    3.431187   -0.821088
 H    3.586715    2.195828   -0.262535
 H    1.327244   -1.417015    0.184332
