22 
3saz_ligand_xtb.xyz
 O   -5.853488   -0.302978    0.416006
 C   -4.720121    0.375579    0.477058
 O   -4.606749    1.508335    0.856756
 C   -3.540518   -0.497233   -0.019245
 O   -3.826510   -1.629433   -0.382141
 C   -2.260671    0.147211    0.005658
 C   -1.100923   -0.424911   -0.416030
 O   -1.089054   -1.678026   -0.866872
 C    0.170887    0.315897   -0.365810
 C    0.216256    1.689111   -0.606884
 C    1.421285    2.365339   -0.561475
 C    2.597516    1.694440   -0.269783
 C    2.548030    0.331777   -0.026643
Br    4.152623   -0.612166    0.382336
 C    1.354172   -0.364839   -0.078470
 H   -5.628026   -1.197945    0.062590
 H   -2.256054    1.148273    0.403678
 H   -0.213044   -1.943049   -1.179648
 H   -0.690809    2.217952   -0.850895
 H    1.449406    3.426209   -0.755893
 H    3.539039    2.219256   -0.230158
 H    1.348619   -1.422286    0.148305
