81 
3sdk_ligand_xtb.xyz
 C    6.429723   -2.376596    1.410820
 C    7.266525   -2.898395    0.464531
 C    8.623537   -3.488219    0.542571
 O    6.664444   -2.825416   -0.735569
 N    5.446041   -2.267689   -0.600581
 C    5.282761   -1.991907    0.672647
 C    4.050014   -1.362768    1.201774
 O    3.922036   -1.039894    2.367688
 C    0.847359   -1.043364   -0.541128
 C   -2.928627    0.704433    2.871049
 C   -2.578188    2.106140    2.367453
 C   -3.376097    2.425573    1.095266
 C   -2.874336    3.150210    3.445342
 C   -1.131628    2.159788    2.010928
 N   -0.455606    1.107595    1.451643
 N   -0.375008    3.206856    2.153586
 O    0.847754    2.841884    1.674000
 C    0.739643    1.579159    1.259125
 C    1.921136    0.915370    0.666810
 C    1.807303   -0.619948    0.576708
 N    3.095972   -1.183858    0.268462
 O    1.268832   -1.342521   -1.648626
 N   -0.438877   -1.086149   -0.184010
 C   -1.495625   -1.391678   -1.136559
 C   -1.805476   -0.093086   -1.906647
 O   -2.766676    0.606715   -1.659222
 C   -2.726469   -1.909094   -0.402626
 C   -3.758144   -2.494565   -1.372411
 C   -5.014862   -2.852465   -0.631063
 C   -5.285921   -4.162277   -0.262082
 C   -5.909967   -1.853156   -0.267792
 C   -6.431937   -4.470644    0.450842
 C   -7.054131   -2.158537    0.445773
 C   -7.318171   -3.469400    0.807049
 C   -0.837039    1.481136   -3.498205
 C   -0.004467    2.442419   -2.689326
 C   -0.606128    3.298376   -1.774661
 C    1.546655    4.163991   -1.115732
 C    1.379189    2.440833   -2.796388
 N   -0.884850    0.183897   -2.844668
 C    0.159781    4.152865   -1.005103
 C    2.362000    5.095946   -0.274325
 C    2.144434    3.292435   -2.017036
 H    6.580267   -2.272897    2.463396
 H    9.298166   -2.965516   -0.133237
 H    8.998812   -3.415808    1.558499
 H    8.594324   -4.534861    0.242848
 H   -3.980555    0.662892    3.142323
 H   -2.739227   -0.037150    2.100309
 H   -2.334130    0.452091    3.746547
 H   -3.153203    3.435539    0.758745
 H   -3.137336    1.731815    0.292165
 H   -4.440470    2.357571    1.306680
 H   -2.575969    4.137130    3.104159
 H   -2.324800    2.924754    4.355988
 H   -3.937628    3.157298    3.671696
 H    2.787535    1.156776    1.288952
 H    2.097854    1.337553   -0.328748
 H    1.471352   -1.006918    1.545977
 H    3.253638   -1.466312   -0.691647
 H   -0.708600   -0.558267    0.647813
 H   -1.104671   -2.143062   -1.831251
 H   -3.185510   -1.074719    0.130890
 H   -2.427261   -2.667551    0.323269
 H   -3.342425   -3.376452   -1.863791
 H   -3.983435   -1.745656   -2.133795
 H   -4.597347   -4.948608   -0.538300
 H   -5.704195   -0.831663   -0.553706
 H   -6.633231   -5.495166    0.728688
 H   -7.744221   -1.373623    0.719664
 H   -8.212642   -3.709492    1.362927
 H   -1.865302    1.841548   -3.573422
 H   -0.418787    1.346353   -4.498262
 H   -1.680928    3.290008   -1.670623
 H    1.862570    1.771834   -3.494448
 H   -0.042761   -0.380304   -2.870006
 H   -0.318717    4.818922   -0.301509
 H    3.425705    4.918818   -0.412184
 H    2.144937    6.129832   -0.540681
 H    2.115179    4.964381    0.777681
 H    3.221104    3.282751   -2.116420
