29 
3sfg_ligand_xtb.xyz
 N   -0.671186    0.020185   -0.535538
 C   -1.512108    0.992196   -0.077958
 S   -1.088938    2.580999    0.074982
 N   -2.776520    0.608413    0.235173
 C   -3.335468   -0.667757    0.106873
 O   -4.472758   -0.872724    0.454859
 C   -2.406117   -1.609843   -0.481111
 C   -1.148376   -1.233392   -0.772827
 C    0.736424    0.353533   -0.836773
 C    1.504192    0.836477    0.430833
 O    1.944334    2.154757    0.341975
 C    2.736033   -0.093261    0.489487
 O    3.880684    0.509046   -0.032288
 C    2.316648   -1.280715   -0.387999
 O    1.406170   -0.747928   -1.344429
 C    1.717473   -2.425863    0.436317
 O    0.701304   -1.919973    1.277671
 H   -3.386710    1.337789    0.591004
 H   -2.757745   -2.606044   -0.683786
 H   -0.436496   -1.897743   -1.236193
 H    0.724702    1.147681   -1.598769
 H    0.873874    0.673820    1.314559
 H    1.162860    2.733514    0.320266
 H    2.923206   -0.416152    1.522109
 H    3.732493    1.467004   -0.017821
 H    3.173001   -1.656105   -0.953964
 H    1.315669   -3.188053   -0.244669
 H    2.525946   -2.873905    1.027264
 H    0.376058   -2.631650    1.839494
