46 
3sgt_ligand_xtb.xyz
 C    7.679524   -1.680688   -0.743874
 C    5.426180   -1.077181   -2.507935
 O   -6.053190   -1.810883    1.847667
 O   -2.296375   -1.339669   -0.313498
 O   -4.197461   -2.579053    0.939935
 C   -6.774402    0.832641   -1.227480
 C   -5.703382    1.512326   -1.783963
 C   -6.540342   -0.190036   -0.330022
 C   -4.414171    1.169543   -1.424348
 C    6.528831   -0.341291    1.032483
 C    0.242766   -0.122515    0.289484
 C   -0.091552    2.233152    0.624133
 C    5.479845    0.423489    1.505819
 C    1.589561    0.036810    0.551029
 C    1.252519    2.393518    0.880416
 C    4.402704    0.208835   -0.629462
 N   -1.984588    0.889583    0.048935
 O    3.415179    1.522439    1.155183
 C   -5.181377   -1.700818    1.023072
 C   -2.732581   -0.195642   -0.241984
 C    6.532614   -0.847812   -0.259448
 C    5.452986   -0.562960   -1.101426
 C   -0.609351    0.975994    0.317651
 C    2.110538    1.295210    0.837630
 C    4.404898    0.695506    0.671533
 C   -5.245615   -0.575169    0.016781
 C   -4.164149    0.129343   -0.528012
 H    8.427975   -1.794141    0.035823
 H    7.336929   -2.671264   -1.041621
 H    8.150250   -1.219542   -1.611535
 H    5.483915   -2.164991   -2.519318
 H    4.513472   -0.773298   -3.013701
 H    6.278026   -0.695972   -3.070276
 H   -3.468911   -2.316189    0.320419
 H   -7.785819    1.099541   -1.492624
 H   -5.869465    2.309991   -2.492368
 H   -7.361028   -0.721164    0.127521
 H   -3.581464    1.695048   -1.871376
 H    7.362923   -0.552113    1.686079
 H   -0.147979   -1.101442    0.070310
 H   -0.747928    3.091535    0.658513
 H    5.481661    0.816379    2.510139
 H    2.239793   -0.824926    0.543411
 H    1.659456    3.362881    1.120241
 H    3.574053    0.444180   -1.282717
 H   -2.475223    1.772204    0.113771
