100 
3sh1_ligand_xtb.xyz
 O    7.080642   -2.426907   -0.442989
 C    6.038190   -2.378613    0.140295
 C    5.214919   -3.517574    0.688153
 C    3.955421   -2.879087    1.268428
 C    2.686317   -3.261103    0.502602
 C    4.186751   -1.388176    1.124506
 O    3.472464   -0.501408    1.536193
 N    5.360493   -1.194215    0.446062
 C    5.835833    0.075993    0.045400
 C    7.125847    0.454425    0.385973
 C    7.602206    1.699150    0.013566
 C    6.785877    2.578514   -0.680191
 C    5.499647    2.206209   -1.020060
 C    5.010447    0.947041   -0.675665
 C    3.664353    0.528771   -1.121330
 O    3.304774   -0.607462   -1.319428
 O    2.861948    1.590098   -1.320605
 C    1.556377    1.337401   -1.812254
 C    0.500402    1.476760   -0.696249
 C    0.656362    2.883527   -0.071512
 C   -0.639561    3.676242   -0.105804
 C   -1.780076    2.873813    0.519646
 O   -1.585984    2.628886    1.912661
 C   -1.753085    3.752153    2.756043
 C   -1.974684    1.510856   -0.211012
 C   -0.906627    1.261186   -1.300732
 C   -1.725890    0.256766    0.630472
 N   -0.406331    0.347979    1.318059
 C   -0.235486   -0.677285    2.377002
 C    0.838316   -0.285136    3.376080
 C    0.732951    0.400030    0.378526
 C   -3.435205    1.476121   -0.727432
 C   -4.474534    1.754634    0.392651
 C   -5.454285    0.577938    0.376474
 C   -4.994647   -0.580924    1.274499
 O   -6.171419   -1.219389    1.727421
 C   -5.995726   -2.102926    2.807381
 C   -4.071939   -1.580055    0.547152
 C   -3.923074    0.163933   -1.361389
 C   -5.432692    0.173731   -1.106646
 O   -5.984471   -1.066177   -1.458047
 C   -7.387018   -1.145554   -1.301812
 C   -3.325557   -1.099092   -0.723084
 O   -3.342705   -2.171417   -1.646880
 C   -1.823508   -0.846079   -0.443600
 O   -1.204479   -2.033516   -0.022981
 C   -1.086299   -0.223150   -1.690017
 O   -1.694252   -0.299692   -2.949041
 C   -1.327025   -1.413786   -3.739543
 H    4.998138   -4.218023   -0.118865
 H    5.804705   -4.052642    1.433644
 H    3.821243   -3.118037    2.326999
 H    2.551982   -4.339294    0.517913
 H    1.816763   -2.796245    0.959707
 H    2.760609   -2.922787   -0.528017
 H    7.753701   -0.232349    0.930969
 H    8.610896    1.982696    0.270270
 H    7.156052    3.551386   -0.963507
 H    4.865665    2.877194   -1.577524
 H    1.542603    0.342400   -2.265026
 H    1.365044    2.086665   -2.584747
 H    1.429632    3.435085   -0.604986
 H    0.997038    2.798836    0.962410
 H   -0.512577    4.616540    0.431009
 H   -0.917392    3.923611   -1.129341
 H   -2.695370    3.469216    0.411610
 H   -1.764793    3.367059    3.773945
 H   -0.933418    4.466956    2.651022
 H   -2.699989    4.257058    2.547874
 H   -1.053768    1.880581   -2.184901
 H   -2.475028    0.121989    1.407402
 H   -0.470043    1.271606    1.792522
 H   -0.008090   -1.628563    1.896343
 H   -1.192434   -0.775874    2.893494
 H    0.837795   -1.000610    4.193462
 H    1.828786   -0.290579    2.930652
 H    0.636574    0.699372    3.793445
 H    0.853792   -0.591494   -0.058086
 H    1.646346    0.616452    0.935628
 H   -3.512191    2.256713   -1.489606
 H   -5.017638    2.674866    0.178667
 H   -4.013675    1.860293    1.373136
 H   -6.446472    0.872722    0.719352
 H   -4.481125   -0.159971    2.159552
 H   -5.516463   -1.596789    3.654712
 H   -6.992767   -2.425404    3.098745
 H   -5.400558   -2.979511    2.532209
 H   -4.722579   -2.393325    0.217903
 H   -3.345544   -2.010565    1.240804
 H   -3.695093    0.128480   -2.425248
 H   -5.913233    0.971927   -1.695921
 H   -7.884002   -0.325153   -1.829791
 H   -7.687204   -2.094318   -1.741433
 H   -7.663878   -1.125337   -0.245088
 H   -4.249237   -2.237759   -1.978243
 H   -1.592967   -2.747311   -0.550435
 H   -0.123578   -0.741705   -1.764539
 H   -1.704257   -2.346036   -3.313607
 H   -0.238940   -1.471994   -3.852779
 H   -1.784108   -1.248410   -4.712130
