58 
3shy_ligand_dft.xyz
 C    5.511509   -2.454353    0.433718
 C   -0.309067    4.091298    0.228563
 C   -2.709803    2.102615    2.391063
 O    5.007136    1.470314   -0.163543
 O   -3.710722   -2.805008   -0.892354
 O   -3.083020   -0.986591   -2.568747
 F    3.695906    3.913888   -0.458353
 C   -0.843530   -3.043910   -0.254730
 C    0.469942   -3.144574    0.183738
 C   -0.410968   -0.780120   -0.970472
 C    4.586721   -2.964676    1.539801
 C    0.848163    3.997779   -0.768980
 C    3.170693   -3.269469    1.086376
 C   -4.050042    1.899584    0.276490
 C   -4.275003    0.164247    2.040565
 C   -3.119976    0.969211   -0.479745
 C   -3.354556   -0.739407    1.236340
 N    0.964577    1.557519   -0.581631
 N    2.987064    0.422493   -0.348418
 O    2.595237   -2.061112    0.567589
 C   -1.276068   -1.857384   -0.838437
 C    1.333516   -2.043196    0.109139
 C    1.664462    2.744317   -0.597680
 C    3.016016    2.770172   -0.465409
 C    0.875608   -0.827875   -0.452478
 C    1.636785    0.448023   -0.464856
 C    3.806592    1.559044   -0.311333
 N   -3.982833    1.623935    1.764568
 N   -3.483434   -0.407201   -0.172592
 S   -2.977269   -1.614316   -1.268527
 H    5.445522   -3.079741   -0.463456
 H    5.297971   -1.418218    0.152125
 H    6.550029   -2.471041    0.774567
 H   -0.980526    3.234044    0.106005
 H    0.061322    4.096033    1.259690
 H   -0.879384    5.010802    0.064647
 H   -1.861124    1.578052    1.955088
 H   -2.609657    3.172054    2.202411
 H   -2.757167    1.912114    3.463855
 H   -1.524278   -3.883029   -0.157439
 H    0.812904   -4.080180    0.606846
 H   -0.715069    0.131198   -1.469741
 H    4.550449   -2.247029    2.366979
 H    4.983503   -3.899054    1.953786
 H    1.497754    4.870302   -0.675289
 H    0.447930    4.005152   -1.790278
 H    2.561907   -3.621316    1.927530
 H    3.162330   -4.028844    0.294263
 H   -5.086646    1.733603   -0.024712
 H   -3.781561    2.947182    0.125211
 H   -4.164824    0.004935    3.115092
 H   -5.313776   -0.003777    1.747986
 H   -2.069539    1.195430   -0.238735
 H   -3.261623    1.140976   -1.548566
 H   -3.686130   -1.769087    1.390376
 H   -2.312890   -0.663979    1.588640
 H    3.451822   -0.468582   -0.209932
 H   -4.738719    2.160055    2.197553
