58 
3sie_ligand_xtb.xyz
 C   -3.692796    4.240141   -1.808909
 C   -1.894910   -3.939191    1.289250
 C    5.841861   -3.406665   -0.842420
 O   -5.006386    0.464688    0.145537
 O    3.430320   -0.716341    1.459987
 O    4.515423    1.483589    1.637092
Br   -5.027163   -2.599830   -0.139084
 C    1.964530    2.784661    0.587524
 C    0.744912    3.388207    0.359319
 C    0.884800    0.636320    0.614803
 C   -3.271598    4.824462   -0.465919
 C   -1.855918   -3.281767   -0.092807
 C   -1.794914    4.577300   -0.169779
 C    3.930485   -1.907912   -1.100116
 C    6.051265   -1.032028   -0.287711
 C    3.508702   -0.476753   -1.460482
 C    5.614986    0.375916   -0.704512
 N   -1.241705   -0.956413    0.112200
 N   -2.767001    0.784655    0.266618
 O   -1.629406    3.171771    0.014131
 C    2.021155    1.408190    0.713354
 C   -0.427645    2.631293    0.244762
 C   -2.259554   -1.844678    0.003683
 C   -3.560778   -1.425977    0.018279
 C   -0.355016    1.220649    0.370550
 C   -1.500999    0.311537    0.244630
 C   -3.903508   -0.023260    0.142985
 N    5.407703   -2.039144   -1.170881
 N    4.179464    0.509233   -0.651071
 S    3.589269    0.629993    0.970152
 H   -3.137667    4.705183   -2.620623
 H   -3.516811    3.167645   -1.837708
 H   -4.751925    4.413517   -1.973745
 H   -1.232221   -3.417730    1.975951
 H   -2.903686   -3.917307    1.692416
 H   -1.578827   -4.975891    1.215020
 H    5.548777   -3.643550    0.179025
 H    5.377541   -4.123621   -1.517352
 H    6.923828   -3.491049   -0.927434
 H    2.868044    3.363350    0.685739
 H    0.700209    4.461268    0.273979
 H    0.931691   -0.432852    0.744607
 H   -3.870452    4.384424    0.333048
 H   -3.441753    5.901369   -0.460100
 H   -2.532495   -3.811886   -0.764162
 H   -0.841897   -3.326066   -0.491637
 H   -1.492576    5.105235    0.742112
 H   -1.177120    4.915622   -1.009575
 H    3.469095   -2.624698   -1.780732
 H    3.619176   -2.111314   -0.071750
 H    5.719745   -1.215074    0.737129
 H    7.135501   -1.135989   -0.348193
 H    2.434695   -0.370283   -1.303231
 H    3.725675   -0.263416   -2.513767
 H    5.959486    0.613980   -1.716687
 H    6.028845    1.105855   -0.007687
 H   -2.935106    1.782294    0.354996
 H    5.693423   -1.825510   -2.135077
