47 
3skc_ligand_xtb.xyz
 C   -1.113554   -0.600119    0.623966
 C    0.330639   -0.423704    1.025859
 O   -1.562613   -1.685549    0.343307
 C    1.334086   -1.070659    0.317613
 C    2.680355   -1.029920    0.697121
 C    3.017826   -0.311918    1.842164
 C    2.044256    0.350737    2.564896
 C    0.726419    0.291533    2.154259
 F   -0.205983    0.948618    2.880443
 F    1.026678   -1.737877   -0.811092
 N    3.629993   -1.704213   -0.041469
 N   -1.807121    0.569516    0.620135
 C   -3.166986    0.761549    0.346169
 C   -4.024508   -0.264367   -0.027276
 C   -5.345718    0.098292   -0.260234
 C   -5.723043    1.460002   -0.109016
 N   -4.902183    2.443972    0.244152
 C   -3.659842    2.077837    0.462217
 C   -6.565450   -0.544703   -0.642388
 N   -7.549399    0.322313   -0.711210
 N   -7.039186    1.537396   -0.389511
 O   -6.691771   -1.847424   -0.897143
 C   -7.994878   -2.266063   -1.253628
 S    5.241496   -1.224368   -0.186986
 C    5.077470    0.426160   -0.854445
 C    4.697579    0.565134   -2.175047
 C    4.532940    1.837433   -2.697216
 C    4.747522    2.946513   -1.892603
 C    5.132859    2.792078   -0.570160
 C    5.299377    1.520939   -0.043863
 O    5.827516   -1.158618    1.114667
 O    5.788183   -2.105567   -1.167885
 H    4.046212   -0.304904    2.160993
 H    2.294239    0.905145    3.454858
 H    3.288050   -2.228792   -0.832243
 H   -1.320598    1.408503    0.903347
 H   -3.686174   -1.281587   -0.127291
 H   -2.990474    2.877538    0.755269
 H   -8.696973   -2.072009   -0.439227
 H   -8.338907   -1.734194   -2.143761
 H   -7.925988   -3.333666   -1.449992
 H    4.555003   -0.317999   -2.777549
 H    4.241334    1.964240   -3.728413
 H    4.620533    3.937498   -2.301795
 H    5.307428    3.658827    0.048598
 H    5.614433    1.363525    0.974933
 H   -7.637641    2.344976   -0.378672
