47 
3skc_ligand_dft.xyz
 C   12.108062  -26.136559   -3.896626
 C   11.358317  -27.434070   -4.035444
 O   11.697588  -25.062706   -4.284571
 C   11.895097  -28.452847   -4.808290
 C   11.315974  -29.712990   -4.916121
 C   10.125620  -29.947153   -4.231770
 C    9.543224  -28.946592   -3.461262
 C   10.164595  -27.709290   -3.375420
 F    9.630904  -26.761736   -2.603992
 F   13.044913  -28.226558   -5.466949
 N   11.980070  -30.746642   -5.626209
 N   13.324410  -26.316028   -3.292647
 C   14.379064  -25.318552   -3.384857
 C   15.059111  -25.189403   -2.051131
 C   16.346926  -25.522616   -1.987243
 C   17.072598  -26.033415   -3.150292
 N   16.535080  -26.087798   -4.432013
 C   15.312328  -25.727351   -4.520635
 C   17.347960  -25.724788   -0.943226
 N   18.412849  -26.287468   -1.419352
 N   18.237364  -26.483396   -2.822915
 O   17.145472  -25.385762    0.320351
 C   18.226472  -25.678161    1.209978
 S   12.944639  -31.788083   -4.696970
 C   14.019321  -30.713581   -3.754970
 C   15.225346  -30.292694   -4.311481
 C   16.038088  -29.424619   -3.589268
 C   15.642394  -28.993617   -2.323644
 C   14.426487  -29.410445   -1.782433
 C   13.603518  -30.275693   -2.499733
 O   12.053967  -32.443179   -3.758810
 O   13.741330  -32.512615   -5.667922
 H    9.678363  -30.932154   -4.297952
 H    8.620750  -29.116506   -2.918955
 H   12.514395  -30.427401   -6.429246
 H   13.622800  -27.262923   -3.087023
 H   14.464943  -24.895553   -1.190317
 H   14.839471  -25.765625   -5.502597
 H   17.900551  -25.331898    2.189884
 H   18.426079  -26.752935    1.222973
 H   19.130458  -25.152790    0.891582
 H   15.527249  -30.655879   -5.288399
 H   16.981471  -29.082207   -4.002093
 H   16.299967  -28.345619   -1.752411
 H   14.126133  -29.078180   -0.793346
 H   12.663287  -30.627458   -2.088726
 H   13.879993  -24.379468   -3.656505
