101 
3skf_ligand_dft.xyz
 C   -0.811890    5.076345    0.985630
 C    2.544527   -0.960689    3.242592
 C    0.415829    4.608026    1.445734
 C   -1.072281    5.094083   -0.387154
 C    1.458599   -1.787586    2.962498
 C    2.410278    0.419898    3.124561
 C   -6.900647   -2.807906    1.053560
 C    1.376035    4.157252    0.538847
 C   -0.118819    4.621728   -1.286439
 C    0.241008   -1.234476    2.576012
 C    1.189559    0.967670    2.741050
 C   -6.575028   -1.498708    1.389272
 C   -7.466541   -3.113820   -0.180401
 C   -7.400248   -0.770366   -0.766330
 C    1.118911    4.149238   -0.836218
 C    0.090124    0.149477    2.471851
 C   -6.832813   -0.478701    0.470139
 C   -7.721690   -2.091568   -1.102559
 C    3.561420   -0.610713   -0.154530
 C    6.164765   -0.662837   -1.756526
 C    0.671717    0.412322   -0.702140
 C    3.145698   -2.194302   -1.881150
 C    2.832187   -0.838088   -2.507121
 C    4.159976   -1.909562   -0.753106
 C    7.544355   -0.871512   -2.319841
 C    5.090952   -3.692599    2.630402
 C    4.407039   -4.422001   -0.303231
 C   -8.718539   -3.560537   -2.684979
 C    2.123414    3.603145   -1.823464
 C   -1.227431    0.749069    2.037423
 C   -6.468212    0.941557    0.788951
 C    5.210739   -2.745730    1.435889
 C    1.810390    2.154740   -2.240453
 C   -3.969256    0.534340    0.494222
 C    1.967576    1.140913   -1.080213
 C    4.193078   -3.035880    0.318609
 C   -1.429231    0.634825    0.514641
 C   -2.729097    1.277952    0.002813
 N    3.042119    0.157142   -1.388374
 N    5.514146   -1.756039   -1.312981
 N   -0.290482    1.220407   -0.182214
 N   -5.175728    1.323101    0.091874
 O    4.309842    0.233580    0.619126
 O    5.682248    0.483840   -1.690611
 O    0.526858   -0.788010   -0.869993
 O   -2.923549    2.606411    0.448554
 O   -8.268616   -2.264081   -2.315170
 H   -1.549316    5.453249    1.687012
 H    3.487136   -1.388881    3.567702
 H    0.639468    4.623410    2.508110
 H   -2.005022    5.510177   -0.758890
 H    1.552938   -2.864442    3.067850
 H    3.252582    1.067911    3.341559
 H   -6.723094   -3.606733    1.766185
 H    2.345736    3.830509    0.908399
 H   -0.324655    4.650275   -2.353730
 H   -0.603364   -1.887641    2.368663
 H    1.080076    2.047448    2.672571
 H   -6.153327   -1.272102    2.364541
 H   -7.716779   -4.143085   -0.408300
 H   -7.650354    0.009525   -1.482127
 H    2.684589   -0.897217    0.428644
 H    2.233907   -2.616460   -1.451188
 H    3.541207   -2.891663   -2.621066
 H    1.814628   -0.769158   -2.880890
 H    3.535663   -0.576131   -3.299624
 H    7.600385   -0.380940   -3.294416
 H    8.265010   -0.372808   -1.665209
 H    7.825316   -1.921298   -2.425563
 H    4.065535   -3.717823    3.018415
 H    5.376173   -4.718072    2.379781
 H    5.746449   -3.364740    3.441970
 H    5.410812   -4.542999   -0.731245
 H    4.306377   -5.193712    0.462871
 H    3.673859   -4.649100   -1.081860
 H   -7.884186   -4.268898   -2.739073
 H   -9.163438   -3.446706   -3.672293
 H   -9.475222   -3.927814   -1.983283
 H    3.133786    3.651512   -1.400927
 H    2.131303    4.224475   -2.724565
 H   -1.281389    1.806234    2.320938
 H   -2.048948    0.240206    2.554164
 H   -7.217171    1.655722    0.437496
 H   -6.299785    1.104015    1.855660
 H    5.081642   -1.715184    1.780094
 H    6.228472   -2.807793    1.029481
 H    0.796449    2.100183   -2.648867
 H    2.481437    1.870772   -3.058674
 H   -3.990330    0.481766    1.584539
 H   -4.056407   -0.472168    0.084018
 H    2.327474    1.652775   -0.179824
 H    3.190688   -3.033253    0.768950
 H   -1.436930   -0.420151    0.222027
 H   -2.699356    1.242546   -1.097446
 H    3.893992    0.686395   -1.650880
 H    6.007899   -2.632284   -1.413561
 H    0.002213    2.146647    0.114676
 H   -5.318944    1.229545   -0.918424
 H   -4.931640    2.308723    0.269205
 H    5.103337    0.487789    0.110604
 H   -2.250259    3.201251    0.079358
