95 
3skg_ligand_xtb.xyz
 C   -4.598502    5.616173   -0.810707
 C    5.061640   -0.262403    4.740151
 C    4.031925   -0.731663    5.539521
 C   -5.403407    4.491318   -0.771130
 C   -3.452870    5.665123   -0.034347
 C    4.871963   -0.137973    3.377050
 C    2.820411   -1.071728    4.968699
 C   -5.055607    3.418495    0.031924
 C   -3.108925    4.592732    0.769123
 C    4.096032    0.272066   -3.069273
 C    4.971961    1.402103   -1.150671
 C    6.495748    0.383097   -2.737808
 C    3.657774   -0.478944    2.793606
 C    2.623830   -0.945836    3.598655
 C   -3.902501    3.451672    0.806876
 C    3.876716    0.977539   -1.891344
 C    5.389691   -0.013029   -3.467940
 C    6.252732    1.100237   -1.581478
 C   -2.329196   -0.875366    0.006197
 C   -1.870902   -2.597531   -2.216550
 C   -0.207472    1.214652   -0.004794
 C    3.460789   -0.294941    1.309820
 C    1.296206   -1.352877    3.008694
 C   -4.376528   -0.715362   -1.261691
 C   -3.502232    0.527534   -1.440612
 C    2.337255   -1.185268    0.809040
 C   -3.479498   -1.740900   -0.539637
 C   -1.451078   -3.814120   -2.992040
 C   -6.030584   -3.582118    1.796464
 C   -5.622196   -4.108026   -0.610183
 C   -3.540934    2.280214    1.681884
 C    2.480968    1.315119   -1.442348
 C   -4.148239   -2.430377    0.661657
 C   -2.088207    1.824417    1.532585
 C   -1.710386    1.497106    0.080709
 C    2.012714   -1.164455   -0.700708
 C   -5.553018   -3.017744    0.457775
 C    1.523302    0.112303   -1.439013
 N    1.146175   -0.874379    1.625769
 N   -2.486923    0.381381   -0.418543
 N   -2.945200   -2.751709   -1.438955
 N    0.172340    0.522342   -1.078415
 O   -1.451004   -1.266365    0.763448
 O   -1.240713   -1.541259   -2.271159
 O    0.564326    1.592667    0.872847
 O    1.062255   -2.198187   -0.850557
 F    5.571883   -0.704624   -4.601546
 F    7.290446    1.507996   -0.836760
 H   -4.867710    6.454187   -1.434653
 H    6.010006    0.005015    5.178243
 H    4.172268   -0.830984    6.604051
 H   -6.306082    4.448887   -1.361881
 H   -2.827641    6.545077   -0.048742
 H    5.672769    0.226584    2.751429
 H    2.014708   -1.438838    5.586698
 H   -5.703977    2.552948    0.073704
 H   -2.220838    4.651819    1.380671
 H    3.281595   -0.051041   -3.697058
 H    4.850341    1.982473   -0.250192
 H    7.496917    0.153484   -3.061358
 H    4.385990   -0.514791    0.777909
 H    3.209473    0.751798    1.132549
 H    1.213121   -2.445179    3.013367
 H    0.477404   -0.952338    3.610761
 H   -4.738757   -1.099024   -2.212730
 H   -5.234591   -0.475753   -0.636167
 H   -3.027682    0.543822   -2.429039
 H   -4.054610    1.457875   -1.301214
 H    2.591728   -2.234603    1.004010
 H   -2.283267   -4.483841   -3.185926
 H   -0.998412   -3.509562   -3.932287
 H   -0.694996   -4.344578   -2.413311
 H   -6.018259   -2.817069    2.568777
 H   -5.390504   -4.401703    2.114849
 H   -7.046141   -3.957592    1.707545
 H   -5.472504   -3.704533   -1.609361
 H   -6.608825   -4.565099   -0.593960
 H   -4.895797   -4.894939   -0.410858
 H   -4.209966    1.444760    1.461939
 H   -3.700473    2.556680    2.727560
 H    2.500942    1.791107   -0.464538
 H    2.060989    2.045662   -2.140534
 H   -3.471885   -3.215269    1.009009
 H   -4.213142   -1.691568    1.464747
 H   -1.406544    2.597160    1.885809
 H   -1.927151    0.933200    2.142641
 H   -1.927841    2.365687   -0.551237
 H    2.947852   -1.453225   -1.210759
 H   -6.238519   -2.215948    0.166449
 H    1.428333   -0.224807   -2.478447
 H    0.280749   -1.266020    1.192676
 H    1.031145    0.168313    1.609954
 H   -3.401150   -3.650454   -1.410282
 H   -0.555130    0.128069   -1.663508
 H    0.395216   -1.961930   -1.517116
