54 
3sl4_ligand_xtb.xyz
 C   -3.440915    0.711844   -1.508983
 N   -3.930151   -0.509507   -0.906788
 C   -2.995113   -1.606545   -1.083762
 C   -1.612211   -1.155494   -0.738443
 C   -1.246496    0.139809   -0.556519
 C   -2.231347    1.254349   -0.740241
 C   -4.734164   -0.566801    0.214694
 O   -4.884899   -1.601546    0.835660
 N   -5.355854    0.594682    0.580469
 C   -6.421232    0.567893    1.559806
 C   -7.803368    0.520478    0.914795
 S   -0.298815   -2.277837   -0.503345
 C    0.750967   -0.968685   -0.134718
 C    0.132343    0.269859   -0.193155
 C    0.885614    1.476778    0.102564
 O    0.162097    2.601062    0.025389
 C    0.845409    3.823604    0.294980
 C    1.631596    4.307228   -0.915620
 O    2.069446    1.477102    0.405918
 N    2.064597   -1.177280    0.176922
 C    2.617317   -2.419059    0.165804
 C    4.090386   -2.467472    0.533498
 C    4.764303   -1.129362    0.438870
 C    4.976096   -0.355296    1.573365
 C    5.141559   -0.624187   -0.800625
 C    5.716341    0.629237   -0.902471
 C    5.921142    1.394023    0.233477
 C    5.552988    0.898122    1.471554
 O    1.956527   -3.400644   -0.107062
 H   -4.229282    1.462655   -1.581457
 H   -3.134475    0.458258   -2.529260
 H   -3.041361   -1.959277   -2.122469
 H   -3.312741   -2.421065   -0.427666
 H   -2.544603    1.629120    0.238202
 H   -1.773114    2.080721   -1.283497
 H   -5.389768    1.360875   -0.070803
 H   -6.328464    1.455852    2.193342
 H   -6.260426   -0.324564    2.167204
 H   -7.968440    1.396956    0.289782
 H   -7.894451   -0.370997    0.299056
 H   -8.571501    0.493429    1.682598
 H    1.519331    3.674905    1.145049
 H    0.057590    4.530977    0.562527
 H    2.420722    3.597178   -1.150913
 H    0.975342    4.406764   -1.777185
 H    2.079598    5.272123   -0.696420
 H    2.595205   -0.326663    0.386630
 H    4.563595   -3.197722   -0.126539
 H    4.150879   -2.859662    1.552165
 H    4.685629   -0.736657    2.542115
 H    4.978324   -1.218524   -1.688488
 H    6.003019    1.011601   -1.871158
 H    6.366462    2.374393    0.153175
 H    5.711189    1.489738    2.360864
