50 
3sl5_ligand_xtb.xyz
 C   -1.166634    0.494003    0.441583
 C    0.248707    0.482884    0.223405
 C    0.748513   -0.808194    0.247400
 S   -0.451758   -2.005097    0.527256
 C   -1.667684   -0.756442    0.610282
 C   -3.107639   -1.078593    0.847904
 N   -3.912904    0.098366    0.612703
 C   -3.381266    1.328448    1.156723
 C   -2.059075    1.694748    0.477868
 N    2.059619   -1.146868    0.067543
 C    2.478610   -2.436850    0.110566
 C    3.966728   -2.643566   -0.135706
 C    4.769169   -1.391854   -0.063946
 C    5.275595   -0.779967    1.042043
 C    5.944313    0.429469    0.748714
 C    5.932340    0.724402   -0.574257
 S    5.108546   -0.467642   -1.495131
 O    1.702314   -3.347077    0.318636
 C    1.146268    1.606550   -0.000837
 O    0.542302    2.795190   -0.009447
 C    1.380459    3.931418   -0.219981
 C    0.538054    5.181011   -0.048659
 O    2.352091    1.485806   -0.164180
 C   -5.010255    0.127099   -0.177127
 O   -5.332175   -1.102522   -0.643398
 C   -6.524636   -1.177641   -1.421616
 C   -7.764089   -1.257126   -0.541809
 O   -5.638121    1.130361   -0.424465
 H   -3.248776   -1.420446    1.884970
 H   -3.437886   -1.878464    0.183566
 H   -3.219538    1.187250    2.230796
 H   -4.126521    2.109141    1.000840
 H   -2.248517    2.033599   -0.543922
 H   -1.577870    2.512232    1.013079
 H    2.681917   -0.348341   -0.093277
 H    4.061554   -3.102854   -1.123338
 H    4.317825   -3.372298    0.599151
 H    5.177174   -1.181687    2.034932
 H    6.410314    1.048940    1.493514
 H    6.356663    1.571465   -1.074673
 H    1.807319    3.872984   -1.227767
 H    2.206879    3.901276    0.499401
 H   -0.289135    5.172705   -0.753025
 H    0.135346    5.228124    0.959613
 H    1.149666    6.060327   -0.227605
 H   -6.409084   -2.081949   -2.023205
 H   -6.581417   -0.299901   -2.073404
 H   -7.687076   -2.098959    0.142413
 H   -7.864761   -0.340192    0.033438
 H   -8.645839   -1.382480   -1.163702
