130 
3slz_ligand_dft.xyz
 C   -6.701694   -0.015402   -1.421796
 O   -5.890157   -0.631659   -2.098079
 O   -7.783246   -0.562758   -0.850165
 C   -7.936594   -1.982209   -1.049187
 C   -8.978812   -2.469535   -0.084291
 C   -8.646158   -2.673552    1.256519
 C   -9.605978   -3.108321    2.162764
 C  -10.910308   -3.347410    1.734300
 C  -11.249207   -3.148113    0.399602
 C  -10.286164   -2.708542   -0.504583
 N   -6.625191    1.312245   -1.145878
 C   -5.425200    2.081435   -1.454512
 C   -4.348201    1.817797   -0.381926
 O   -3.996189    2.678738    0.421228
 C   -5.751162    3.561730   -1.563751
 N   -3.864149    0.558815   -0.385116
 C   -3.026495    0.028825    0.680867
 C   -1.536191    0.275933    0.371876
 O   -0.734506   -0.637480    0.195523
 C   -3.360430   -1.443479    0.971666
 C   -3.276968   -2.352890   -0.259850
 C   -4.739650   -1.551767    1.630300
 C    0.848076    2.496680    1.322198
 O    0.048799    3.407618    2.073944
 C    0.138531    2.035358    0.037903
 N   -1.210667    1.587161    0.322751
 C    0.186020    3.077045   -1.099113
 C   -0.276201    4.466883   -0.731817
 C    0.655799    5.465010   -0.425868
 C   -1.636547    4.776275   -0.633171
 C    0.240784    6.730691   -0.015159
 C   -2.053946    6.036257   -0.218253
 C   -1.116795    7.018331    0.093926
 N    3.403881    0.830559    1.479819
 C    2.093265    0.284281    1.787330
 C    1.130168    1.355805    2.305985
 O    1.666751    1.888605    3.496390
 C    2.233695   -0.845599    2.816514
 C    2.898649   -2.092581    2.281064
 C    2.341605   -2.763287    1.187220
 C    4.033666   -2.629951    2.888728
 C    2.902022   -3.942070    0.711663
 C    4.578672   -3.832812    2.438000
 C    4.015129   -4.492172    1.346558
 N    6.062385    0.423943    0.109823
 C    5.260387    1.635388    0.163423
 C    3.771708    1.244965    0.253000
 O    3.004305    1.294884   -0.709112
 C    5.609383    2.588178   -0.992192
 C    5.428123    1.994594   -2.395090
 C    4.831963    3.900753   -0.848923
 N    6.446468   -2.530465    0.093866
 C    7.146538   -1.593235    0.964602
 C    6.360284   -0.293981    1.213685
 O    6.060354    0.051595    2.355153
 C    8.578564   -1.314866    0.503374
 C    6.260477   -2.388549   -1.236816
 O    6.644265   -1.444277   -1.920781
 O    5.596666   -3.450299   -1.725043
 C    4.944232   -3.275707   -2.997469
 C    3.492927   -2.941507   -2.776348
 C    3.130201   -1.682803   -2.289476
 C    1.801144   -1.396518   -2.004916
 C    0.817278   -2.360936   -2.210876
 C    1.167527   -3.611237   -2.711722
 C    2.502479   -3.899420   -2.989314
 H   -8.226216   -2.162210   -2.088433
 H   -6.970344   -2.464387   -0.877528
 H   -7.627014   -2.490716    1.588437
 H   -9.337719   -3.265997    3.203029
 H  -11.659747   -3.691129    2.440882
 H  -12.263925   -3.334322    0.061002
 H  -10.551665   -2.550559   -1.546861
 H   -7.259191    1.672787   -0.446911
 H   -5.056899    1.704808   -2.413911
 H   -4.858006    4.123617   -1.848189
 H   -6.524138    3.718981   -2.320585
 H   -6.093867    3.957986   -0.603588
 H   -4.200752   -0.075369   -1.102763
 H   -3.259535    0.620841    1.574977
 H   -2.601617   -1.781748    1.685983
 H   -4.078248   -2.144869   -0.979761
 H   -2.309966   -2.246800   -0.754934
 H   -3.389338   -3.398182    0.046623
 H   -4.791234   -0.979791    2.563357
 H   -4.970353   -2.597769    1.860679
 H   -5.524525   -1.174928    0.962472
 H    1.803031    2.967389    1.051932
 H    0.065669    4.265933    1.630528
 H    0.673310    1.167278   -0.340991
 H   -1.909508    2.264536    0.613472
 H   -0.413785    2.686042   -1.928492
 H    1.225440    3.110565   -1.442252
 H    1.717979    5.245779   -0.511471
 H   -2.380376    4.017389   -0.855428
 H    0.980421    7.491030    0.218026
 H   -3.116029    6.244654   -0.129589
 H   -1.442387    8.001887    0.419130
 H    4.132062    0.765515    2.185068
 H    1.675605   -0.129054    0.866458
 H    0.167750    0.857818    2.509497
 H    1.155328    2.695616    3.657778
 H    2.764901   -0.467696    3.696544
 H    1.223316   -1.105248    3.154885
 H    1.453756   -2.362185    0.705048
 H    4.492294   -2.108469    3.724200
 H    2.463835   -4.431173   -0.152424
 H    5.445616   -4.253748    2.941730
 H    4.443328   -5.424008    0.987833
 H    6.278774    0.010104   -0.794930
 H    5.522434    2.136854    1.102105
 H    6.676563    2.811113   -0.856304
 H    4.375073    1.780920   -2.587626
 H    5.998167    1.070777   -2.541018
 H    5.783943    2.712018   -3.142810
 H    5.176239    4.630728   -1.588651
 H    4.965365    4.341467    0.146270
 H    3.762830    3.730853   -1.012951
 H    5.840345   -3.206533    0.543642
 H    7.176323   -2.076766    1.943100
 H    8.593319   -0.843743   -0.481197
 H    9.137054   -2.253705    0.449163
 H    9.072220   -0.652776    1.220852
 H    5.469112   -2.496634   -3.553706
 H    5.060398   -4.231031   -3.513080
 H    3.886793   -0.921317   -2.118724
 H    1.544722   -0.421485   -1.608024
 H   -0.214357   -2.130098   -1.966333
 H    0.404995   -4.366959   -2.877973
 H    2.777442   -4.882007   -3.366484
