42 
3sn7_ligand_xtb.xyz
 C   -1.904644   -0.619435    2.229968
 F    0.569758   -3.839153   -0.554327
 N   -4.586879   -1.892378   -0.068415
 O    4.208868   -0.840864    0.117874
 C   -2.756091   -0.781026    1.010820
 N   -1.835506    2.318932   -0.209972
 C   -3.789918   -1.710080    0.968326
 N   -0.178241    0.863364   -0.119489
 C   -4.405542   -1.134934   -1.135888
 N    2.561925    1.215536    0.084447
 C   -3.412294   -0.173555   -1.220778
 C   -2.556091   -0.003775   -0.137153
 C   -1.526849    1.038574   -0.178214
 C   -0.689039    3.023895   -0.151951
 C    0.385065    2.144400   -0.088787
 C    0.631761   -0.258046   -0.163953
 C    0.134934   -1.545331   -0.359084
 C    1.033303   -2.586465   -0.369730
 C    2.399978   -2.416561   -0.199669
 C    2.905653   -1.137737   -0.034601
 C    2.017687   -0.030284   -0.028381
 C    1.798068    2.258524    0.030085
 C    2.448250    3.599065    0.111811
 C    5.147947   -1.889688    0.097295
 C   -0.712870    4.509169   -0.152274
 H   -2.401361   -1.044864    3.098354
 H   -0.948548   -1.129264    2.100153
 H   -1.702867    0.434056    2.417632
 H   -3.989553   -2.342164    1.824609
 H   -5.087642   -1.309397   -1.956972
 H   -3.293621    0.433731   -2.104153
 H   -0.912407   -1.735896   -0.516068
 H    3.031351   -3.288868   -0.214810
 H    3.522102    3.461189    0.193876
 H    2.222817    4.185141   -0.776548
 H    2.085211    4.145294    0.980036
 H    4.978423   -2.597841    0.914579
 H    5.132058   -2.424918   -0.857380
 H    6.118814   -1.415331    0.227969
 H   -0.155530    4.907423   -0.998686
 H   -1.746553    4.835553   -0.222265
 H   -0.276394    4.907012    0.762582
