42 
3sn7_ligand_dft.xyz
 C   -1.964364   -0.557383    2.264430
 F    0.555471   -3.846159   -0.532282
 N   -4.611292   -1.899301   -0.077645
 O    4.203610   -0.879999    0.115086
 C   -2.790371   -0.742819    1.021169
 N   -1.826480    2.344259   -0.226991
 C   -3.826048   -1.677260    0.976734
 N   -0.171119    0.872282   -0.124638
 C   -4.392144   -1.159511   -1.164988
 N    2.595350    1.217500    0.089189
 C   -3.391545   -0.197875   -1.244797
 C   -2.564668    0.006387   -0.143034
 C   -1.525955    1.058398   -0.190135
 C   -0.657088    3.036456   -0.167450
 C    0.400746    2.147358   -0.095723
 C    0.644493   -0.270331   -0.163784
 C    0.128775   -1.558656   -0.351851
 C    1.023332   -2.603190   -0.357460
 C    2.396299   -2.444069   -0.195349
 C    2.898903   -1.160121   -0.034472
 C    2.024338   -0.038185   -0.026188
 C    1.827761    2.257844    0.033514
 C    2.463056    3.615867    0.119622
 C    5.120625   -1.952429    0.103354
 C   -0.657974    4.532959   -0.169946
 H   -2.427453   -1.060492    3.117711
 H   -0.957165   -0.971976    2.138330
 H   -1.856153    0.504253    2.509212
 H   -4.035944   -2.280818    1.858922
 H   -5.046777   -1.344645   -2.013442
 H   -3.252683    0.387827   -2.147158
 H   -0.922548   -1.754297   -0.501798
 H    3.027254   -3.322716   -0.210695
 H    3.539284    3.492243    0.248296
 H    2.275125    4.195261   -0.790892
 H    2.061164    4.188867    0.962008
 H    4.928879   -2.653249    0.925629
 H    5.092768   -2.493190   -0.850962
 H    6.104357   -1.501818    0.234899
 H   -1.684112    4.878052   -0.313140
 H   -0.289049    4.944538    0.775802
 H   -0.039312    4.943759   -0.974149
