41 
3sni_ligand_dft.xyz
 C    1.396463   -0.920177    2.310534
 N    3.236229   -2.046436   -1.438788
 O    2.312214    3.005074   -0.213490
 C    2.033790   -1.325851    1.012098
 N   -1.005129   -2.503418   -0.162598
 C    3.411282   -1.490731    0.892575
 N   -0.939224   -0.297554   -0.058732
 C    3.959255   -1.839264   -0.337501
 N    0.709337    1.367603   -0.116984
 C    1.915597   -1.903709   -1.320330
 N   -2.975901    1.631566    0.012726
 C    1.268312   -1.536953   -0.142045
 C   -0.206936   -1.449788   -0.126142
 C   -2.288097   -2.049062   -0.115657
 C   -2.287150   -0.665729   -0.050262
 C   -0.583408    1.052426   -0.068854
 C   -1.633218    1.976059   -0.035088
 C   -1.257465    3.332716   -0.060316
 C    0.069107    3.686073   -0.121375
 C    1.024080    2.649363   -0.149405
 C    3.269752    1.950778   -0.230452
 C   -3.284478    0.371331    0.002905
 C   -4.737308   -0.005119    0.046534
 C   -3.435965   -3.008727   -0.141388
 H    2.091915   -1.032264    3.146682
 H    1.086505    0.130294    2.262015
 H    0.504187   -1.519666    2.517052
 H    4.057627   -1.351015    1.754636
 H    5.035380   -1.963718   -0.441261
 H    1.327215   -2.088676   -2.216415
 H   -2.044133    4.079677   -0.035410
 H    0.397443    4.717945   -0.148586
 H    3.236373    1.380884    0.702449
 H    3.089795    1.264020   -1.062161
 H    4.236626    2.441659   -0.340678
 H   -5.338433    0.904779    0.076002
 H   -5.017877   -0.593667   -0.833435
 H   -4.959372   -0.611968    0.930951
 H   -3.037151   -4.025067   -0.160030
 H   -4.078071   -2.906433    0.739577
 H   -4.064601   -2.871512   -1.027830
