41 
3snl_ligand_xtb.xyz
 C    1.336962   -1.329563    2.279588
 F    2.952072    2.168408   -1.402475
 N    4.061910   -2.557800    0.012866
Cl   -2.719323    3.679141    0.216499
 C    2.015409   -1.887321    1.068832
 F    2.468329    3.963649   -0.321087
 N   -0.917590   -3.236932   -0.228079
 C    3.396218   -2.060578    1.037386
 F    3.089543    2.199857    0.741671
 N   -0.908161   -1.033929   -0.105954
 C    3.379769   -2.931120   -1.055452
 N   -2.985259    0.798802    0.051891
 C    2.003805   -2.810571   -1.152040
 C    1.306641   -2.260181   -0.079757
 C   -0.153993   -2.166397   -0.150684
 C   -2.202511   -2.836936   -0.216081
 C   -2.247337   -1.448759   -0.135052
 C   -0.595469    0.312847   -0.106763
 C    0.699865    0.795949   -0.236184
 C    0.923748    2.162578   -0.189731
 C   -0.120806    3.065598   -0.029471
 C   -1.412802    2.586499    0.056669
 C   -1.688849    1.207781    0.008977
 C   -3.265747   -0.464656   -0.043779
 C   -4.703731   -0.853183   -0.042447
 C    2.346088    2.633220   -0.295980
 C   -3.305782   -3.827446   -0.275418
 H    1.934057   -1.521908    3.167377
 H    1.214815   -0.249004    2.185509
 H    0.352593   -1.774839    2.412763
 H    3.997339   -1.783018    1.893691
 H    3.963945   -3.344028   -1.866358
 H    1.472984   -3.129472   -2.034895
 H    1.528432    0.123156   -0.386319
 H    0.069649    4.125728    0.013309
 H   -5.310790    0.044289    0.028464
 H   -4.951197   -1.389867   -0.955903
 H   -4.919843   -1.504977    0.801574
 H   -2.872303   -4.822451   -0.316643
 H   -3.944553   -3.753454    0.603091
 H   -3.921297   -3.670343   -1.159865
