75 
3so9_ligand_xtb.xyz
 N   -6.983477    2.270583   -0.908049
 C   -6.097793    1.228393   -0.978170
 C   -6.077204    0.245358    0.019110
 C   -5.138048   -0.763039   -0.015474
 C   -4.211508   -0.803564   -1.042098
 C   -4.214622    0.158078   -2.036945
 C   -5.153614    1.167487   -2.009815
 S   -2.984996   -2.098430   -1.045146
 O   -3.606733   -3.367212   -0.814139
 O   -2.191593   -1.951946   -2.241549
 N   -1.991672   -1.770134    0.244842
 C   -2.176329   -2.488033    1.482742
 C   -0.858924   -3.083494    1.998748
 C   -0.321466   -4.099924    0.996422
 C   -1.081473   -3.728036    3.363950
 C   -1.465120   -0.426074    0.293486
 C   -0.090940   -0.307993   -0.391280
 O   -0.195467   -0.192718   -1.786275
 C    0.695729    0.917156    0.116445
 N    2.034824    0.839528   -0.422479
 C    3.131968    0.955652    0.344386
 O    3.137319    1.170013    1.531500
 O    4.255232    0.807022   -0.409505
 C    5.476234    0.947582    0.293874
 C    5.854670   -0.290803    1.127582
 O    7.256746   -0.195004    1.269583
 C    7.777957    0.255877    0.060386
 O    8.111911   -0.820000   -0.786275
 C    7.767075   -0.475073   -2.110485
 C    6.490242    0.362532   -2.003254
 C    6.672279    1.079533   -0.661203
 C    0.047402    2.253417   -0.291389
 C   -1.017391    2.811789    1.909663
 C   -2.118392    3.120652    2.687634
 C   -3.369929    3.239258    2.106200
 C   -3.511299    3.059701    0.741360
 C   -2.408088    2.748613   -0.034663
 C   -1.150939    2.609757    0.540236
 H   -7.782822    2.164380   -0.306648
 H   -7.132025    2.813520   -1.741905
 H   -6.805212    0.285664    0.815595
 H   -5.120051   -1.533445    0.738912
 H   -3.481422    0.092092   -2.825203
 H   -5.166388    1.920769   -2.783664
 H   -2.616791   -1.828660    2.244039
 H   -2.874707   -3.296819    1.262589
 H   -0.133223   -2.269581    2.106621
 H   -0.247948   -3.650949    0.008946
 H   -0.994931   -4.951038    0.928318
 H    0.661265   -4.454593    1.298431
 H   -1.816369   -4.526240    3.289261
 H   -1.439055   -2.995811    4.084662
 H   -0.151606   -4.149863    3.736903
 H   -2.162703    0.251643   -0.208279
 H   -1.382219   -0.115115    1.337077
 H    0.491484   -1.208974   -0.133523
 H   -0.824610   -0.872063   -2.102912
 H    0.799550    0.864846    1.204377
 H    2.122462    0.647301   -1.407678
 H    5.408159    1.819111    0.956183
 H    5.572097   -1.202412    0.584521
 H    5.409761   -0.294459    2.120963
 H    8.682431    0.836015    0.296347
 H    7.639410   -1.402458   -2.669263
 H    8.578685    0.112291   -2.565713
 H    6.379925    1.055719   -2.833128
 H    5.614149   -0.282415   -1.964108
 H    6.967251    2.119208   -0.795203
 H   -0.222839    2.192108   -1.345770
 H    0.806999    3.030019   -0.169797
 H   -0.041549    2.731013    2.366215
 H   -1.999524    3.273182    3.750479
 H   -4.229911    3.479489    2.713739
 H   -4.482169    3.160360    0.279661
 H   -2.525516    2.611161   -1.100317
