113 
3sow_ligand_xtb.xyz
 N    3.798863   -6.095052    1.920510
 C    3.663542   -4.644536    2.027290
 C    3.475733   -4.074633    0.620264
 O    3.917804   -4.624828   -0.372436
 C    4.882912   -3.954419    2.654741
 N    2.750767   -2.943940    0.568714
 C    2.649504   -2.108424   -0.610650
 C    3.059913   -0.696407   -0.169996
 O    2.972260   -0.346811    0.990399
 C    1.207652   -2.073334   -1.158328
 C    0.931553   -3.059154   -2.296987
 C    1.174991   -4.524606   -1.939768
 N    0.430096   -4.874588   -0.746044
 C    0.866395   -5.648971    0.237780
 N    1.838906   -6.544914    0.074516
 N    0.250488   -5.558401    1.419327
 N    3.520939    0.095536   -1.151244
 C    3.916398    1.465239   -0.900093
 C    2.726437    2.304131   -0.412660
 O    2.832109    3.093247    0.513204
 C    4.510155    2.056698   -2.191081
 O    3.565510    1.798595   -3.212746
 C    5.873945    1.448421   -2.506519
 N    1.609687    2.106681   -1.114561
 C    0.283030    2.533543   -0.747068
 C   -0.134885    3.855380   -1.423892
 C    0.840702    5.002978   -1.162401
 C    0.862763    5.445422    0.307416
 C    2.213593    6.080617    0.622060
 N    2.480269    6.369423    2.062064
 C   -0.667897    1.427549   -1.236350
 O   -0.308329    0.628266   -2.081607
 C    3.884993    6.803460    2.180225
 C    2.296548    5.151776    2.877468
 C    1.602298    7.442852    2.556337
 N   -1.878536    1.445656   -0.678615
 C   -2.984127    0.594378   -1.057175
 C   -4.183768    1.099748   -0.239664
 O   -4.035565    1.953895    0.614634
 C   -2.706225   -0.891728   -0.776215
 C   -2.387658   -1.150370    0.701681
 C   -2.422518   -2.640786    0.965268
 O   -1.436864   -3.360987    0.820826
 N   -3.612205   -3.113786    1.326632
 N   -5.361542    0.553732   -0.559244
 C   -6.547546    0.756059    0.235445
 C   -6.567284   -0.246942    1.387186
 O   -5.712282   -1.078961    1.564708
 C   -7.796797    0.567996   -0.648629
 O   -7.640863   -0.704693   -1.248643
 C   -7.915021    1.681303   -1.684530
 O   -7.618154   -0.089469    2.165021
 H    4.563301   -6.298850    1.279710
 H    4.040090   -6.494284    2.822085
 H    2.458758   -6.723900    0.883357
 H    2.771218   -4.432230    2.627992
 H    5.769900   -4.146665    2.053722
 H    4.728998   -2.879730    2.713281
 H    5.054104   -4.334443    3.659765
 H    2.531860   -2.444904    1.423404
 H    3.345300   -2.491822   -1.362899
 H    0.531089   -2.264214   -0.323538
 H    0.982525   -1.074934   -1.536431
 H    1.557008   -2.813761   -3.155952
 H   -0.108157   -2.931716   -2.603837
 H    2.241417   -4.686034   -1.760940
 H    0.862427   -5.156711   -2.777878
 H   -0.362782   -4.281331   -0.519860
 H    2.329236   -6.541913   -0.807367
 H   -0.503808   -4.887991    1.517718
 H    0.438205   -6.228192    2.143547
 H    3.461609   -0.183049   -2.119469
 H    4.662981    1.485024   -0.098189
 H    4.622460    3.144287   -2.052442
 H    3.940978    2.055493   -4.062115
 H    5.797977    0.368770   -2.608478
 H    6.579630    1.675761   -1.713370
 H    6.261328    1.858670   -3.436810
 H    1.629497    1.492667   -1.923894
 H    0.235278    2.617621    0.342860
 H   -1.134136    4.125319   -1.079431
 H   -0.181739    3.682626   -2.500410
 H    0.571501    5.845890   -1.799227
 H    1.836914    4.672745   -1.457526
 H    0.035840    6.131116    0.491908
 H    0.737991    4.562272    0.927569
 H    2.327983    7.010786    0.061925
 H    2.980059    5.371853    0.301857
 H    4.547809    5.987109    1.899285
 H    4.076776    7.654507    1.528981
 H    4.104251    7.095652    3.205765
 H    2.784449    5.274674    3.841936
 H    2.724313    4.292668    2.359191
 H    1.239433    4.967599    3.051078
 H    1.770450    8.357980    1.991079
 H    0.558602    7.154857    2.455193
 H    1.807767    7.639080    3.607319
 H   -2.134986    2.102934    0.054616
 H   -3.186901    0.712631   -2.129386
 H   -3.581395   -1.473671   -1.069578
 H   -1.863861   -1.201555   -1.395971
 H   -1.395535   -0.764770    0.939293
 H   -3.126970   -0.657558    1.332657
 H   -3.736735   -4.099063    1.499141
 H   -4.405646   -2.498988    1.447981
 H   -5.435002   -0.202712   -1.224648
 H   -6.526654    1.763100    0.663566
 H   -8.680006    0.576160    0.005776
 H   -8.386004   -0.866708   -1.837649
 H   -7.032407    1.707076   -2.318960
 H   -8.025438    2.641920   -1.191041
 H   -8.788966    1.515391   -2.310194
 H   -7.639293   -0.730439    2.895717
