76 
3spf_ligand_dft.xyz
 C    1.039825    3.834706    1.284223
 O    2.172068    0.781188   -1.474330
 O    0.156376   -0.842484    2.081519
 O    2.744178   -2.762951    1.939967
Cl   -7.518892   -0.083467    0.611058
 C   -1.506613    4.041949   -0.958616
 C   -2.019576    3.218130    0.043379
 C   -0.622134    3.482602   -1.885773
 C   -1.659041    1.878250    0.112511
 C   -0.282995    2.134861   -1.839466
 C   -5.216344    0.299646   -0.793418
 C   -5.111794   -1.283382    1.032554
 C   -3.874806    0.067112   -1.064336
 C   -3.765859   -1.499250    0.750861
 C   -1.255173   -2.358965   -0.884622
 C    0.342128   -2.238291    1.964301
 C    4.991227   -0.728769   -0.976239
 C    3.989792   -1.792389   -1.517900
 C    1.318904   -3.857167    0.235547
 C    4.823903   -0.335890    0.502221
 C    1.774737    1.494825    1.697195
 C    3.173995    3.041790    0.347018
 C    3.006441    0.632893    1.895187
 C    4.335468    2.069360    0.530086
 C    0.908841   -3.477724   -1.212059
 N    2.781225   -1.398981   -2.233786
 C    1.809102   -0.576433   -1.616372
 C   -5.824898   -0.379814    0.257002
 C   -3.123744   -0.836447   -0.300070
 C   -0.816275    1.269253   -0.852846
 C   -1.707677   -1.114370   -0.602287
 C   -0.613901   -0.170501   -0.839193
 C    0.510111   -0.953122   -1.329385
 C    1.573081   -2.626797    1.125579
 N    2.203898    2.928818    1.488901
 N    3.833141    0.723163    0.706313
 N    0.068695   -2.299223   -1.316570
 H    1.397422    4.865969    1.264235
 H    0.566450    3.577684    0.336119
 H    0.327449    3.688466    2.095719
 H   -0.171620   -0.551343    1.201764
 H    2.607519   -3.509929    2.536343
 H   -1.788567    5.089177   -1.021057
 H   -2.701997    3.623119    0.787484
 H   -0.212166    4.101671   -2.681188
 H   -2.059447    1.265885    0.915674
 H    0.372453    1.721745   -2.595137
 H   -5.789007    0.998428   -1.393889
 H   -5.597525   -1.801009    1.853101
 H   -3.395421    0.592620   -1.883750
 H   -3.192510   -2.185400    1.367647
 H   -1.793169   -3.297594   -0.916186
 H    0.464542   -2.634918    2.981234
 H   -0.557280   -2.690900    1.531035
 H    4.969149    0.160328   -1.620155
 H    5.999269   -1.151318   -1.073355
 H    4.551075   -2.434233   -2.209357
 H    3.698712   -2.434760   -0.676960
 H    0.551362   -4.498242    0.691722
 H    2.238211   -4.452429    0.183012
 H    5.794161   -0.026244    0.926986
 H    4.489792   -1.211084    1.069114
 H    1.103238    1.463151    2.555259
 H    1.229698    1.200873    0.797143
 H    3.518806    4.078518    0.313506
 H    2.603403    2.810862   -0.557761
 H    3.557008    0.946359    2.806713
 H    2.671274   -0.392856    2.051575
 H    4.949541    2.117765   -0.374102
 H    4.974313    2.385688    1.379599
 H    0.366260   -4.316788   -1.663681
 H    1.794190   -3.296126   -1.817273
 H    3.017413   -1.070034   -3.167256
 H    1.810385   -1.779153    0.478713
 H    2.695265    3.216269    2.340052
 H    2.791486    0.749861   -0.722377
