75 
3spk_ligand_dft.xyz
 O    1.095949    1.237565    0.776937
 C    2.188419    0.712306    1.339812
 C    3.452004    0.496278    0.512475
 C    3.340244    0.909347   -0.940796
 C    1.943190    0.885087   -1.498571
 C    0.996119    1.689231   -0.607792
 O    2.153020    0.414714    2.511358
 O    4.316006    1.223901   -1.589118
 C    1.325077    3.191620   -0.575109
 C    1.591589    3.873134   -1.920555
 C    1.744888    5.384514   -1.756742
 C   -0.465978    1.351837   -0.920063
 C   -0.976552    1.528865   -2.354687
 C   -2.346292    0.899896   -2.471033
 C   -3.499257    1.650277   -2.230266
 C   -4.756246    1.051750   -2.256109
 C   -4.875323   -0.310089   -2.526852
 C   -3.730806   -1.067976   -2.764418
 C   -2.476875   -0.465396   -2.730518
 C    3.914564   -0.997561    0.650128
 C    5.367039   -1.204166    0.196609
 C    6.387952   -0.416057    1.015603
 C    2.925879   -1.930491   -0.034062
 C    3.058983   -2.298643   -1.375973
 C    2.079086   -3.066408   -1.999653
 C    0.965536   -3.508823   -1.296095
 C    0.835033   -3.160312    0.047436
 N   -0.245026   -3.684753    0.815787
 C    1.800105   -2.367475    0.667571
 S   -1.830291   -3.263793    0.531317
 O   -2.056343   -3.255231   -0.902906
 O   -2.627844   -4.085816    1.420051
 C   -1.969142   -1.559450    1.115145
 N   -1.040712   -1.184859    1.980907
 C   -1.114370    0.057750    2.462094
 C   -2.138488    0.928945    2.105148
 C   -3.115163    0.506059    1.206924
 C   -3.028646   -0.772792    0.679465
 C   -2.166258    2.341823    2.616480
 F   -3.375524    2.658248    3.107159
 F   -1.262616    2.554660    3.576376
 F   -1.914529    3.222215    1.622630
 H    4.223450    1.116808    0.979801
 H    1.952128    1.273553   -2.517890
 H    1.597275   -0.155396   -1.527144
 H    0.507661    3.696741   -0.045742
 H    2.217365    3.325670    0.051950
 H    2.508319    3.463976   -2.361243
 H    0.784200    3.665154   -2.630725
 H    0.828820    5.832658   -1.355974
 H    1.964346    5.864862   -2.714990
 H    2.561609    5.623279   -1.066329
 H   -0.597679    0.299762   -0.640144
 H   -1.095615    1.936836   -0.245428
 H   -1.035574    2.590508   -2.614659
 H   -0.293585    1.056555   -3.069937
 H   -3.409784    2.713977   -2.020041
 H   -5.644279    1.649992   -2.072361
 H   -5.854777   -0.778267   -2.552902
 H   -3.807184   -2.134109   -2.950845
 H   -1.588141   -1.072675   -2.883793
 H    3.869474   -1.192905    1.727115
 H    5.578452   -2.276758    0.279778
 H    5.485187   -0.939050   -0.858832
 H    7.404133   -0.739061    0.770351
 H    6.238734   -0.563547    2.091424
 H    6.331803    0.656428    0.804031
 H    3.919002   -1.969400   -1.950348
 H    2.195416   -3.339788   -3.043937
 H    0.212929   -4.131579   -1.764523
 H   -0.075329   -3.691710    1.816808
 H    1.659392   -2.073462    1.704103
 H   -0.311081    0.364928    3.122487
 H   -3.913205    1.172550    0.896847
 H   -3.738781   -1.134204   -0.054457
