25 
3srb_ligand_dft.xyz
 C   -2.007494   -0.037327    0.011599
 N    2.460401    1.756158   -0.026592
Br   -3.219010   -1.494042   -0.007404
 C   -2.519011    1.274910    0.042518
 N    0.570197    3.226563   -0.004137
 C   -1.652794    2.338759    0.041884
 N    2.273872   -0.532358    0.004787
 C   -0.252738    2.134466    0.016278
 C    0.242671    0.811428    0.002971
 C   -0.656425   -0.276479   -0.009849
 C    1.682402    0.687119   -0.000447
 C    1.850153    2.961883   -0.037620
 C    3.715483   -0.711603    0.094144
 C    4.095398   -2.059670   -0.445822
 C    4.701504   -3.002851    0.268605
 H   -3.591940    1.431313    0.060347
 H   -2.013751    3.361441    0.056567
 H    1.712977   -1.335570    0.239382
 H   -0.307751   -1.302710   -0.052665
 H    2.525259    3.814936   -0.067374
 H    4.062848   -0.594943    1.129956
 H    4.176911    0.088878   -0.490348
 H    3.841580   -2.240756   -1.489534
 H    4.961633   -2.846171    1.313264
 H    4.971390   -3.961295   -0.164410
