25 
3srb_ligand_xtb.xyz
 C   -2.028849    0.113138    0.058158
 N    2.624829    1.176443   -0.382411
Br   -3.479096   -1.128103    0.033212
 C   -2.297557    1.458958    0.330895
 N    1.045420    2.860544    0.122351
 C   -1.268373    2.358908    0.350160
 N    2.065555   -1.016273   -0.709760
 C    0.053766    1.941363    0.099002
 C    0.309586    0.571698   -0.173697
 C   -0.758127   -0.337137   -0.191118
 C    1.690115    0.238867   -0.412585
 C    2.247775    2.425953   -0.120691
 C    3.453679   -1.413569   -0.822920
 C    3.918880   -2.113761    0.422069
 C    4.850883   -1.637748    1.224415
 H   -3.312840    1.771692    0.521910
 H   -1.438281    3.403677    0.554410
 H    1.386465   -1.755336   -0.625056
 H   -0.600068   -1.384782   -0.401328
 H    3.046067    3.157807   -0.107748
 H    4.031301   -0.503961   -0.988673
 H    3.550693   -2.079601   -1.687756
 H    3.417785   -3.047199    0.646747
 H    5.349411   -0.706261    1.015260
 H    5.156518   -2.157473    2.116429
