54 
3stj_ligand_xtb.xyz
 N    0.826216    1.414747   -1.955249
 C    2.307286    1.423612   -1.827245
 C    2.718701    0.400247   -0.749844
 O    3.419114   -0.549800   -1.024523
 C    2.799290    2.827107   -1.513445
 N    2.259218    0.657604    0.485734
 C    2.400881   -0.343980    1.538071
 C    1.273968   -1.332867    1.214383
 O    0.114404   -1.140656    1.542310
 C    2.289301    0.293035    2.909932
 N    1.646304   -2.346895    0.413681
 C    0.617174   -3.100987   -0.295052
 C   -0.293872   -2.045338   -0.927450
 O    0.211408   -1.137835   -1.584314
 C   -0.066381   -4.102930    0.628013
 N   -1.612338   -2.129196   -0.750096
 C   -2.496302   -1.120065   -1.307514
 C   -2.251926    0.233148   -0.631978
 O   -1.960559    1.241364   -1.266122
 C   -3.951567   -1.541182   -1.162461
 N   -2.391934    0.271847    0.689754
 C   -2.257151    1.537208    1.390342
 C   -1.414227    2.496524    0.550817
 O   -2.088157    3.582853    0.246685
 C   -1.629039    1.308990    2.760354
 O   -0.211898    2.385480    0.359236
 H    0.383660    1.881516   -1.129634
 H    0.508768    1.885949   -2.804228
 H    0.466629    0.425326   -1.954755
 H    2.741327    1.064962   -2.765420
 H    2.348604    3.200937   -0.597739
 H    2.561795    3.507300   -2.328267
 H    3.877899    2.820095   -1.386322
 H    1.556695    1.367694    0.652213
 H    3.374264   -0.825672    1.410563
 H    2.374706   -0.470455    3.677867
 H    1.331325    0.792493    3.023816
 H    3.085525    1.019212    3.048466
 H    2.581004   -2.339857    0.028671
 H    1.110436   -3.627324   -1.118188
 H    0.686885   -4.767788    1.043166
 H   -0.783803   -4.709034    0.080647
 H   -0.554072   -3.591164    1.453920
 H   -2.006895   -2.854709   -0.173124
 H   -2.243106   -0.989194   -2.367359
 H   -4.218523   -1.681014   -0.117410
 H   -4.600129   -0.778688   -1.584943
 H   -4.124186   -2.470878   -1.698972
 H   -2.452054   -0.564598    1.249369
 H   -3.247479    2.002592    1.485227
 H   -1.562916    4.237698   -0.241484
 H   -2.351764    0.841590    3.423316
 H   -1.316513    2.250858    3.202130
 H   -0.771646    0.649029    2.653990
