77 
3str_ligand_dft.xyz
 C    1.733210   -4.301240    2.352528
 N    2.546083   -3.528091    1.437206
 C    2.154854   -3.365040    0.153011
 O    1.093985   -3.826524   -0.269074
 C    3.090748   -2.577608   -0.720259
 C    4.473690   -2.688852   -0.560626
 C    5.334631   -1.941221   -1.349853
 C    4.815066   -1.111248   -2.335764
 C    3.441955   -1.008405   -2.554568
 C    2.913055   -0.142175   -3.665254
 C    2.577494   -1.737079   -1.721907
 N    1.174578   -1.626597   -1.907543
 C    0.499207   -0.492615   -1.566339
 N    1.231438    0.538245   -1.120725
 C    0.516551    1.620078   -0.777255
 N   -0.805600    1.743066   -0.863750
 C   -1.431316    0.638641   -1.325312
 N   -0.827038   -0.507338   -1.684169
 N   -2.778490    0.698243   -1.445953
 C   -3.583163   -0.468259   -1.778612
 C   -4.411252   -0.884402   -0.567578
 N   -5.211883    0.249803   -0.099456
 C   -4.371484    1.378969    0.270791
 C   -3.556169    1.818726   -0.943884
 C   -6.258751   -0.082443    0.787409
 C   -6.193838    0.181665    2.160348
 C   -7.244996   -0.136712    3.013045
 C   -8.388718   -0.746659    2.512679
 C   -8.481712   -1.019148    1.151705
 C   -7.435681   -0.679350    0.303696
Cl   -7.632630   -0.973552   -1.409679
 N    1.219888    2.660583   -0.255644
 C    0.522621    3.880286    0.134642
 S    1.798225    4.978760    0.815944
 C    3.045358    4.197987   -0.255691
 C    2.682606    2.716597   -0.265910
 C    3.359144    1.974793    0.913878
 O    4.284160    2.476960    1.551295
 N    2.892439    0.734301    1.149575
 C    3.318056   -0.060119    2.277529
 C    4.663070   -0.758126    2.122901
 O    4.845999   -1.951282    2.413276
 N    5.665977   -0.007956    1.673201
 O    6.919654   -0.578476    1.575480
 H    0.747478   -3.843790    2.489445
 H    1.580981   -5.315197    1.971281
 H    2.245787   -4.350118    3.314798
 H    3.382995   -3.066646    1.789251
 H    4.874931   -3.356613    0.193280
 H    6.406913   -2.009197   -1.199664
 H    5.489746   -0.541649   -2.969731
 H    2.052873   -0.612073   -4.151450
 H    3.685662    0.037084   -4.418181
 H    2.574130    0.825682   -3.280063
 H    0.652742   -2.488833   -1.781522
 H   -4.257718   -0.202954   -2.601452
 H   -2.923072   -1.273186   -2.095777
 H   -3.736743   -1.242588    0.230343
 H   -5.073456   -1.706514   -0.845197
 H   -5.010979    2.201632    0.604333
 H   -3.667860    1.132347    1.087412
 H   -4.238625    2.152374   -1.734588
 H   -2.878458    2.629985   -0.684598
 H   -5.297784    0.638648    2.567221
 H   -7.159587    0.081907    4.072977
 H   -9.211188   -1.005453    3.171584
 H   -9.372342   -1.478132    0.736465
 H   -0.228339    3.671813    0.899523
 H    0.023390    4.326357   -0.731737
 H    3.000090    4.616090   -1.264540
 H    4.034553    4.352604    0.174138
 H    3.044750    2.234854   -1.181926
 H    2.305797    0.318138    0.424098
 H    3.360974    0.577990    3.167255
 H    2.576103   -0.841552    2.449365
 H    5.636732    1.007077    1.617898
 H    6.755122   -1.467352    1.950073
