95 
3su1_ligand_xtb.xyz
 C   -3.177188    0.821477   -2.875395
 F    5.610046   -3.351271   -2.247197
 N    1.904941    3.086567   -0.156662
 O    3.824161    2.710890   -1.179391
 S   -6.548730   -1.451256    0.249784
 C   -3.351422    0.043400   -1.602411
 N   -2.147350   -0.529516   -1.060700
 O    3.091899    1.249746    0.414116
 C   -3.434453    1.575198   -1.611742
 N   -4.928865   -1.204867   -0.227358
 O    0.027168    1.151317   -1.122406
 C   -4.688738   -0.631018   -1.425600
 N    4.487228   -1.448237    1.470294
 O   -7.220570   -0.190303    0.229541
 C   -4.728856    2.258003   -1.379172
 N    0.186355    0.263172    0.927238
 O    3.459493   -0.562749    3.307631
 C    5.934192    1.914722   -0.232936
 O   -6.452490   -2.138753    1.500972
 C    5.727614    2.863247   -2.548551
 O   -2.646061   -0.872985    1.142212
 C    4.732005    0.617066   -2.032218
 O    2.263927   -1.630504    1.724327
 C    5.055231    2.003125   -1.478764
 O   -5.519899   -0.617151   -2.308620
 C   -5.233527    2.539478   -0.185629
 C   -1.850722   -0.806391    0.215993
 C    5.761065   -1.052594    1.780338
 C   -4.620759    2.200764    1.135386
 C    8.516060   -1.890228   -0.589430
 C   -0.348261   -1.021173    0.466655
 C    7.986784   -1.353576    0.543320
 C    7.714352   -2.571471   -1.540726
 C   -4.064394    3.444629    1.844263
 C   -2.838528    4.034433    1.142060
 C    2.969105    2.245155   -0.268103
 C    6.377499   -2.706025   -1.339710
 C   -1.587259    3.182356    1.354510
 C   -7.187167   -2.550461   -1.000811
 C    6.596767   -1.479581    0.773250
 C   -0.419362    3.613755    0.466451
 C    5.764728   -2.169911   -0.185649
 C   -0.084645   -1.988773    1.619906
 C    0.753643    2.642114    0.604385
 C   -7.953117   -3.723878   -0.485072
 C    1.042098   -1.323792    2.400402
 C    4.471335   -2.125144    0.282167
 C   -6.559961   -3.904022   -0.991298
 C    0.313727    1.278857    0.060497
 C    0.715897    0.163734    2.269677
 C    3.382809   -1.148617    2.264619
 H   -3.985966    0.746085   -3.587083
 H   -2.188737    0.860685   -3.309047
 H    1.763055    3.751824   -0.900232
 H   -1.338164   -0.331332   -1.644312
 H   -2.571135    2.049752   -1.159264
 H   -4.225540   -1.122523    0.516436
 H   -5.283033    2.516012   -2.270906
 H    6.153699    2.912507    0.140967
 H    6.865936    1.412250   -0.477096
 H    5.429297    1.350730    0.545944
 H    5.080196    2.953142   -3.416652
 H    5.923932    3.858736   -2.159480
 H    6.665660    2.407306   -2.850062
 H    4.099656    0.704607   -2.913173
 H    4.211194    0.026345   -1.284119
 H    5.650678    0.104912   -2.303626
 H   -6.179658    3.058575   -0.129548
 H    5.956421   -0.506149    2.679905
 H   -5.402077    1.760528    1.758882
 H   -3.837164    1.453317    1.018609
 H    9.573661   -1.806389   -0.788605
 H    0.162556   -1.315699   -0.456017
 H    8.601591   -0.835938    1.262848
 H    8.167984   -2.984919   -2.427556
 H   -3.799600    3.184243    2.871026
 H   -4.848963    4.202822    1.883769
 H   -2.651214    5.040561    1.524019
 H   -3.053527    4.121012    0.075002
 H   -1.285440    3.241255    2.402903
 H   -1.825208    2.138439    1.143422
 H   -7.441841   -2.032940   -1.908453
 H   -0.735511    3.629752   -0.579712
 H   -0.089771    4.617631    0.740393
 H   -0.977848   -2.055275    2.242957
 H    0.194999   -2.979289    1.270686
 H    1.050281    2.573564    1.653936
 H   -8.103728   -3.765203    0.582576
 H   -8.780494   -4.089213   -1.074444
 H    1.120072   -1.642642    3.443915
 H    3.564785   -2.513688   -0.131862
 H   -5.782560   -4.064397   -0.259767
 H   -6.399083   -4.401181   -1.935936
 H   -0.033877    0.451856    3.013699
 H    1.617260    0.764831    2.382562
