95 
3su2_ligand_dft.xyz
 C   -3.207277    1.068392   -2.613695
 F    5.046763   -4.105172   -1.557280
 N    2.056209    3.047201   -0.748064
 O    4.011830    2.448640   -1.609729
 S   -6.511517   -1.865049    0.181746
 C   -3.430260    0.152741   -1.450993
 N   -2.253345   -0.472873   -0.905233
 O    3.289686    1.469008    0.328394
 C   -3.551325    1.674075   -1.284082
 N   -4.990988   -1.231343   -0.220081
 O    0.122933    1.018444   -1.281525
 C   -4.736564   -0.610262   -1.420255
 N    4.294963   -1.358882    1.656847
 O   -7.534094   -0.851405    0.022154
 C   -4.860901    2.329345   -1.038716
 N    0.138111    0.578612    0.937076
 O    3.450846   -0.060667    3.355122
 C    6.141115    1.915458   -0.514048
 O   -6.280999   -2.490553    1.475342
 C    5.884203    2.247440   -2.988324
 O   -2.798678   -0.347399    1.306613
 C    4.908927    0.196939   -1.914324
 O    2.080066   -1.275780    2.027516
 C    5.247533    1.671717   -1.727274
 O   -5.502820   -0.635524   -2.363643
 C   -5.218940    2.894025    0.117161
 C   -1.968779   -0.513107    0.415911
 C    5.596721   -0.919759    1.756057
 C   -4.407481    2.942288    1.383625
 C    8.104904   -2.315057   -0.641439
 C   -0.485519   -0.738774    0.741948
 C    7.698144   -1.530089    0.395335
 C    7.208029   -3.207942   -1.322513
 C   -3.695669    4.293176    1.600531
 C   -2.527126    4.550957    0.642052
 C    3.153829    2.239062   -0.610472
 C    5.909757   -3.285077   -0.938062
 C   -1.310955    3.667852    0.930702
 C   -6.745856   -3.116080   -1.043396
 C    6.330482   -1.595325    0.805657
 C   -0.206091    3.787621   -0.122542
 C    5.416494   -2.485051    0.127573
 C   -0.277769   -1.447461    2.084691
 C    0.928825    2.784911    0.118259
 C   -7.438553   -4.379022   -0.606251
 C    0.920414   -0.736386    2.691428
 C    4.164481   -2.312437    0.669938
 C   -5.972618   -4.396607   -0.921753
 C    0.391390    1.369477   -0.133203
 C    0.708525    0.714638    2.276658
 C    3.262739   -0.817842    2.439069
 H   -3.976845    1.048732   -3.378869
 H   -2.186471    1.178563   -2.968134
 H    1.867866    3.390499   -1.678984
 H   -1.436515   -0.432013   -1.504953
 H   -2.705183    2.079793   -0.738990
 H   -4.396545   -1.003668    0.585251
 H   -5.564502    2.328908   -1.868014
 H    6.322398    2.987536   -0.384597
 H    7.102650    1.415559   -0.671065
 H    5.686580    1.514663    0.392135
 H    5.221335    2.116375   -3.848891
 H    6.088275    3.315325   -2.864300
 H    6.827850    1.732967   -3.193736
 H    4.276431    0.060529   -2.797644
 H    4.390454   -0.197584   -1.040185
 H    5.830528   -0.377887   -2.053390
 H   -6.197246    3.370145    0.163303
 H    5.858172   -0.160962    2.475431
 H   -5.087373    2.772659    2.226906
 H   -3.689808    2.115268    1.410049
 H    9.137636   -2.279235   -0.974323
 H    0.020148   -1.254403   -0.080961
 H    8.389651   -0.862639    0.899423
 H    7.561671   -3.822944   -2.142451
 H   -3.329040    4.339905    2.634631
 H   -4.431902    5.099920    1.496693
 H   -2.226229    5.604224    0.708746
 H   -2.866287    4.393893   -0.390697
 H   -0.900444    3.927147    1.916450
 H   -1.627937    2.619885    1.009154
 H   -6.947210   -2.681053   -2.015032
 H   -0.622078    3.616119   -1.124190
 H    0.218263    4.798366   -0.110308
 H   -1.156719   -1.283856    2.714814
 H   -0.114403   -2.520438    1.972272
 H    1.275071    2.898723    1.146618
 H   -7.718945   -4.458936    0.438912
 H   -8.140369   -4.810845   -1.311527
 H    1.031828   -0.862127    3.769271
 H    3.213399   -2.763526    0.446269
 H   -5.288676   -4.485856   -0.083591
 H   -5.633410   -4.845958   -1.849157
 H    0.006328    1.200553    2.964091
 H    1.647201    1.264858    2.253842
