106 
3su3_ligand_xtb.xyz
 C   -2.277219    0.412445   -2.024850
 N   -0.734827   -0.214104   -0.208458
 O   -2.834779   -0.292186   -2.848388
 C   -0.809609    0.208671   -1.608126
 C   -0.163301   -0.921128   -2.415186
 C    0.331320   -1.936499   -1.387796
 C   -0.790260    0.684032    0.778990
 O   -1.017700    1.872786    0.532049
 C   -0.433972    0.264101    2.205957
 N    0.745946    1.044378    2.548704
 C    1.887790    0.776688    1.859261
 O    2.739413    1.813859    1.922398
 C   -1.577849    0.454403    3.225189
 O    2.112368   -0.272698    1.301112
 C    2.344291   -2.466924   -0.283509
 O    1.826423   -3.345217    0.349190
 N    3.701384   -2.173099   -0.196029
 C   -6.017543    3.475376   -0.694107
 C   -5.657527    3.825973    0.746213
 C   -2.821144   -0.262754    2.694114
 N   -2.862123    1.445656   -1.398279
 C   -4.283501    1.657616   -1.440440
 C   -4.931285    0.540405   -0.649354
 C   -4.793765    3.066500   -1.478494
 C   -4.907994    2.195474   -2.698373
 C    4.499417   -2.674734    0.794621
 C    5.772644   -2.191966    0.598627
 C    5.735348   -1.355435   -0.581423
 C    4.431182   -1.372789   -1.033022
 C    6.984981   -2.385026    1.298402
 C    8.106825   -1.780220    0.824070
 C    8.072681   -0.963216   -0.331748
 C    6.926681   -0.726020   -1.036639
 C    6.930588    0.190295   -2.228550
 N   -5.088975   -0.610210   -1.358647
 O   -5.203864    0.613966    0.527779
 S   -4.922024   -2.090881   -0.509786
 C   -6.220996   -2.040664    0.705323
 O   -3.629012   -2.074884    0.110624
 O   -5.182598   -3.108185   -1.476567
 C   -7.059247   -3.274367    0.785745
 C   -7.592819   -2.050587    0.118150
 C    7.174652    1.653898   -1.825926
 C    6.225772    2.154832   -0.735089
 C    4.780875    2.215783   -1.222198
 C    3.721995    2.605677   -0.176467
 C    3.891911    1.738289    1.087302
 C    3.826974    4.083321    0.204061
 C    2.344689    2.334814   -0.797135
 C   -1.139774   -0.184491    4.546051
 C   -1.903165    1.932815    3.452921
 C   -0.506356   -1.640546   -0.143809
 O    1.728795   -1.692890   -1.179891
 H   -0.286460    1.166796   -1.705262
 H   -0.922248   -1.370239   -3.057471
 H    0.662434   -0.565743   -3.027567
 H    0.212023   -2.976347   -1.706724
 H   -0.127028   -0.781683    2.234625
 H    0.584715    2.017182    2.766529
 H   -6.475075    4.339401   -1.183656
 H   -6.742858    2.660087   -0.698735
 H   -4.912841    4.618324    0.772439
 H   -6.539054    4.162473    1.285760
 H   -5.256335    2.949620    1.247183
 H   -3.252302    0.270661    1.851232
 H   -2.591579   -1.273165    2.365028
 H   -3.575735   -0.316970    3.475464
 H   -2.316074    1.919701   -0.670453
 H   -4.021698    3.827799   -1.505317
 H   -4.257497    2.383254   -3.538393
 H   -5.882992    1.819185   -2.968407
 H    4.091747   -3.315804    1.548544
 H    3.964968   -0.930494   -1.889273
 H    7.001095   -3.005359    2.181497
 H    9.052692   -1.913336    1.329130
 H    8.997805   -0.510269   -0.659897
 H    7.729653   -0.110082   -2.911666
 H    5.988311    0.102557   -2.767021
 H   -4.653114   -0.634886   -2.281498
 H   -5.959647   -1.447458    1.563369
 H   -6.762145   -4.097209    0.154165
 H   -7.447030   -3.561090    1.751471
 H   -8.360939   -1.471466    0.607648
 H   -7.652014   -2.056895   -0.959529
 H    7.081333    2.284818   -2.713036
 H    8.198263    1.747799   -1.457872
 H    6.305035    1.483851    0.120249
 H    6.553168    3.147127   -0.418604
 H    4.510387    1.233752   -1.605517
 H    4.719669    2.926255   -2.050856
 H    4.726707    2.096197    1.692695
 H    4.056491    0.692231    0.811112
 H    4.816744    4.313939    0.589629
 H    3.636441    4.713456   -0.661786
 H    3.096451    4.320702    0.973686
 H    2.202649    1.265241   -0.943627
 H    1.545382    2.707033   -0.159310
 H    2.267535    2.832568   -1.762002
 H   -1.883643    0.002871    5.316554
 H   -0.188957    0.229938    4.872517
 H   -1.025887   -1.259866    4.432098
 H   -2.003330    2.453181    2.504490
 H   -2.844267    2.018417    3.990707
 H   -1.132572    2.419563    4.047284
 H   -1.465788   -2.166726   -0.193743
 H    0.027863   -1.935813    0.754684
