47 
3suu_ligand_xtb.xyz
 C   -1.321925   -0.128097   -0.283585
 C   -2.836595    0.236646   -0.204431
 C   -3.497758   -0.679292    0.860706
 C   -3.091040   -2.130519    0.550087
 C   -1.572240   -2.239609    0.821879
 C   -0.844967   -3.269099   -0.057860
 C   -2.971399    2.780770   -0.261097
 C   -3.852179    3.918873    0.104475
 N   -3.289268    1.581016    0.150005
 O   -4.877103   -0.473032    0.852932
 O   -3.520515   -2.418984   -0.757184
 O   -0.952552   -0.964029    0.783848
 O   -0.972068   -2.937534   -1.432805
 O   -1.928900    3.058213   -0.946933
 N    2.931572    0.398958   -0.717972
 C    1.834862    0.686601   -0.019543
 O    0.755639    0.804621   -0.909620
 O    1.660905    0.861196    1.156769
 C    4.252937    0.250995   -0.241489
 C    4.566056    0.299361    1.110405
 C    5.882852    0.142226    1.507754
 C    6.882749   -0.062656    0.572615
 C    6.564924   -0.111397   -0.774844
 C    5.253825    0.043940   -1.184386
 N   -0.474453    1.049402   -0.246908
 H   -1.143229   -0.632333   -1.245358
 H   -3.294579   -0.005690   -1.173296
 H   -3.133793   -0.396042    1.854490
 H   -3.624559   -2.803812    1.235144
 H   -1.426404   -2.556834    1.859666
 H    0.211058   -3.274005    0.234206
 H   -1.277587   -4.256741    0.142652
 H   -3.457873    4.399236    1.001171
 H   -4.875005    3.609869    0.295790
 H   -3.825207    4.663256   -0.688730
 H   -4.165879    1.483834    0.669899
 H   -5.270899   -1.056359    0.188284
 H   -2.763942   -2.702068   -1.296106
 H   -0.511618   -3.598636   -1.961674
 H    2.815960    0.330812   -1.721214
 H    3.791039    0.460554    1.840499
 H    6.124757    0.181274    2.558437
 H    7.906198   -0.183382    0.890856
 H    7.338247   -0.269515   -1.510414
 H    5.005033    0.007933   -2.235504
 H   -1.241163    2.303070   -0.952871
 H   -0.179375    1.213897    0.738042
