47 
3suu_ligand_dft.xyz
 C   -1.432769   -0.166728   -0.381727
 C   -2.856924    0.380611   -0.107170
 C   -3.591174   -0.613248    0.828787
 C   -3.114835   -2.029902    0.518869
 C   -1.632609   -2.143632    0.921731
 C   -0.894166   -3.340629    0.343337
 C   -2.781260    2.845764   -0.251003
 C   -3.419103    4.102008    0.269815
 N   -2.929199    1.711932    0.496358
 O   -4.975577   -0.456940    0.725354
 O   -3.392237   -2.218664   -0.852475
 O   -0.915935   -0.927809    0.657507
 O   -0.961216   -3.286709   -1.075711
 O   -2.137435    2.823601   -1.305434
 N    2.878672    0.186878   -0.785372
 C    1.777726    0.661679   -0.207054
 O    0.707631    0.545821   -1.132056
 O    1.581223    1.141272    0.884863
 C    4.197936    0.160011   -0.243156
 C    4.467790    0.459466    1.090219
 C    5.784830    0.396894    1.536779
 C    6.816756    0.038033    0.676201
 C    6.531087   -0.260636   -0.652917
 C    5.223398   -0.199741   -1.116796
 N   -0.478247    0.957189   -0.529209
 H   -1.425107   -0.706111   -1.332794
 H   -3.375032    0.401413   -1.070496
 H   -3.331380   -0.376474    1.867857
 H   -3.686962   -2.740169    1.131881
 H   -1.601964   -2.245890    2.011753
 H    0.146335   -3.307380    0.687715
 H   -1.360554   -4.257056    0.731578
 H   -2.814797    4.960868   -0.024173
 H   -3.548019    4.090261    1.354970
 H   -4.406162    4.208179   -0.193580
 H   -3.560957    1.780672    1.284701
 H   -5.257437   -0.877384   -0.100690
 H   -2.779917   -2.881149   -1.214366
 H   -0.489862   -4.043763   -1.444205
 H    2.775112   -0.145838   -1.735095
 H    3.672438    0.740938    1.767498
 H    5.998678    0.630691    2.574587
 H    7.838223   -0.008563    1.038399
 H    7.326141   -0.539971   -1.336259
 H    5.006340   -0.425771   -2.158023
 H   -0.935255    1.729423   -1.096640
 H   -0.200162    1.316798    0.411072
