104 
3sv9_ligand_xtb.xyz
 C   -0.745430   -2.400721   -0.902067
 C    0.830636   -2.201002   -2.519339
 C    1.772052   -2.771231   -1.671055
 C   -2.120814   -2.076241   -0.417502
 C    0.201495   -2.979840   -0.058884
 O   -2.493761   -2.337640    0.715405
 N   -0.419388   -2.009164   -2.133233
 N    1.454070   -3.155917   -0.443330
 N   -2.861738   -1.455138   -1.357577
 C   -4.053596   -0.652707   -1.110297
 C   -3.529141    0.612976   -0.414204
 O   -3.404784    1.665915   -1.013604
 C   -5.149830   -1.401997   -0.344526
 C   -5.651618   -2.591874   -1.164282
 C   -6.743191   -3.336879   -0.402145
 C   -7.901526   -2.399533   -0.074811
 C   -7.405251   -1.202968    0.730903
 C   -6.312645   -0.459625   -0.032047
 N   -3.139666    0.431576    0.863693
 C   -2.165717    1.358991    1.419645
 C   -2.035164    1.211835    2.949683
 C   -1.122579    2.334568    3.452380
 C   -3.427315    1.375865    3.566824
 C   -1.452757   -0.143098    3.353396
 C   -0.888418    1.056045    0.631143
 O   -0.466908   -0.101522    0.572088
 C    2.071753    1.456887   -0.638184
 N   -0.309452    2.023959   -0.084282
 O    3.024226    2.081008   -1.083342
 C    0.633684    1.671875   -1.145415
 C    0.544647    2.832357   -2.123205
 C    0.146539    4.038132   -1.262709
 C   -0.592568    2.742597   -3.138576
 C   -0.843974    4.205661   -3.502407
 C   -0.741664    3.409266   -0.182500
 C   -0.606003    4.992711   -2.200829
 N    6.518102   -0.970121   -0.583364
 N    2.182419    0.502555    0.288145
 C    3.447429    0.142844    0.902323
 C    4.192550   -0.887966    0.024360
 C    3.193181   -0.395895    2.306637
 C    2.596949    0.648966    3.249438
 C    3.573828    1.765581    3.597901
 C    5.669747   -1.000722    0.458608
 C    7.933234   -1.097617   -0.460197
 C    8.642088   -2.040553   -1.382632
 C    8.500640   -2.382430    0.068632
 O    4.081789   -0.580846   -1.350639
 O    6.011587   -1.116221    1.617053
 H    1.080161   -1.877070   -3.520264
 H    2.799579   -2.906694   -1.974194
 H   -0.063413   -3.282971    0.943194
 H   -2.357907   -1.275582   -2.218527
 H   -4.443185   -0.347855   -2.087578
 H   -4.740620   -1.784919    0.592944
 H   -6.051109   -2.235425   -2.117319
 H   -4.820527   -3.267001   -1.376809
 H   -6.325934   -3.736441    0.524643
 H   -7.101432   -4.178591   -0.998258
 H   -8.356467   -2.047169   -1.003485
 H   -8.666535   -2.936311    0.489614
 H   -7.005634   -1.551439    1.685872
 H   -8.234753   -0.525339    0.942245
 H   -5.957816    0.389013    0.556676
 H   -6.722289   -0.067875   -0.966306
 H   -3.062751   -0.524953    1.196719
 H   -2.521924    2.366655    1.193883
 H   -1.567604    3.309279    3.261418
 H   -0.963946    2.236326    4.523395
 H   -0.152853    2.294758    2.960789
 H   -3.356687    1.358201    4.651547
 H   -4.085727    0.571043    3.251652
 H   -3.873771    2.321437    3.266573
 H   -2.043200   -0.967099    2.961125
 H   -1.434249   -0.223053    4.438030
 H   -0.438144   -0.257298    2.983502
 H    0.316177    0.720034   -1.593068
 H    1.504390    2.985253   -2.618948
 H    1.017716    4.509052   -0.805627
 H   -0.332618    2.137613   -4.005949
 H   -1.479364    2.315547   -2.667291
 H   -1.846565    4.361130   -3.895953
 H   -0.128262    4.521018   -4.262747
 H   -1.790364    3.440276   -0.496036
 H   -0.634282    3.909519    0.783013
 H   -1.549420    5.303701   -1.753488
 H   -0.020575    5.890796   -2.392983
 H    6.103804   -0.893392   -1.504262
 H    1.353699   -0.038128    0.528807
 H    4.057152    1.053831    0.937367
 H    3.733342   -1.876149    0.160413
 H    2.509071   -1.244558    2.223953
 H    4.139892   -0.756504    2.708503
 H    2.292276    0.144805    4.168741
 H    1.701073    1.078035    2.794781
 H    4.505144    1.347022    3.970955
 H    3.151581    2.411641    4.364646
 H    3.797460    2.378252    2.728225
 H    8.431716   -0.173863   -0.183146
 H    9.612250   -1.755588   -1.759116
 H    8.041388   -2.590135   -2.091717
 H    7.800299   -3.154107    0.345035
 H    9.368576   -2.330150    0.705948
 H    4.058050    0.386080   -1.441540
