45 
3sww_ligand_xtb.xyz
 C   -2.073621   -0.543307   -1.615806
 C   -3.214429   -1.320460   -1.568827
 C   -3.355920   -0.956677    0.808616
 C   -1.554721    0.051735   -0.468415
 C   -0.305928    0.844787   -0.537020
 C    0.915272    0.211398   -0.689809
 C   -0.289534    2.244868   -0.446308
 C   -3.858369   -1.528795   -0.354700
 C   -2.219288   -0.174524    0.734176
 C    2.079409    0.986086   -0.711894
 C    0.938073    2.926652   -0.487141
 C    3.255873    0.074732   -0.829893
 C    1.284933   -1.228559   -0.797487
 C    1.040817    4.417160   -0.383570
 C    4.673065   -1.698678    1.870788
 C   -1.579114    2.997984   -0.278714
 C    3.540342   -2.358125   -0.912682
 C    3.417727   -3.106103    0.434241
 N    2.095046    2.296258   -0.611335
 N    2.721367   -1.175582   -0.932067
 N   -1.755852    3.349040    1.164531
 O    4.431621    0.344710   -0.837153
 O    3.409741   -2.244917    1.541886
Cl   -5.275386   -2.495108   -0.276261
Cl   -1.580695    0.492024    2.226226
 H   -1.571132   -0.380776   -2.556823
 H   -3.604291   -1.770602   -2.467021
 H   -3.848907   -1.128082    1.752160
 H    0.824803   -1.720666   -1.662887
 H    0.997199   -1.782705    0.104516
 H    0.369139    4.921273   -1.074924
 H    0.839778    4.768227    0.629016
 H    2.062339    4.694980   -0.626737
 H    5.415782   -2.491608    2.004604
 H    5.025990   -0.996237    1.110202
 H    4.536130   -1.170153    2.811795
 H   -2.423221    2.378999   -0.585843
 H   -1.573623    3.915569   -0.868683
 H    3.255612   -3.031383   -1.726216
 H    4.566785   -2.019087   -1.069836
 H    4.233635   -3.837644    0.505419
 H    2.465842   -3.643880    0.478455
 H   -2.636318    3.842515    1.337949
 H   -1.735212    2.439956    1.710054
 H   -0.969307    3.936318    1.466290
