49 
3sx4_ligand_xtb.xyz
 C   -4.497195   -2.756043   -1.624751
 C   -5.613466   -2.553884   -0.833546
 C    2.074134   -1.124675    1.527548
 C   -3.389863   -1.943292   -1.460306
 C   -5.623914   -1.566954    0.136412
 C    2.896899   -2.229141    1.628755
 C    3.851598   -1.706274   -0.520469
 C    2.122930   -0.283048    0.418576
 C    1.196473    0.866483    0.312257
 C   -0.150843    0.655841    0.074467
 C    1.619511    2.198840    0.437826
 C   -3.390953   -0.944253   -0.500638
 C   -4.508330   -0.759155    0.332943
 C    3.788228   -2.522378    0.603364
 C    3.024669   -0.601759   -0.593689
 C   -0.994822    1.761635   -0.067801
 C    0.686645    3.236871    0.278512
 C   -2.381934    1.282304   -0.358909
 C   -0.947128   -0.590546   -0.107032
 C    1.062166    4.684614    0.366854
 C   -5.534104    0.559454    2.023957
 C    3.062806    2.503825    0.723754
 N   -0.591568    3.009701    0.023046
 N   -2.279796   -0.083672   -0.352869
 N    3.729332    2.944802   -0.540385
 O   -3.365821    1.932871   -0.592889
 O   -4.385007    0.180542    1.299439
Cl    4.815176   -3.894308    0.708836
Cl    3.089192    0.371593   -2.050958
 H   -4.491914   -3.529980   -2.375524
 H   -6.488020   -3.171637   -0.966502
 H    1.380870   -0.894718    2.321684
 H   -2.525210   -2.070548   -2.094617
 H   -6.502988   -1.436679    0.746286
 H    2.846868   -2.867893    2.495286
 H    4.534937   -1.940216   -1.321095
 H   -0.932105   -1.228407    0.784977
 H   -0.583194   -1.190792   -0.950410
 H    1.689619    4.897667    1.229250
 H    1.567660    5.023131   -0.538712
 H    0.143870    5.258489    0.453134
 H   -6.334887    0.882473    1.354476
 H   -5.890500   -0.253753    2.664253
 H   -5.223859    1.398890    2.643403
 H    3.574741    1.612376    1.088358
 H    3.152926    3.297025    1.467531
 H    4.721921    3.156321   -0.403437
 H    3.618873    2.152552   -1.233618
 H    3.245937    3.777967   -0.898098
