37 
3sym_ligand_dft.xyz
 C    1.953535    0.779576    0.658115
 F    3.860329    1.474646    1.801479
 N    1.343740    0.039985   -0.338007
 C    3.277361    0.740326    0.855905
 C    4.146665   -0.104181    0.037916
 O    5.348251   -0.209001    0.142290
 N    3.421097   -0.812264   -0.925990
 C    2.057962   -0.824276   -1.157509
 O    1.544847   -1.522126   -2.010477
 C   -0.102349   -0.005955   -0.417412
 C   -0.694286   -0.872367    0.709189
 O   -0.122557   -2.149252    0.759660
 C   -2.232921   -0.867684    0.609242
 O   -2.801588   -1.460379    1.760242
 C   -2.695377    0.598654    0.629458
 O   -4.085363    0.715955    0.436768
 C   -1.993285    1.428563   -0.446017
 O   -0.577551    1.313817   -0.302656
 C   -2.294796    2.915481   -0.345118
 O   -1.631561    3.636535   -1.352237
 C   -2.763190   -1.596938   -0.633391
 O   -2.335418   -2.952423   -0.545190
 H    1.301890    1.414579    1.244223
 H    3.960517   -1.431840   -1.517640
 H   -0.328688   -0.428202   -1.401867
 H   -0.438375   -0.388943    1.660089
 H   -0.517664   -2.680724    0.049116
 H   -2.509827   -2.383053    1.770827
 H   -2.404800    1.001312    1.612871
 H   -4.501845    0.186081    1.130470
 H   -2.285329    1.084790   -1.448703
 H   -3.366535    3.073972   -0.476952
 H   -2.015585    3.265354    0.662205
 H   -0.696745    3.400297   -1.288254
 H   -3.855708   -1.526811   -0.626500
 H   -2.398164   -1.138654   -1.560948
 H   -2.708352   -3.446230   -1.283738
