26 
3sz9_ligand_dft.xyz
 C   -2.119736    0.341094   -0.000034
 C   -1.599905   -0.954907   -0.000104
 C   -0.227647   -1.172844   -0.000074
 C    0.666643   -0.101748   -0.000013
 C    0.152248    1.199708    0.000028
 C   -1.218288    1.411836    0.000024
 C   -3.606665    0.635622   -0.000017
 C   -4.532891   -0.577383    0.000085
 C    2.134723   -0.401329    0.000040
 O    2.531316   -1.551555    0.000099
 C    3.115523    0.761667   -0.000067
 C    4.569505    0.308262    0.000013
 H   -2.267985   -1.810190   -0.000187
 H    0.175299   -2.180434   -0.000105
 H    0.818045    2.057349    0.000047
 H   -1.602646    2.429359    0.000082
 H   -3.832016    1.260557   -0.874102
 H   -3.831955    1.260647    0.874032
 H   -4.377653   -1.201617   -0.886271
 H   -4.377652   -1.201458    0.886547
 H   -5.577787   -0.253273    0.000025
 H    2.904307    1.390667    0.875230
 H    2.904322    1.390507   -0.875486
 H    4.787241   -0.301651    0.880590
 H    4.787504   -0.301244   -0.880779
 H    5.239398    1.173355    0.000307
