33 
3t08_ligand_dft.xyz
 C    0.251557   -0.302936   -0.994065
 C   -0.302658   -1.494394   -0.201944
 O    0.063032   -2.732090   -0.766767
 C   -1.824742   -1.447915   -0.202958
 O   -2.357504   -2.452998    0.635167
 C   -2.309756   -0.103631    0.336456
 O   -2.002763    0.006027    1.706958
 C   -1.635441    1.027175   -0.434539
 O   -0.213866    0.900116   -0.440488
 C   -1.901059    2.411666    0.135509
 O   -1.316022    3.406541   -0.671805
 S    2.068729   -0.290395   -1.053343
 C    2.491629    0.201990    0.675271
 C    3.755591   -0.547205    1.094163
 C    2.655964    1.715585    0.793267
 H   -0.059179   -0.405939   -2.046622
 H    0.033171   -1.413732    0.841237
 H    1.030802   -2.761961   -0.788430
 H   -2.176006   -1.578175   -1.238851
 H   -1.866462   -3.262945    0.439095
 H   -3.397043   -0.027400    0.172913
 H   -2.234979   -0.853196    2.089811
 H   -1.996619    0.996395   -1.475757
 H   -1.526468    2.443783    1.167012
 H   -2.978017    2.601430    0.155279
 H   -0.392096    3.146948   -0.787107
 H    1.656233   -0.112157    1.307881
 H    4.595516   -0.301969    0.434183
 H    4.037030   -0.257650    2.112686
 H    3.608015   -1.630787    1.071019
 H    3.458928    2.073383    0.140094
 H    2.907742    1.981834    1.826804
 H    1.730247    2.225686    0.520766
