22 
3t09_ligand_xtb.xyz
 C    0.435187    1.459236    0.088807
 C    1.465584    0.362244    0.312803
 C    1.188203   -0.830585   -0.606418
 C   -0.228914   -1.321556   -0.279483
 C   -1.246312   -0.204458   -0.526787
 C   -2.556824   -0.446279    0.242381
 O    0.755378    2.616712    0.174290
 O    2.758733    0.862866    0.113872
 O    2.079208   -1.885731   -0.352279
 O   -0.290618   -1.743459    1.058316
 O   -0.814608    1.119909   -0.185933
 O   -3.562762    0.432298   -0.167122
 H    1.351716    0.020376    1.358564
 H    1.255485   -0.512424   -1.658586
 H   -0.479682   -2.160704   -0.946507
 H   -1.473332   -0.163471   -1.600724
 H   -2.914421   -1.455302    0.032503
 H   -2.351224   -0.358325    1.315985
 H    2.699107    1.831821    0.152460
 H    2.969170   -1.512161   -0.317580
 H    0.445643   -2.357992    1.189590
 H   -3.246660    1.335803   -0.042678
