22 
3t09_ligand_dft.xyz
 C    0.428949    1.467190    0.121767
 C    1.483706    0.382827    0.274831
 C    1.185984   -0.829939   -0.590734
 C   -0.215190   -1.327188   -0.256513
 C   -1.233364   -0.220230   -0.492486
 C   -2.595037   -0.495826    0.128908
 O    0.728344    2.633993    0.189142
 O    2.756632    0.878536   -0.032507
 O    2.082804   -1.880793   -0.306885
 O   -0.275075   -1.756006    1.084559
 O   -0.846966    1.084525    0.014477
 O   -3.533897    0.482657   -0.241620
 H    1.425616    0.059809    1.326768
 H    1.239992   -0.540506   -1.651607
 H   -0.474930   -2.151205   -0.939261
 H   -1.359211   -0.089265   -1.573341
 H   -2.968134   -1.454840   -0.241996
 H   -2.477561   -0.574129    1.217012
 H    2.713346    1.839088    0.101112
 H    2.973094   -1.502761   -0.304829
 H    0.501070   -2.320526    1.215653
 H   -3.198291    1.330053    0.078518
