45 
3t1a_ligand_xtb.xyz
 C   -0.027361   -2.992397    0.929380
 N   -1.615027   -0.818992   -2.099637
 O    2.010020   -1.820051    0.572901
 C   -1.369754   -3.271277    0.635280
Cl    0.735820   -3.837288    2.229141
 C   -2.046044   -2.609045   -0.360919
Cl    6.020731    0.550873   -1.330964
 C   -1.314987   -1.669841   -1.080942
Cl    0.428441    0.636435    1.373924
 C    0.048732   -1.400316   -0.819995
 C    0.712152   -2.048743    0.234192
 C    3.826705   -0.623735   -0.320004
 C    2.561712   -0.611159    0.253211
 C    1.950713    0.612031    0.538089
 C    2.554489    1.813256    0.177209
 C    3.813751    1.781666   -0.404919
 C    4.447650    0.571714   -0.630998
 N   -0.539268   -0.101374   -2.414066
 N    0.450962   -0.428908   -1.687330
 C   -2.925481   -0.493006   -2.597710
 C   -3.710540    0.088941   -1.467998
 N   -4.872556   -0.388791   -1.071645
 N   -5.320503    0.256616    0.016087
 C   -4.413691    1.152004    0.340710
 C   -3.294803    1.126551   -0.588146
 N   -4.403171    2.016484    1.378581
 C   -3.358827    2.836372    1.562118
 C   -2.280203    2.841487    0.703608
 C   -2.234346    1.982298   -0.397943
 C    1.881198    3.138185    0.459812
 N    1.920690    3.549790    1.853713
 H   -1.874482   -4.012674    1.233288
 H   -3.087970   -2.791497   -0.564706
 H    4.298739   -1.572108   -0.517455
 H    4.298539    2.704576   -0.682067
 H   -3.430069   -1.387400   -2.970983
 H   -2.790328    0.225653   -3.410464
 H   -3.400516    3.495277    2.415442
 H   -1.466106    3.519938    0.899513
 H   -1.388331    1.991637   -1.070686
 H    0.831389    3.077427    0.161533
 H    2.362123    3.920504   -0.131579
 H   -5.193541    2.014612    2.011804
 H    1.458658    2.857595    2.434734
 H    2.882589    3.622841    2.168569
