47 
3t1l_ligand_dft.xyz
 C   -2.928353    0.574581   -0.938396
 O   -3.567692    1.790084   -0.912843
 C   -1.429987    0.806730   -0.765008
 O   -1.239767    1.494191    0.473761
 C   -0.712009   -0.541092   -0.692966
 O    0.648933   -0.243354   -0.420222
 C   -1.337711   -1.460387    0.374096
 O   -1.067999   -1.029029    1.685253
 C   -2.842241   -1.552445    0.086988
 O   -3.420539   -0.247224    0.097908
 C   -3.613215   -2.357144    1.120745
 O   -4.983359   -2.414239    0.798213
 O    1.253628   -2.301093   -1.099781
 C    1.555642   -1.205695   -0.680409
 C    2.940316   -0.752199   -0.400497
 C    3.960215   -1.705335   -0.424654
 C    5.269805   -1.328196   -0.168414
 C    5.591931    0.005265    0.104624
 C    7.022423    0.412795    0.347841
 C    4.563115    0.950226    0.117658
 C    3.246217    0.583227   -0.129845
 C   -0.298300    2.466838    0.518774
 O    0.296683    2.872549   -0.446596
 C   -0.101516    2.928255    1.935806
 C   -4.946739    1.719615   -1.218793
 H   -3.095152    0.058428   -1.906300
 H   -1.036803    1.418955   -1.578761
 H   -0.788205   -1.041341   -1.665858
 H   -0.892168   -2.453391    0.278339
 H   -1.385686   -0.116715    1.752455
 H   -3.000926   -2.009689   -0.904155
 H   -3.239687   -3.384805    1.134564
 H   -3.441324   -1.918675    2.112223
 H   -5.272615   -1.496490    0.713509
 H    3.708867   -2.738598   -0.640496
 H    6.056951   -2.077602   -0.180000
 H    7.553293    0.542125   -0.602863
 H    7.082722    1.360207    0.891192
 H    7.560849   -0.346830    0.923085
 H    4.795857    1.992078    0.321887
 H    2.461293    1.332093   -0.130367
 H   -1.064458    3.114584    2.417492
 H    0.510655    3.829711    1.945255
 H    0.406960    2.134884    2.494167
 H   -5.111739    1.214110   -2.181216
 H   -5.302004    2.748576   -1.288266
 H   -5.503370    1.193077   -0.436724
