58 
3t1m_ligand_xtb.xyz
 C    2.269134   -1.974194    1.345648
 O    3.181835   -1.323234    2.151368
 C    0.996649   -1.111875    1.264792
 O    1.401302    0.121184    0.692985
 C   -0.027420   -1.856183    0.402271
 N   -1.254447   -1.095747    0.290203
 C    0.574706   -2.151983   -0.991430
 O    0.749596   -0.985557   -1.752994
 C    1.927185   -2.859685   -0.811598
 O    2.802836   -2.171362    0.065470
 C    2.674380   -2.985516   -2.144647
 O    3.877851   -3.686743   -1.994775
 C    0.701865    1.222618    0.963273
 O   -0.335378    1.218681    1.599108
 C    1.308556    2.432942    0.384114
 C    0.733860    3.671902    0.663219
 C    1.277271    4.822339    0.130536
 C    2.397828    4.763296   -0.692981
 C    2.961230    3.520815   -0.971303
 C    2.429332    2.362921   -0.441568
 C    2.970302    6.010611   -1.288980
 C   -2.398839   -1.693682   -0.140681
 O   -2.406079   -2.836842   -0.561813
 C   -3.619151   -0.845902   -0.085981
 C   -4.850620   -1.490760   -0.178577
 C   -6.027793   -0.772479   -0.132327
 C   -6.008482    0.611881   -0.003954
 C   -4.777510    1.253951    0.071649
 C   -3.594021    0.541565    0.033903
 C   -7.283346    1.396336    0.023841
 C    4.372976   -2.050800    2.385545
 H    1.996294   -2.966477    1.780536
 H    0.596346   -0.932313    2.271041
 H   -0.247720   -2.825638    0.875137
 H   -1.305690   -0.245230    0.839206
 H   -0.106583   -2.843332   -1.510667
 H   -0.086419   -0.502806   -1.745657
 H    1.731394   -3.863560   -0.396639
 H    2.065376   -3.547243   -2.854168
 H    2.846708   -1.974955   -2.532412
 H    4.377104   -3.242849   -1.298858
 H   -0.133994    3.710532    1.304468
 H    0.830940    5.780655    0.353607
 H    3.829376    3.465741   -1.612159
 H    2.864038    1.401111   -0.661052
 H    2.500309    6.207101   -2.253327
 H    2.788082    6.868542   -0.646257
 H    4.040358    5.908509   -1.452522
 H   -4.858127   -2.565257   -0.283447
 H   -6.974806   -1.288716   -0.196676
 H   -4.745696    2.330294    0.163458
 H   -2.660379    1.081946    0.088430
 H   -7.158676    2.322149    0.580471
 H   -7.582705    1.651890   -0.993296
 H   -8.085831    0.816378    0.473504
 H    4.934717   -2.195803    1.460409
 H    4.954207   -1.451207    3.081790
 H    4.148242   -3.026959    2.830286
