47 
3t2t_ligand_xtb.xyz
 C   -2.935372    0.535486   -0.943743
 O   -3.593022    1.746778   -0.923547
 C   -1.433839    0.805089   -0.748690
 O   -1.263260    1.535734    0.456174
 C   -0.683134   -0.530253   -0.661539
 O    0.670907   -0.235462   -0.375548
 C   -1.311315   -1.436114    0.422438
 O   -1.108730   -0.945501    1.713044
 C   -2.810151   -1.577971    0.092992
 O   -3.433665   -0.300998    0.070061
 C   -3.549160   -2.405339    1.151713
 O   -4.911319   -2.526691    0.852586
 O    1.266379   -2.242191   -1.184187
 C    1.576818   -1.180386   -0.700313
 C    2.955056   -0.749739   -0.405636
 C    3.976299   -1.696774   -0.461865
 C    5.278182   -1.328564   -0.192269
 C    5.591608   -0.012014    0.132491
 C    7.007901    0.389764    0.402017
 C    4.567465    0.929366    0.174998
 C    3.260223    0.572682   -0.089401
 C   -0.331185    2.506882    0.470632
 O    0.321896    2.826513   -0.482324
 C   -0.235239    3.105721    1.845473
 C   -4.970333    1.669894   -1.242326
 H   -3.070219    0.021505   -1.924865
 H   -1.046287    1.408368   -1.578650
 H   -0.741213   -1.052973   -1.626870
 H   -0.828804   -2.417801    0.389017
 H   -1.503864   -0.061602    1.759532
 H   -2.923717   -2.051882   -0.895400
 H   -3.138415   -3.415758    1.174452
 H   -3.398750   -1.933961    2.131338
 H   -5.259778   -1.634748    0.734990
 H    3.725154   -2.715543   -0.715155
 H    6.064971   -2.067953   -0.233328
 H    7.493443    0.676240   -0.531509
 H    7.049412    1.241376    1.076787
 H    7.570867   -0.434578    0.833236
 H    4.801247    1.956193    0.416616
 H    2.475984    1.312981   -0.069409
 H   -1.231103    3.295563    2.235577
 H    0.340294    4.025299    1.804820
 H    0.263318    2.394679    2.501860
 H   -5.114315    1.200071   -2.221416
 H   -5.325340    2.697102   -1.268268
 H   -5.519312    1.105603   -0.485255
