48 
3t2v_ligand_xtb.xyz
 O   -1.437267    1.195175    1.309208
 C   -1.282802    1.408946   -0.067696
 C    0.217797    1.431869   -0.474038
 C    0.839289    2.638318    0.182758
 O    1.456102    3.440847   -0.686155
 O    0.773620    2.895344    1.360663
 C   -2.061143    0.319248   -0.807704
 C   -3.564228    0.493774   -0.604509
 C   -4.397091   -0.589305   -1.289653
 C   -4.134229   -2.015631   -0.799570
 C   -4.293626   -2.217595    0.707897
 C   -5.706015   -1.931577    1.203811
 C    0.951024    0.159853   -0.026262
 C    2.455845    0.240941   -0.272165
 C    3.151865   -1.075354    0.065927
 C    4.661184   -0.996939   -0.149339
 C    5.360748   -2.308619    0.198907
 C    6.866942   -2.221906   -0.014339
 H   -0.836769    1.796994    1.776612
 H   -1.709694    2.392378   -0.342854
 H    0.301667    1.553995   -1.556455
 H    1.834651    4.213211   -0.234770
 H   -1.751999   -0.643946   -0.406264
 H   -1.819858    0.357103   -1.871469
 H   -3.864617    1.465297   -1.006387
 H   -3.766950    0.505480    0.465674
 H   -4.201023   -0.558280   -2.365048
 H   -5.452972   -0.352340   -1.146941
 H   -4.827719   -2.683275   -1.318318
 H   -3.124305   -2.315261   -1.087021
 H   -3.584934   -1.584093    1.242689
 H   -4.042096   -3.256085    0.939087
 H   -6.432479   -2.523698    0.650404
 H   -5.792537   -2.182004    2.258832
 H   -5.955738   -0.880635    1.085213
 H    0.542864   -0.687944   -0.577698
 H    0.757610   -0.000743    1.035813
 H    2.641256    0.491430   -1.319718
 H    2.885440    1.038174    0.339302
 H    2.739009   -1.872753   -0.556524
 H    2.948803   -1.331690    1.108114
 H    4.865371   -0.745628   -1.193017
 H    5.072324   -0.195523    0.469153
 H    4.952078   -3.110638   -0.420052
 H    5.155727   -2.559631    1.242070
 H    7.092597   -1.992437   -1.053585
 H    7.295792   -1.439956    0.608684
 H    7.345487   -3.164572    0.240603
