33 
3t3e_ligand_dft.xyz
 N    0.879015   -0.371145   -0.389494
Cl    3.655770    1.860370    1.380659
 C    1.565881   -1.386548   -1.033483
 O    1.000173   -2.291574   -1.630219
 N    2.931249   -1.286792   -0.944916
 C    3.700933   -0.345526   -0.239846
 O    4.907661   -0.405110   -0.240593
 C    2.865284    0.639870    0.452922
 C    1.524078    0.589525    0.355552
 C   -0.581175   -0.404015   -0.474969
 C   -1.205827   -1.289204    0.609480
 O   -0.763822   -2.625220    0.583443
 C   -2.722647   -1.219333    0.452891
 O   -3.378894   -1.931399    1.473826
 C   -3.199389    0.225364    0.511149
 O   -4.575801    0.326559    0.243146
 C   -2.453114    1.042901   -0.541940
 O   -1.038353    0.910793   -0.340172
 C   -2.746196    2.531301   -0.481957
 O   -2.071322    3.233351   -1.495869
 H    3.451599   -2.018448   -1.413781
 H    0.874792    1.308792    0.837314
 H   -0.821073   -0.802886   -1.469856
 H   -0.932907   -0.873759    1.588477
 H   -0.429396   -2.834559   -0.304669
 H   -2.991027   -1.629640   -0.536744
 H   -2.984505   -2.814845    1.492778
 H   -2.958749    0.627485    1.509449
 H   -5.015209   -0.321500    0.810637
 H   -2.705836    0.667907   -1.544486
 H   -3.816203    2.684859   -0.632887
 H   -2.483947    2.904896    0.521037
 H   -1.131570    3.035735   -1.394890
