33 
3t3g_ligand_xtb.xyz
 N   -0.384486   -0.661504    0.516731
Br   -3.632500    1.427453   -0.888877
 C   -0.897743   -1.803818    1.111816
 O   -0.185646   -2.654504    1.594688
 N   -2.262058   -1.885729    1.105808
 C   -3.186251   -0.999422    0.547477
 O   -4.368634   -1.207591    0.607066
 C   -2.528052    0.140247   -0.077640
 C   -1.187320    0.265779   -0.076354
 C    1.060472   -0.522579    0.490084
 C    1.656322   -1.198449   -0.759867
 O    1.297676   -2.546152   -0.885307
 C    3.183149   -1.020634   -0.704254
 O    3.794120   -1.509245   -1.870153
 C    3.527573    0.470528   -0.570758
 O    4.899347    0.654814   -0.370909
 C    2.779919    1.072341    0.625883
 O    1.378554    0.835796    0.521663
 C    2.971066    2.590903    0.702079
 O    2.434354    3.130588    1.874277
 H   -2.651613   -2.714732    1.544433
 H   -0.676900    1.106595   -0.520609
 H    1.443662   -1.039806    1.389484
 H    1.275526   -0.698240   -1.660084
 H    1.287484   -2.972689   -0.015423
 H    3.574600   -1.558339    0.177730
 H    3.358558   -2.338078   -2.108997
 H    3.199784    0.977561   -1.493494
 H    5.360755    0.141919   -1.047489
 H    3.163939    0.615158    1.549622
 H    4.040396    2.804770    0.712741
 H    2.515818    3.045356   -0.188641
 H    1.498323    2.901278    1.912252
