54 
3t3u_ligand_dft.xyz
 N   -1.444085    3.678548   -0.892383
 C   -2.665976    3.451677   -0.399377
 N   -3.115635    2.384171    0.253548
 C   -2.139278    1.480216    0.432455
 C   -0.808414    1.570519    0.014442
 C   -0.496299    2.745685   -0.717273
 C    7.902519   -2.139966   -0.478227
 N    0.706950    2.980861   -1.267745
 C    5.950488    0.779087    0.470124
 C    1.462457   -1.449191   -0.148274
 C    4.663728    1.202038    0.625674
 C    2.756124   -1.873532   -0.297333
 C    5.194732   -1.424356   -0.212708
 C    2.227040    0.741192    0.513572
 C   -6.790943   -1.570989    0.013288
 C   -4.906843   -1.961308   -1.618859
 C   -5.777785   -1.213811    1.090498
 C   -3.901005   -1.608676   -0.536138
 C   -3.480869   -0.286440    1.581820
 N   -1.112029   -0.440890    1.000625
 N   -6.161889   -2.518182   -0.982795
 O    7.539522   -0.837415   -0.069135
 C    6.226375   -0.550547    0.044342
 C    1.180405   -0.118501    0.251974
 C   -0.212869    0.329583    0.413383
 C    3.849179   -1.000571   -0.054602
 C    3.571398    0.328440    0.363962
 C   -4.495152   -0.633558    0.486368
 N   -2.275899    0.268672    1.024383
 H   -3.388553    4.246001   -0.571452
 H    7.541265   -2.894204    0.231774
 H    7.513906   -2.364745   -1.479296
 H    8.991997   -2.154999   -0.500387
 H    0.819785    3.818335   -1.818226
 H    1.437474    2.286429   -1.257568
 H    6.792747    1.433851    0.666350
 H    0.634848   -2.126049   -0.335281
 H    4.460891    2.217479    0.955562
 H    2.961158   -2.894275   -0.608970
 H    5.381924   -2.443115   -0.533534
 H    2.027660    1.747490    0.877546
 H   -7.099363   -0.692009   -0.558777
 H   -7.678513   -2.066510    0.412169
 H   -4.537500   -2.718246   -2.313825
 H   -5.220782   -1.079841   -2.184291
 H   -5.549199   -2.104403    1.693182
 H   -6.250590   -0.492597    1.764531
 H   -3.023339   -1.169567   -1.019164
 H   -3.550436   -2.522074   -0.035261
 H   -3.184219   -1.172999    2.149240
 H   -3.922428    0.440236    2.271377
 H   -6.842159   -2.762311   -1.707793
 H   -5.925857   -3.392813   -0.502709
 H   -4.742851    0.306059   -0.026219
