44 
3t3v_ligand_dft.xyz
 N   -3.099927    3.091057   -0.375309
 C   -4.287710    2.496691   -0.172329
 N   -4.553823    1.213639    0.006879
 C   -3.434523    0.469469    0.007305
 C   -2.119441    0.936327   -0.133653
 C   -2.004698    2.326170   -0.375931
 C    7.175376   -1.006350   -0.429925
 C   -4.341910   -2.504000    1.670306
 C   -4.505913   -2.808639   -0.847218
 N   -0.818753    2.946687   -0.604181
 C    4.624205    1.174598    0.967943
 C    0.724508   -1.481688   -0.827614
 C    3.269930    1.321362    1.047191
 C    2.083207   -1.634434   -0.899348
 C    4.372459   -0.839026   -0.360301
 C    0.986425    0.523815    0.485458
 N   -2.077798   -1.307886    0.080888
 O    6.542369    0.052666    0.252475
 C    5.187774    0.081589    0.254815
 C    0.153101   -0.381730   -0.135767
 C   -1.311127   -0.241731   -0.067308
 C    2.960420   -0.701414   -0.286539
 C    2.394304    0.392097    0.420130
 C   -4.460889   -1.815854    0.312073
 N   -3.359959   -0.876367    0.125689
 H   -5.143511    3.168189   -0.171325
 H    6.901695   -1.978795   -0.000828
 H    6.925070   -0.999961   -1.498622
 H    8.247123   -0.846115   -0.308578
 H   -5.190808   -3.177322    1.825315
 H   -3.417918   -3.087754    1.720393
 H   -4.331644   -1.766330    2.478073
 H   -3.587953   -3.403402   -0.873467
 H   -5.357498   -3.485628   -0.727561
 H   -4.609686   -2.285120   -1.802207
 H   -0.878352    3.896289   -0.940553
 H   -0.019565    2.398794   -0.883590
 H    5.302005    1.876991    1.441500
 H    0.060467   -2.198662   -1.299258
 H    2.844130    2.157568    1.595687
 H    2.507926   -2.478715   -1.436399
 H    4.779471   -1.682524   -0.907243
 H    0.565162    1.345373    1.060830
 H   -5.356237   -1.187627    0.294547
