44 
3t3v_ligand_xtb.xyz
 N   -3.093366    3.071051   -0.353983
 C   -4.268104    2.490875   -0.150167
 N   -4.526866    1.213225    0.014030
 C   -3.424577    0.456288    0.011551
 C   -2.098325    0.936126   -0.129316
 C   -1.991550    2.321320   -0.369456
 C    7.161997   -1.024258   -0.402250
 C   -4.292648   -2.522135    1.643749
 C   -4.476367   -2.796372   -0.857794
 N   -0.822511    2.955585   -0.605133
 C    4.598492    1.194224    0.918056
 C    0.711272   -1.496215   -0.782270
 C    3.248282    1.348564    0.995955
 C    2.064839   -1.649941   -0.854729
 C    4.337686   -0.843374   -0.344383
 C    0.976881    0.545210    0.464149
 N   -2.079670   -1.300654    0.067536
 O    6.521806    0.051417    0.238245
 C    5.160982    0.086402    0.240960
 C    0.146995   -0.379539   -0.129152
 C   -1.301269   -0.244859   -0.071548
 C    2.936713   -0.702988   -0.275215
 C    2.375147    0.409573    0.402243
 C   -4.446384   -1.806421    0.303889
 N   -3.351092   -0.882946    0.122223
 H   -5.121109    3.156969   -0.141265
 H    6.893503   -1.981349    0.056735
 H    6.923772   -1.054630   -1.470563
 H    8.229510   -0.851179   -0.276241
 H   -5.112742   -3.218932    1.792339
 H   -3.352556   -3.068116    1.658830
 H   -4.292249   -1.803044    2.459617
 H   -3.542350   -3.351926   -0.886160
 H   -5.301213   -3.492448   -0.734616
 H   -4.600479   -2.270435   -1.801669
 H   -0.881329    3.918178   -0.890302
 H   -0.001230    2.422661   -0.833338
 H    5.276858    1.902883    1.366432
 H    0.042344   -2.220839   -1.219943
 H    2.825367    2.196071    1.516095
 H    2.490193   -2.506060   -1.359206
 H    4.733601   -1.700885   -0.866498
 H    0.561011    1.372365    1.022721
 H   -5.351193   -1.189322    0.302723
