20 
3t3y_ligand_dft.xyz
 C    3.406632    0.226535    0.011110
 N    1.143756   -0.444093    0.345571
 O    3.234014    1.005906    1.078356
 C    2.176188   -0.557040   -0.380379
 N   -2.389476   -1.204966    0.210955
 O    4.436435    0.146517   -0.605147
 C   -0.010575   -1.209656    0.021219
 O    0.052436   -2.400173   -0.156645
 C   -1.306358   -0.446556    0.019169
 O   -0.276010    1.661403   -0.427287
 C   -3.586401   -0.637048    0.225349
 C   -3.773810    0.732642    0.036172
 C   -2.663381    1.528661   -0.179300
 C   -1.396400    0.940384   -0.193218
 H    2.309700    0.889455    1.372830
 H    2.243059   -1.173991   -1.279412
 H   -0.512521    2.586695   -0.570200
 H   -4.432685   -1.297402    0.394049
 H   -4.769681    1.162635    0.052977
 H   -2.768212    2.599271   -0.340862
