34 
3t4h_ligand_xtb.xyz
 C   -1.297918    2.549462   -0.144195
 N   -2.669401    0.505280   -0.286726
 O   -0.354441    3.185831    0.233546
 C   -1.341805    1.026560   -0.139746
 C   -0.396842    0.545143   -1.255106
 C   -4.558800   -0.882180    0.085134
 C   -3.148815   -0.458523    0.518827
 O   -2.561103   -0.934318    1.465905
 O   -5.046100   -1.863970    0.815353
 O   -5.136339   -0.355682   -0.832964
 S   -0.351643   -1.263339   -1.426813
 C    0.273584   -1.785293    0.217316
 C    1.476011   -1.005891    0.631897
 C    1.463871   -0.248482    1.800310
 C    2.568984    0.498568    2.176724
 C    3.705993    0.502126    1.391727
 C    3.718351   -0.257061    0.227435
 C    2.617048   -1.005949   -0.159270
 N    4.901633   -0.267796   -0.599110
 O    4.872392   -0.928129   -1.615187
 O    5.853235    0.384166   -0.226591
 O   -2.401336    3.091158   -0.655305
 H   -3.250851    0.823435   -1.051150
 H   -0.961339    0.678568    0.827815
 H    0.610515    0.915550   -1.064874
 H   -0.739563    0.902725   -2.226277
 H   -5.936503   -2.120208    0.521308
 H   -0.542034   -1.699800    0.936186
 H    0.514396   -2.838688    0.072171
 H    0.583985   -0.255292    2.427134
 H    2.539404    1.081368    3.083779
 H    4.579498    1.075972    1.658760
 H    2.654680   -1.576280   -1.075975
 H   -2.339952    4.060352   -0.663393
