63 
3t60_ligand_xtb.xyz
 N    3.457565    0.465368    0.665570
 O    0.915856    4.423430    0.044722
 C    2.751577   -0.163728   -0.333952
 N   -0.462873    0.464053    0.748787
 O    1.704281    0.290270   -0.785687
 N    3.261862   -1.329182   -0.789666
 C    4.420369   -2.000423   -0.349089
 O    4.717767   -3.060256   -0.825379
 C    5.108527   -1.260057    0.693477
 C    4.614661   -0.100306    1.148464
 C    2.956694    1.714728    1.240398
 C   -1.615530   -0.236942    0.070867
 C   -2.618349   -0.781705    1.073472
 C   -2.442090   -0.729258    2.449708
 C    2.821795    2.855613    0.217950
 C   -3.376793   -1.302245    3.298390
 C   -4.491282   -1.940413    2.787391
 C   -4.666932   -2.010798    1.415172
 C   -3.736415   -1.441774    0.567493
 C   -2.192784    0.772778   -0.907571
 C   -1.402133    1.182960   -1.980613
 C   -1.868857    2.135690   -2.867410
 C   -3.123899    2.696045   -2.690845
 C   -3.904685    2.305675   -1.617349
 C   -3.440346    1.354180   -0.723867
 C    1.304988    3.082408    0.079561
 C   -1.016521   -1.457075   -0.632244
 C   -0.072183   -2.244790    0.021126
 C    0.480725   -3.347778   -0.605561
 C    0.081324   -3.696109   -1.884885
 C   -0.889660   -2.945020   -2.522989
 C   -1.435701   -1.834899   -1.901573
 C    0.755350    2.478154    1.387526
 O    1.686876    1.486686    1.806106
 C   -0.632392    1.840816    1.248780
 H    1.220752    4.838920   -0.769719
 H    0.338100    0.469630    0.059654
 H   -0.142788   -0.115738    1.529973
 H    2.730081   -1.791142   -1.522465
 H    6.016810   -1.680276    1.088940
 H    5.108498    0.457807    1.929698
 H    3.661803    1.978380    2.038226
 H   -1.587273   -0.248190    2.904873
 H    3.291270    2.595893   -0.728087
 H    3.282496    3.762165    0.609346
 H   -3.225012   -1.247806    4.365402
 H   -5.214367   -2.384659    3.452629
 H   -5.527528   -2.513275    1.002590
 H   -3.873388   -1.508739   -0.500763
 H   -0.426494    0.743563   -2.131385
 H   -1.253497    2.438089   -3.700831
 H   -3.489708    3.434509   -3.386707
 H   -4.879557    2.742706   -1.468996
 H   -4.055638    1.065589    0.114134
 H    0.916685    2.541352   -0.793599
 H    0.237128   -2.028009    1.035112
 H    1.220417   -3.940756   -0.089047
 H    0.515605   -4.554824   -2.371883
 H   -1.225357   -3.219663   -3.510636
 H   -2.188661   -1.258795   -2.416464
 H    0.712550    3.291727    2.124357
 H   -1.150214    1.826041    2.208596
 H   -1.223593    2.428425    0.545167
