53 
3t64_ligand_xtb.xyz
 N    3.180905   -0.297448   -0.257890
 C    2.277368    0.501664    0.402484
 O    1.081489    0.235181    0.469175
 N    2.778865    1.619144    0.977365
 C    4.113388    2.076242    0.974295
 O    4.398817    3.095253    1.538232
 C    4.986969    1.185556    0.231930
 C    4.503257    0.072968   -0.336439
 C    2.737496   -1.551539   -0.857674
 C   -2.219617    0.133846   -1.015331
 C   -2.627964   -0.655024    0.209995
 C   -1.974326   -0.451619    1.420552
 C    2.256748   -2.580743    0.185314
 C   -2.342183   -1.180913    2.537065
 C   -3.365425   -2.111544    2.456290
 C   -4.023078   -2.311884    1.254891
 C   -3.654273   -1.587668    0.134100
 C   -2.352984    1.621833   -0.777652
 C   -3.608772    2.195520   -0.944373
 C   -3.802242    3.543795   -0.707799
 C   -2.740092    4.336556   -0.305996
 C   -1.488741    3.771508   -0.135999
 C   -1.292527    2.419298   -0.365737
 C    0.744027   -2.701829   -0.066396
 O    0.228546   -3.997140    0.011159
 C    0.635640   -2.247244   -1.535592
 O    1.668694   -1.297497   -1.740027
 C   -0.715962   -1.638994   -1.900007
 N   -0.825187   -0.252482   -1.397113
 H    2.118138    2.201980    1.483325
 H    6.026549    1.452610    0.156750
 H    5.137098   -0.602108   -0.891486
 H    3.593513   -1.935154   -1.426964
 H   -2.870152   -0.144091   -1.852947
 H   -1.185901    0.281482    1.495460
 H    2.488389   -2.255018    1.197106
 H    2.727590   -3.546524    0.004201
 H   -1.834013   -1.016180    3.474760
 H   -3.653960   -2.674238    3.330137
 H   -4.823789   -3.031302    1.187950
 H   -4.175068   -1.744172   -0.799750
 H   -4.438871    1.579113   -1.255810
 H   -4.781726    3.975360   -0.840293
 H   -2.887200    5.389300   -0.124447
 H   -0.658465    4.385158    0.178655
 H   -0.308353    2.004450   -0.210203
 H    0.190390   -2.022397    0.597476
 H    0.282400   -4.325536    0.915579
 H    0.802975   -3.137170   -2.159616
 H   -1.488193   -2.256520   -1.435318
 H   -0.856065   -1.644538   -2.981733
 H   -0.469274    0.398493   -2.103284
 H   -0.178692   -0.142568   -0.571927
