39 
3t8s_ligand_dft.xyz
 C   -2.049412   -0.570940   -0.279309
 C   -1.314076   -1.842407    0.150056
 C    0.080586   -1.937152   -0.465063
 C    0.872804   -0.653543   -0.206367
 C    0.132906    0.564879   -0.732225
 C   -1.215561    0.683934   -0.026834
 O   -3.239218   -0.525755    0.505277
 O   -1.106814   -1.858894    1.549275
 O    0.785526   -3.042743    0.073613
 O    2.115173   -0.740026   -0.879567
 O    0.799727    1.821205   -0.580756
 O   -1.926704    1.803567   -0.526479
 P   -4.606308    0.060054   -0.165756
 O   -5.707385   -0.454430    0.868349
 O   -4.564376    1.606300    0.175177
 O   -4.781679   -0.370836   -1.562870
 P    3.441294   -1.193100   -0.065064
 O    4.594015   -0.533294   -0.903522
 O    3.322840   -0.811157    1.371835
 O    3.611733   -2.737509   -0.362331
 P    2.173655    2.183767    0.171872
 O    3.436783    1.937975   -0.566882
 O    2.090779    1.516738    1.601790
 O    1.851118    3.728574    0.409131
 H   -2.308174   -0.632325   -1.343717
 H   -1.910982   -2.709868   -0.161389
 H    0.008330   -2.105280   -1.543904
 H    1.025325   -0.562128    0.871942
 H   -0.022744    0.455615   -1.811453
 H   -1.044927    0.791136    1.052345
 H   -1.969085   -1.755272    1.975159
 H    0.578172   -3.055945    1.022723
 H   -1.328588    2.564723   -0.485226
 H   -6.272403   -1.112179    0.441206
 H   -3.676555    1.960499   -0.053418
 H    4.439090    0.443015   -0.898999
 H    2.738520   -3.167346   -0.245733
 H    2.653663    0.688820    1.664936
 H    2.665101    4.249399    0.381884
