39 
3t8s_ligand_xtb.xyz
 C    2.079711   -0.707961    0.201218
 C    1.492398   -2.102129   -0.028786
 C    0.067718   -2.224364    0.534203
 C   -0.845397   -1.122696   -0.037024
 C   -0.229952    0.270318    0.084338
 C    1.194529    0.346441   -0.462240
 O    3.362907   -0.688723   -0.380175
 O    1.425091   -2.392256   -1.405886
 O   -0.455302   -3.489783    0.266500
 O   -2.035809   -1.145767    0.716095
 O   -0.988070    1.181844   -0.687256
 O    1.743857    1.620245   -0.223749
 P    4.416877    0.367928    0.260248
 O    5.788497   -0.327402   -0.103849
 O    4.460660    1.599461   -0.723652
 O    4.180264    0.614578    1.682075
 P   -3.461606   -0.883251    0.018952
 O   -4.344976   -0.456812    1.241818
 O   -3.436037   -0.011602   -1.161361
 O   -4.004206   -2.319474   -0.351810
 P   -2.078891    2.112765   -0.000330
 O   -2.721739    1.611775    1.225854
 O   -2.993537    2.570348   -1.181197
 O   -1.190294    3.407090    0.293764
 H    2.171076   -0.480459    1.269519
 H    2.134189   -2.843394    0.472721
 H    0.082178   -2.122177    1.623323
 H   -1.063761   -1.318926   -1.093033
 H   -0.248755    0.566586    1.140219
 H    1.158767    0.155883   -1.546253
 H    2.289978   -2.188451   -1.784951
 H   -0.315345   -3.669497   -0.674135
 H    1.037553    2.271371   -0.350112
 H    6.212285   -0.626946    0.699152
 H    3.622719    2.069037   -0.667359
 H   -3.996226    0.400447    1.541450
 H   -4.033861   -2.904756    0.405678
 H   -3.442489    1.776274   -1.513877
 H   -1.638489    4.007550    0.886990
