83 
3t8v_ligand_dft.xyz
 C   -7.375529    0.073679    1.678192
 N   -5.734614   -1.099992   -1.407550
 O   -6.416113    1.008189   -0.851748
 C   -6.240453   -0.602877    0.929716
 N    2.227177    2.766271   -0.071472
 O   -3.329864    0.339659   -1.348758
 C   -6.169730   -0.145927   -0.538872
 O   -1.199968    2.111848   -0.872995
 C   -5.124334   -0.693158   -2.656422
 O    0.504297    2.020190    1.177362
 C   -3.617375   -0.470645   -2.470796
 N   -4.949139   -0.234652    1.519226
 C   -3.449783    1.732751   -1.542982
 N   -0.197099   -0.342171    2.226394
 C   -2.119479    2.349108   -1.923878
 C    0.019934    2.754304   -1.073150
 C    0.937131    2.461995    0.109786
 O   -3.783171   -2.013087    0.698685
 C    3.232722    2.658555    0.996200
 O    4.432657   -3.083263   -0.616999
 C    3.637735    1.205136    1.225056
 O   -2.646434    0.210237    3.066998
 C    4.425619    3.534686    0.631800
 C   -3.814373   -0.912016    1.233579
 C   -2.543924   -0.196470    1.706168
 C   -1.295547   -1.059813    1.497839
 C   -0.900323   -1.248912    0.029770
 C    0.523518   -1.721562   -0.146010
 C    1.439778   -0.951478   -0.856507
 C    2.759300   -1.358941   -1.041655
 C    3.188481   -2.566968   -0.491500
 C    2.285191   -3.347059    0.242143
 C    0.974199   -2.931156    0.403245
 C    5.388673   -2.399188   -1.413973
 C    5.982152   -1.185425   -0.733683
 C    6.301522   -1.230946    0.624812
 C    6.915703   -0.145263    1.239373
 C    7.216163    0.999095    0.503303
 C    6.895063    1.053115   -0.849999
 C    6.276744   -0.034354   -1.464120
 H   -8.335644   -0.255020    1.272974
 H   -7.318350    1.158506    1.552233
 H   -7.340291   -0.178424    2.741553
 H   -5.356968   -1.936757   -0.979151
 H   -6.324539   -1.690756    0.997380
 H    2.526173    3.126513   -0.967452
 H   -5.287397   -1.457518   -3.422569
 H   -5.628169    0.219853   -2.978869
 H   -3.179852   -0.053905   -3.389738
 H   -3.126327   -1.427910   -2.269808
 H   -4.858377    0.721253    1.839739
 H   -4.207657    1.975053   -2.296814
 H   -3.796843    2.157185   -0.596281
 H   -0.525747   -0.101541    3.167418
 H    0.051892    0.560286    1.745991
 H    0.647567   -0.917086    2.269332
 H   -1.739481    1.912034   -2.860933
 H   -2.250496    3.430517   -2.082182
 H    0.501534    2.424845   -2.009524
 H   -0.111060    3.847274   -1.143198
 H    2.756186    3.046308    1.902352
 H    2.761687    0.587087    1.439425
 H    4.140899    0.794945    0.344983
 H    4.330566    1.137014    2.068412
 H   -3.154419   -0.449899    3.558059
 H    5.172155    3.495392    1.429063
 H    4.130195    4.579193    0.491293
 H    4.908261    3.170354   -0.282673
 H   -2.416835    0.725809    1.127076
 H   -1.421262   -2.024545    1.999195
 H   -1.614038   -1.963286   -0.387661
 H   -1.050910   -0.300021   -0.494882
 H    1.114535   -0.011110   -1.294683
 H    3.438463   -0.722894   -1.596063
 H    2.631852   -4.288582    0.654680
 H    0.281914   -3.572796    0.944939
 H    6.166834   -3.146361   -1.590376
 H    4.956147   -2.137089   -2.388142
 H    6.071653   -2.125818    1.195595
 H    7.169025   -0.195796    2.294142
 H    7.705296    1.842734    0.980732
 H    7.135371    1.938349   -1.431795
 H    6.038272    0.008633   -2.524932
