47 
3ta0_ligand_xtb.xyz
 P    3.231067   -1.232771    0.660686
 O    3.932968   -2.633598    0.826548
 O    3.558638   -0.531263    2.007397
 O    3.542539   -0.536620   -0.586405
 P    0.686328   -1.515926   -0.431850
 O    1.391634   -2.437228   -1.494143
 O    0.224416   -0.219352   -0.887224
 O    1.649099   -1.601929    0.806406
 P   -1.746343   -2.608870   -0.827227
 O   -1.312996   -2.670492   -2.215619
 O   -2.425202   -3.919442   -0.242460
 O   -0.500307   -2.423601    0.186817
 O   -2.768629   -1.475260   -0.481612
 C   -3.315221   -1.382464    0.837197
 C   -3.428259    0.082030    1.265398
 O   -2.178471    0.544061    1.770996
 C   -3.839043    1.020532    0.118730
 O   -4.789783    1.942018    0.575375
 C   -2.518919    1.720783   -0.242502
 O   -2.774150    2.986846   -0.760269
 C   -1.810812    1.738389    1.132191
 N   -0.380022    1.799877    1.012249
 C    0.533173    1.093035    1.724435
 N    1.761538    1.269500    1.326182
 C    1.673084    2.133198    0.261255
 C    2.593538    2.647315   -0.673683
 N    3.899372    2.319146   -0.692955
 N    2.144792    3.539813   -1.564274
 C    0.864447    3.844045   -1.596358
 N   -0.110205    3.349886   -0.850415
 C    0.329052    2.484292    0.066427
 H    4.163002   -2.996510   -0.029248
 H    3.025322    0.307197    2.008021
 H    0.893636   -2.420661   -2.319982
 H   -2.058194   -4.714120   -0.628455
 H   -4.306267   -1.842173    0.819019
 H   -2.674680   -1.909310    1.546485
 H   -4.170805    0.154475    2.071582
 H   -4.234911    0.452528   -0.731650
 H   -4.623515    2.766744    0.092355
 H   -1.929985    1.091903   -0.922800
 H   -1.897445    3.379943   -0.980854
 H   -2.164358    2.611320    1.715100
 H    0.241922    0.462875    2.540666
 H    4.395549    2.637063   -1.512090
 H    4.115768    1.383680   -0.372695
 H    0.566579    4.570957   -2.340120
