44 
3tam_ligand_xtb.xyz
 C    0.725205   -1.994151    1.811451
 N   -1.108209   -1.213106   -0.147586
 O    1.533394    0.333059    1.784241
Cl    3.750014   -1.477756   -2.458403
 C   -0.166253   -2.865373    1.360162
 C   -1.389113   -2.399791    0.633122
 C   -0.280938   -0.242074    0.274047
 C    0.426494   -0.525398    1.613219
 C    2.483038    0.390565    0.822844
 C    1.967979   -2.354917    2.556438
 C    3.415466    1.418933    0.955473
 C    4.442889    1.546802    0.030318
 C    4.562074    0.660516   -1.041644
 C    3.632718   -0.355478   -1.150686
 C    2.604898   -0.510176   -0.233509
 O   -0.080167    0.789443   -0.336155
 C   -3.297557   -0.587342   -0.978564
 N   -4.309553   -1.424494   -1.006930
 N   -5.401644   -0.763356   -0.592987
 C   -5.115367    0.522841   -0.282969
 C   -3.724565    0.689019   -0.516605
 N   -5.946298    1.460112    0.157598
 C   -5.382526    2.630110    0.379268
 C   -4.023289    2.916589    0.186904
 C   -3.161990    1.941062   -0.268695
 C   -1.909323   -0.994556   -1.341481
 C    5.387235    2.591651    0.173767
 N    6.158256    3.431216    0.290177
 H   -0.046837   -3.927319    1.500896
 H   -1.748451   -3.172438   -0.050468
 H   -2.199260   -2.196025    1.351549
 H   -0.271622   -0.206096    2.403850
 H    2.035417   -1.765356    3.469418
 H    1.964398   -3.411750    2.808111
 H    2.855432   -2.140490    1.961207
 H    3.320358    2.110530    1.777262
 H    5.356654    0.770588   -1.761899
 H    1.906439   -1.321858   -0.362509
 H   -6.053664    3.399644    0.736189
 H   -3.662039    3.910321    0.399845
 H   -2.108450    2.122820   -0.422364
 H   -1.936313   -1.914374   -1.929959
 H   -1.422716   -0.197033   -1.908899
 H   -6.295723   -1.224924   -0.563145
