42 
3tam_ligand_dft.xyz
 C   10.996571   12.098159   15.938000
 N    8.258399   12.332411   15.481242
 O   10.531503   11.456073   18.175463
Cl    9.485039   16.025394   20.245428
 C   10.481956   12.425321   14.645400
 C    9.144860   12.525942   14.458606
 C    8.658670   11.962222   16.768715
 C   10.101545   11.881537   16.943644
 C   10.264559   12.229975   19.268937
 C   12.477956   11.970936   16.149218
 C   10.317496   11.589535   20.501727
 C   10.108229   12.337275   21.659078
 C    9.844661   13.710002   21.601715
 C    9.804033   14.313505   20.353907
 C   10.017921   13.597062   19.182559
 O    7.841676   11.741159   17.657300
 C    6.292421   11.166198   14.567419
 N    5.913954   11.119163   13.270018
 N    5.501959    9.930903   12.821258
 C    5.633615    9.140063   13.900073
 C    6.126017    9.862105   15.030343
 N    5.330430    7.816958   13.906033
 C    5.524143    7.220303   15.056227
 C    6.011289    7.843631   16.248093
 C    6.320984    9.175839   16.252820
 C    6.814187   12.401241   15.222698
 C   10.160713   11.685447   22.939747
 N   10.206191   11.162125   23.972479
 H   11.157878   12.595108   13.815980
 H    8.704976   12.761808   13.496197
 H   12.733396   11.976864   17.209649
 H   12.839339   11.029672   15.719718
 H   13.007801   12.787088   15.648534
 H   10.510730   10.524548   20.545489
 H    9.677277   14.282350   22.505692
 H    9.991423   14.096333   18.221008
 H    5.879783   11.899193   12.629479
 H    5.287892    6.157559   15.087267
 H    6.128594    7.240564   17.142199
 H    6.698020    9.690011   17.132133
 H    6.619290   13.283193   14.604108
 H    6.338623   12.547223   16.193402
