16 
3tao_ligand_xtb.xyz
 C    1.691516   -0.649874    0.031373
 C    0.529684   -1.533252    0.471909
 N    1.548021    0.635417    0.386931
 O    2.553600    1.535129    0.023413
 O    2.644622   -1.025636   -0.624287
 O   -0.651457   -1.222953   -0.242288
 O   -1.101563    1.085880   -1.205177
 O   -1.108645    0.756178    1.360688
 O   -2.915172   -0.239510   -0.184708
 P   -1.418657    0.162222    0.061926
 H    0.359027   -1.410599    1.546266
 H    0.765676   -2.573377    0.237225
 H    0.890136    0.996386    1.067621
 H    3.206958    0.973718   -0.443789
 H   -0.426954    1.742182   -1.033363
 H   -3.049419   -0.623493   -1.052186
