44 
3tay_ligand_xtb.xyz
 C   -3.123776   -0.725028   -0.901763
 C   -2.420687    0.023467    0.257302
 O   -3.300578    0.906816    0.877427
 C   -1.992729   -0.992668    1.327369
 C   -0.821857   -1.846103    0.828830
 O   -0.414421   -2.794231    1.774466
 C    0.322568   -0.895406    0.430301
 N    1.479658   -1.625868   -0.001750
 C   -0.197779    0.051266   -0.672141
 O   -1.326334    0.777961   -0.226371
 C    0.788481    1.112456   -1.204766
 O    2.050209    0.543661   -1.466192
 C    0.960579    2.376948   -0.339017
 O    1.943869    3.136595   -1.015309
 C    1.415763    2.128698    1.103457
 O    1.893464    3.370519    1.597448
 C    2.700771   -1.410413    0.525301
 O    2.893587   -0.806378    1.562885
 C    3.824108   -1.998357   -0.320425
 O    3.482818   -2.083241   -1.680674
 C   -3.812357    1.940382    0.050824
 O   -4.213168   -1.356524   -0.476769
 O   -2.749418   -0.752914   -2.042019
 H   -2.847302   -1.614932    1.590132
 H   -1.693930   -0.424966    2.210891
 H   -1.131988   -2.433471   -0.044602
 H    0.047911   -2.347334    2.494314
 H    0.631146   -0.330347    1.315175
 H    1.438982   -2.104255   -0.891452
 H   -0.471437   -0.579800   -1.531045
 H    0.359028    1.474028   -2.153952
 H    2.633789    1.311133   -1.590399
 H    0.010411    2.926370   -0.321372
 H    2.264802    3.786226   -0.373773
 H    0.560396    1.790257    1.697976
 H    2.214715    1.378666    1.130789
 H    2.252540    3.230028    2.478298
 H    4.724766   -1.390691   -0.162462
 H    4.034992   -3.017449    0.017097
 H    3.183620   -1.207959   -1.967783
 H   -3.002417    2.531307   -0.379612
 H   -4.434067    1.536288   -0.754164
 H   -4.419724    2.557953    0.708038
 H   -4.652576   -1.819556   -1.210614
