62 
3tc5_ligand_dft.xyz
 F   -2.531583    0.215359    1.283967
 P    4.991601   -1.567862   -0.148308
 C    1.102561    0.044450   -1.490915
 O   -0.903802   -2.075217   -0.883092
 C    0.664653    0.534351   -0.099025
 O   -7.113428   -1.115785    1.578960
 C    0.212903   -0.635018    0.772724
 O    1.364395    1.773742    1.897090
 C   -1.092168   -1.278871    0.274426
 O    3.383488    0.174821    1.681416
 C   -2.207618   -0.240615   -0.007238
 O    5.226769    0.031728   -0.275958
 O    5.265418   -1.872912    1.383888
 C   -3.542844   -0.841454   -0.576831
 O    6.308605   -2.194585   -0.792983
 C   -3.437770   -1.324906   -2.048301
 O    3.714273   -1.996034   -0.756424
 C   -3.948952   -2.045020    0.234006
 C   -5.092032   -2.143999    0.914044
 C   -6.069436   -1.035896    0.949840
 C   -5.714260    0.163746    0.170617
 C   -4.571462    0.276568   -0.517287
 C   -4.210901    1.527181   -1.270910
 C   -2.857622    2.073872   -0.801021
 C   -1.751415    1.010268   -0.797000
 C   -0.478388    1.562443   -0.163436
 C    0.175707    2.817789   -0.756751
 C    1.659841    2.759515   -0.278538
 C    2.126699    4.005420    0.467157
 C    1.747003    1.463896    0.576698
 C    3.107727    0.785964    0.659632
 C    4.103423    0.859602   -0.482521
 H    1.889111   -0.713269   -1.409834
 H    1.463252    0.856388   -2.130642
 H    0.267065   -0.429195   -2.006904
 H   -0.074277   -2.557908   -0.779648
 H    0.986061   -1.413924    0.835882
 H    0.033026   -0.272300    1.788799
 H    1.798154    1.119585    2.466932
 H   -1.474594   -1.906075    1.091457
 H    4.738324   -1.239619    1.907624
 H    6.113110   -2.559869   -1.665988
 H   -3.026810   -0.560354   -2.711679
 H   -2.801586   -2.205711   -2.121338
 H   -4.442697   -1.575869   -2.401560
 H   -3.263736   -2.889121    0.191783
 H   -5.361531   -3.043360    1.459624
 H   -6.441043    0.971798    0.192780
 H   -4.990737    2.283005   -1.136150
 H   -4.162099    1.310344   -2.346235
 H   -2.966832    2.469975    0.214652
 H   -2.553489    2.908445   -1.442423
 H   -1.548118    0.707292   -1.830554
 H   -0.728427    1.796212    0.876576
 H    0.118766    2.821426   -1.851796
 H   -0.312459    3.731973   -0.406114
 H    2.300312    2.632425   -1.158469
 H    3.162279    3.903827    0.813191
 H    1.501931    4.189268    1.343801
 H    2.075965    4.879118   -0.190657
 H    4.479315    1.887898   -0.530941
 H    3.612359    0.635499   -1.432634
