59 
3tcp_ligand_dft.xyz
 C    4.401275   -0.999218   -0.981153
 F    7.603073   -0.986476    0.679824
 N    1.508269   -0.727360   -1.101233
 C   -1.368289   -1.967852   -0.852729
 N   -1.609635    3.870711    0.235401
 C   -2.967916    3.590876   -0.175358
 N    0.273928   -0.157780   -1.242329
 C   -3.743929    2.731691    0.832653
 C   -5.032068    2.151794    0.235849
 C   -4.780020    0.911688   -0.625203
 C    3.665152   -0.151519   -0.145519
 C    4.287891    0.401462    0.977736
 C    5.619591    0.125944    1.263045
 C    6.320649   -0.715654    0.412667
 C    5.730474   -1.287378   -0.706343
 C    1.625046    2.567677    0.487716
 N    0.604566    3.393890    0.590818
 C   -0.597468    2.988871    0.080724
 N   -0.861630    1.837741   -0.547476
 C    1.489374    1.309202   -0.119041
 C    0.212864    1.052414   -0.640287
 C    2.255946    0.139290   -0.443673
 C   -0.825141   -0.894529   -1.805849
 C   -1.622163   -1.390895    0.545378
 C   -2.650263   -2.571572   -1.437811
 C   -3.271235   -3.618098   -0.504680
 C   -3.522013   -2.988372    0.859527
 C   -2.253384   -2.424282    1.485580
 N   -4.110349   -4.042143    1.794206
 H    3.921420   -1.425507   -1.855748
 H   -0.608424   -2.757238   -0.766727
 H   -1.384394    4.711310    0.743772
 H   -2.925627    3.090104   -1.147047
 H   -3.478983    4.546905   -0.324233
 H   -3.970794    3.338733    1.716556
 H   -3.092047    1.914536    1.167761
 H   -5.535612    2.919232   -0.366004
 H   -5.730682    1.894157    1.040164
 H   -4.015214    1.096663   -1.387596
 H   -4.418131    0.085411    0.002436
 H   -5.692001    0.578921   -1.131440
 H    3.724026    1.034966    1.655730
 H    6.113967    0.546020    2.131621
 H    6.315682   -1.936245   -1.348288
 H    2.572942    2.918859    0.890484
 H   -1.604950   -0.159245   -2.029273
 H   -0.496527   -1.350100   -2.744197
 H   -2.266320   -0.505791    0.469311
 H   -0.680890   -1.052440    0.986713
 H   -2.448673   -3.037561   -2.407370
 H   -3.381911   -1.771495   -1.616670
 H   -2.578850   -4.464772   -0.393348
 H   -4.204438   -4.002480   -0.934108
 H   -4.293904   -2.214904    0.788270
 H   -2.470744   -1.965138    2.457707
 H   -1.539627   -3.243672    1.654621
 H   -4.312226   -3.652590    2.720726
 H   -4.978789   -4.438126    1.420143
 H   -3.448206   -4.814883    1.922552
