59 
3tcp_ligand_xtb.xyz
 C    4.471800   -1.118064   -0.710332
 F    7.712130   -0.793834    0.835729
 N    1.634670   -0.847443   -0.929349
 C   -1.301484   -2.102628   -0.701128
 N   -1.591536    3.773460   -0.197146
 C   -2.956520    3.425994   -0.489707
 N    0.387122   -0.368356   -1.118042
 C   -3.772222    3.206421    0.789726
 C   -5.200292    2.739113    0.509684
 C   -5.267303    1.287402    0.048188
 C    3.760295   -0.119737   -0.042495
 C    4.403742    0.639253    0.933960
 C    5.734036    0.416135    1.232731
 C    6.416058   -0.573455    0.547195
 C    5.800799   -1.349002   -0.421122
 C    1.651611    2.594641    0.259710
 N    0.601699    3.376308    0.241408
 C   -0.577169    2.894499   -0.212071
 N   -0.799861    1.665481   -0.684248
 C    1.563079    1.270559   -0.176157
 C    0.285467    0.900483   -0.672836
 C    2.361820    0.098684   -0.370163
 C   -0.630940   -1.171969   -1.723197
 C   -2.082114   -1.291252    0.332261
 C   -2.238846   -3.081516   -1.406599
 C   -2.916247   -4.008563   -0.394864
 C   -3.683658   -3.174905    0.621275
 C   -2.759668   -2.210384    1.350367
 N   -4.340197   -4.095253    1.626189
 H    3.962579   -1.701932   -1.460335
 H   -0.507297   -2.662967   -0.196798
 H   -1.388636    4.667024    0.222605
 H   -2.921420    2.513249   -1.084985
 H   -3.408693    4.225327   -1.083515
 H   -3.805567    4.145275    1.346049
 H   -3.258652    2.469287    1.411549
 H   -5.648508    3.382856   -0.248530
 H   -5.790359    2.844316    1.422345
 H   -4.728838    1.152188   -0.886211
 H   -4.827940    0.636200    0.803000
 H   -6.301705    0.989531   -0.107990
 H    3.857706    1.393410    1.478258
 H    6.244576    0.994141    1.986574
 H    6.364760   -2.112610   -0.932813
 H    2.568627    3.043990    0.616909
 H   -1.367433   -0.494131   -2.160646
 H   -0.163874   -1.768938   -2.510278
 H   -2.832042   -0.683538   -0.175661
 H   -1.411397   -0.610060    0.853319
 H   -1.679088   -3.683098   -2.121667
 H   -2.997901   -2.525340   -1.959228
 H   -2.148873   -4.597449    0.112031
 H   -3.588211   -4.690783   -0.919000
 H   -4.481940   -2.619167    0.121146
 H   -3.321037   -1.609277    2.068181
 H   -1.991855   -2.768377    1.890770
 H   -4.873847   -3.556803    2.319877
 H   -4.968642   -4.759368    1.157222
 H   -3.610406   -4.628092    2.118015
