73 
3tdc_ligand_dft.xyz
 C   -3.643316   -1.515251    0.201821
 C   -3.793971   -2.312238    1.347947
 C   -4.371996   -3.563156    1.234458
 C   -4.818507   -4.039736   -0.007821
 C   -4.703540   -3.263365   -1.148624
 C   -4.114661   -2.002748   -1.032369
 S   -3.885008   -0.837779   -2.315058
 C   -3.218266    0.307354   -1.179846
 N   -2.843826    1.579058   -1.637851
 C   -1.662008    2.174079   -1.267758
 O   -0.671246    1.504069   -0.943798
 N   -1.639169    3.523082   -1.345342
 C   -3.117180   -0.172819    0.087217
 C   -2.574313    0.666054    1.198412
 N   -1.609034    0.080830    1.979337
 O   -2.973564    1.806882    1.392924
 C   -0.770851   -1.019495    1.491503
 C    0.649302   -0.888056    2.046320
 C   -1.067723    0.860796    3.082560
 C    0.238679    1.534835    2.653603
 C    1.216787    0.528661    1.986036
 N    1.488819    1.003262    0.561990
 C    2.310532    2.262176    0.536547
 C    3.796580    1.989025    0.698210
 C    4.302050    1.074840   -0.415104
 C    2.012186    0.027068   -0.455485
 C    3.521678   -0.257105   -0.459983
 C    3.986948   -1.147195    0.700831
 O    3.780437   -0.963331    1.876646
 O    4.705007   -2.172942    0.255819
 C    3.860260   -1.116035   -1.690395
 C    4.865821   -2.178596   -1.191581
 C    6.316158   -1.821449   -1.493590
 C    4.524354   -3.581737   -1.668713
 C   -0.455567    4.280125   -0.969883
 C   -0.677860    5.766026   -1.209196
 H   -3.477775   -1.933907    2.315731
 H   -4.494342   -4.179972    2.118847
 H   -5.273228   -5.022594   -0.074899
 H   -5.068121   -3.623809   -2.105033
 H   -3.597527    2.178031   -1.947378
 H   -2.519091    4.018626   -1.328048
 H   -0.762492   -0.986793    0.396511
 H   -1.180339   -1.993092    1.780984
 H    0.665875   -1.164834    3.104977
 H    1.309859   -1.612323    1.568008
 H   -0.917805    0.207565    3.947660
 H   -1.805539    1.614344    3.353215
 H    0.716142    2.015639    3.512248
 H   -0.038677    2.330600    1.952643
 H    2.186160    0.517141    2.478225
 H    0.565235    1.271225    0.157354
 H    2.107460    2.731885   -0.430812
 H    1.930860    2.920542    1.318617
 H    4.317579    2.950174    0.659872
 H    4.006685    1.548607    1.677067
 H    4.176837    1.573564   -1.385182
 H    5.372100    0.885898   -0.290742
 H    1.431118   -0.890307   -0.370946
 H    1.748375    0.481252   -1.416040
 H    2.959627   -1.611614   -2.070788
 H    4.275415   -0.523026   -2.509601
 H    6.493099   -1.861103   -2.572704
 H    6.989324   -2.530723   -1.005226
 H    6.564738   -0.815853   -1.141577
 H    4.592651   -3.631226   -2.759989
 H    5.219230   -4.312259   -1.246137
 H    3.507778   -3.855507   -1.370413
 H    0.383478    3.919857   -1.573456
 H   -0.213247    4.096905    0.086196
 H   -1.504402    6.145975   -0.599332
 H   -0.898162    5.964250   -2.262224
 H    0.219185    6.327942   -0.937082
