73 
3te5_ligand_xtb.xyz
 P    0.906729   -1.250223   -0.196939
 O    1.431178   -1.562175    1.237254
 O    0.240300   -2.304377   -0.954986
 O    2.207119   -0.644065   -0.863331
 C    2.558618   -0.891207   -2.220211
 C    4.075024   -0.710579   -2.363650
 O    4.469016    0.633931   -2.118066
 C    4.882339   -1.539813   -1.350470
 O    6.159186   -1.812065   -1.850737
 C    4.923177   -0.602861   -0.129537
 O    6.123978   -0.730664    0.577198
 C    4.741763    0.807518   -0.763059
 N    3.660046    1.516858   -0.105159
 C    2.654750    2.209554   -0.701473
 N    1.699421    2.552078    0.114359
 C    2.066920    2.037772    1.335310
 C    1.434004    1.932571    2.585666
 N    0.200132    2.416016    2.836292
 N    2.105939    1.347800    3.580064
 C    3.308483    0.854112    3.349848
 N    3.975880    0.814585    2.209816
 C    3.309378    1.399497    1.210736
 O   -0.023884    0.047765    0.092049
 P   -0.626083    0.944925   -1.076282
 O    0.141191    0.993496   -2.316945
 O   -0.852550    2.323294   -0.341827
 O   -2.084015    0.321478   -1.196021
 C   -2.855585    0.608061   -2.353297
 C   -4.197096    1.245288   -1.968036
 O   -5.088887    0.289263   -1.425485
 C   -4.081097    2.336888   -0.896653
 O   -5.109692    3.269036   -1.066366
 C   -4.229814    1.535661    0.416356
 O   -4.924963    2.312968    1.361343
 C   -5.018643    0.277078   -0.012587
 N   -4.538949   -1.012918    0.445225
 C   -3.307806   -1.289272    0.898732
 C   -2.802545   -2.548507    1.038025
 C   -1.445378   -2.676873    1.533106
 O   -0.894683   -1.770187    2.182011
 N   -0.809075   -3.853554    1.313043
 C   -3.617795   -3.669897    0.609393
 C   -4.849916   -3.455287    0.162056
 C   -5.459877   -2.089041    0.068847
 H    0.609447   -1.649798    1.827381
 H    2.035194   -0.167411   -2.851077
 H    2.252761   -1.902814   -2.497014
 H    4.376463   -0.940966   -3.388162
 H    4.364107   -2.477194   -1.106398
 H    6.784060   -1.687194   -1.121753
 H    4.068971   -0.827571    0.512515
 H    5.982049   -0.331746    1.446427
 H    5.666431    1.397901   -0.666453
 H    2.664551    2.436782   -1.748231
 H   -0.223177    2.120921    3.700511
 H   -0.395029    2.615184    2.049135
 H    3.802090    0.405143    4.201135
 H    0.063389    2.702182   -0.203622
 H   -3.055835   -0.340616   -2.859849
 H   -2.293067    1.264005   -3.020742
 H   -4.677283    1.643809   -2.866562
 H   -3.104715    2.836192   -0.937705
 H   -5.399379    3.545697   -0.185721
 H   -3.232011    1.285419    0.780866
 H   -4.927474    1.858726    2.209594
 H   -6.057498    0.371014    0.352255
 H   -2.669893   -0.468269    1.182472
 H   -1.100596   -4.410407    0.527735
 H    0.181241   -3.866042    1.504522
 H   -3.222157   -4.670201    0.681264
 H   -5.487542   -4.260410   -0.169127
 H   -6.345851   -2.027858    0.724519
 H   -5.802442   -1.906627   -0.958403
