73 
3te5_ligand_dft.xyz
 P   -0.374144    1.178817   -0.086378
 O   -0.809839    1.620039    1.360551
 O    0.677382    1.931685   -0.790354
 O   -1.795391    1.126262   -0.811089
 C   -1.962274    1.591375   -2.158349
 C   -3.449268    1.741935   -2.422176
 O   -4.096796    0.460219   -2.421957
 C   -4.223215    2.578918   -1.399696
 O   -5.364365    3.107943   -2.027326
 C   -4.628842    1.534952   -0.355774
 O   -5.827722    1.902608    0.268322
 C   -4.762953    0.254555   -1.217816
 N   -4.163090   -0.889041   -0.524511
 C   -3.131246   -1.668032   -0.945525
 N   -2.697573   -2.493574   -0.017783
 C   -3.487681   -2.225255    1.083807
 C   -3.506989   -2.701502    2.407278
 N   -2.669168   -3.664018    2.849674
 N   -4.404087   -2.187539    3.262126
 C   -5.229299   -1.230030    2.830030
 N   -5.300489   -0.680354    1.618019
 C   -4.402864   -1.225603    0.782876
 O   -0.002539   -0.394726    0.170804
 P    0.342109   -1.481415   -0.977855
 O   -0.272833   -1.178095   -2.286079
 O   -0.041423   -2.842692   -0.278600
 O    1.937801   -1.516473   -0.962792
 C    2.624820   -1.721053   -2.207762
 C    4.113865   -1.682033   -1.943252
 O    4.483465   -0.354283   -1.571333
 C    4.594506   -2.612139   -0.817551
 O    5.859481   -3.119964   -1.175566
 C    4.726579   -1.650478    0.362847
 O    5.658795   -2.159015    1.286330
 C    5.203209   -0.382309   -0.355242
 N    5.041803    0.852383    0.363468
 C    3.836064    1.165963    0.915752
 C    3.597623    2.365392    1.506949
 C    2.270936    2.583792    2.079569
 O    1.534818    1.643466    2.425087
 N    1.881350    3.876455    2.252314
 C    4.690729    3.330101    1.576824
 C    5.813835    3.118887    0.884238
 C    5.920800    1.952421   -0.063497
 H    0.005280    1.652783    1.949554
 H   -1.528399    0.854078   -2.838677
 H   -1.452198    2.550909   -2.286469
 H   -3.581203    2.164878   -3.422108
 H   -3.599189    3.370572   -0.962761
 H   -6.058876    3.119842   -1.350941
 H   -3.819826    1.406906    0.369092
 H   -6.003560    1.205462    0.927677
 H   -5.817220    0.028075   -1.406537
 H   -2.700364   -1.561747   -1.930388
 H   -2.638098   -3.829808    3.843756
 H   -1.862948   -3.913470    2.299176
 H   -5.927793   -0.846639    3.569094
 H   -1.041814   -2.895680   -0.169111
 H    2.345316   -0.932581   -2.909821
 H    2.348666   -2.693922   -2.628664
 H    4.632197   -1.960746   -2.868621
 H    3.879685   -3.419971   -0.614911
 H    6.316788   -3.316725   -0.344637
 H    3.742905   -1.505599    0.820914
 H    5.801516   -1.492458    1.969335
 H    6.277953   -0.498345   -0.550809
 H    3.059572    0.410452    0.888219
 H    2.301677    4.595867    1.683321
 H    0.919819    4.025397    2.523012
 H    4.610014    4.174358    2.256777
 H    6.662805    3.790676    0.958128
 H    6.946288    1.568423   -0.088915
 H    5.663633    2.252878   -1.093509
