17 
3tf6_ligand_xtb.xyz
 C    2.023514   -0.197201   -0.089068
 O    2.407027   -1.131759   -0.727555
 C    0.605632    0.275488   -0.044830
 C    0.309321    1.635728   -0.149057
 C   -0.998141    2.072565   -0.173590
 C   -0.431999   -0.652912    0.046609
 O   -0.174827   -1.964211    0.189635
 C   -1.760412   -0.191488    0.033760
 C   -2.036458    1.156517   -0.080418
 O   -2.732856   -1.152852    0.138633
 O    2.886008    0.545578    0.639326
 H    1.113240    2.350892   -0.251803
 H   -1.219595    3.123908   -0.266929
 H   -1.016538   -2.442405    0.210238
 H   -3.063862    1.493139   -0.097124
 H   -3.602605   -0.741167    0.098282
 H    2.437802    1.249397    1.126589
