48 
3tgs_ligand_dft.xyz
 C   -6.368098   -0.017932   -0.042236
 C   -5.540540   -0.980726   -0.607539
 C   -4.159440   -0.868082   -0.494742
 C   -3.613346    0.218749    0.190314
 C   -4.451701    1.181845    0.755833
 C   -5.829143    1.067124    0.641720
 N   -2.221933    0.400485    0.345595
 C   -1.216819   -0.375366   -0.093640
Cl   -8.097729   -0.169179   -0.190079
 C    0.152440    0.202275    0.303556
 N    1.164842   -0.589952   -0.106821
 C    2.537343   -0.237192    0.160745
 C    3.426251   -1.474735    0.055709
 C    4.902488   -1.192807    0.359037
 N    5.325919    0.019752   -0.486733
 C    4.464635    1.295293   -0.560354
 C    3.022242    0.849577   -0.809147
 C    5.787451   -2.347802   -0.115442
 C    5.166476   -0.916518    1.839255
 C    4.627787    2.116867    0.718475
 C    5.012819    2.082396   -1.752514
 O    0.293068    1.251792    0.915383
 O   -1.273459   -1.417029   -0.733277
 H   -5.972313   -1.822133   -1.137877
 H   -3.512931   -1.615793   -0.933374
 H   -4.029341    2.028666    1.290510
 H   -6.480206    1.814477    1.080832
 H   -1.912227    1.221175    0.855772
 H    0.897534   -1.416354   -0.630321
 H    2.558674    0.160299    1.181238
 H    3.338558   -1.893485   -0.957173
 H    3.084353   -2.249177    0.749666
 H    5.412696   -0.319100   -1.450121
 H    6.275488    0.287973   -0.208732
 H    2.375241    1.726612   -0.718119
 H    2.919522    0.474782   -1.836613
 H    5.504589   -3.258933    0.417758
 H    5.665827   -2.546039   -1.186653
 H    6.846220   -2.159225    0.093592
 H    4.472032   -0.202531    2.280728
 H    5.057967   -1.856650    2.386121
 H    6.188636   -0.559879    2.006860
 H    4.118783    1.689637    1.581701
 H    5.683122    2.269805    0.970229
 H    4.188262    3.102306    0.545204
 H    6.047425    2.403289   -1.587202
 H    4.961920    1.506967   -2.684166
 H    4.407821    2.981455   -1.893830
