57 
3thb_ligand_dft.xyz
 C   -0.981833    2.985041   -0.480410
Cl   -3.653878   -3.295336   -1.652479
 C   -0.040866    3.980823   -0.204219
 N    1.248765    3.742371   -0.023417
 C    1.622890    2.453580   -0.111371
 N    0.821150    1.422446   -0.382739
 C   -0.476298    1.687561   -0.560766
 C   -2.637263    0.372896   -0.340437
 C   -1.335079    0.521637   -0.864860
 N   -3.251061    1.245354    0.557731
 C   -3.178579    2.516216    0.457921
 C   -2.451495    3.241086   -0.662599
 C   -1.507455   -1.656333   -1.942562
 C   -2.782767   -1.804576   -1.390081
 C   -3.343635   -0.817223   -0.601330
 C   -0.798202   -0.502509   -1.658579
 S   -3.919641    3.419176    1.778165
 N    2.955439    2.212661    0.103614
 C    3.578161    0.954822    0.133865
 C    2.927804   -0.154347    0.652571
 C    3.516916   -1.410852    0.578193
 C    4.799053   -1.480832    0.047627
 N    5.470507   -0.410730   -0.382185
 C    4.885918    0.786963   -0.363961
 C    2.699613   -2.616567    0.976878
 C    1.543175   -2.804383   -0.025274
 C    0.435716   -3.760143    0.387881
 N   -0.253302   -3.374167    1.680179
 C   -0.786607   -1.976152    1.678260
 C   -1.336036   -4.350929    2.009521
 C    5.672454    1.953454   -0.894157
 H   -0.348719    5.023280   -0.133904
 H   -2.801319    2.826560   -1.616726
 H   -2.666216    4.311530   -0.671267
 H   -1.094289   -2.423345   -2.589001
 H   -4.325279   -0.941287   -0.158088
 H    0.200520   -0.366854   -2.061069
 H   -3.711570    4.647332    1.280593
 H    3.521456    3.045182    0.185098
 H    1.939487   -0.034794    1.077585
 H    5.315696   -2.435264   -0.039971
 H    2.316050   -2.450463    1.996137
 H    3.319285   -3.518829    1.018987
 H    1.949500   -3.192672   -0.965685
 H    1.109616   -1.831960   -0.278033
 H    0.810439   -4.775645    0.544917
 H   -0.353930   -3.788418   -0.368328
 H    0.450894   -3.430777    2.420572
 H    0.027331   -1.270392    1.523558
 H   -1.513460   -1.887370    0.870665
 H   -1.267320   -1.787079    2.638492
 H   -2.104919   -4.279701    1.237935
 H   -0.916295   -5.357139    2.029599
 H   -1.758838   -4.100737    2.983013
 H    5.116937    2.485322   -1.675060
 H    5.908742    2.675563   -0.102006
 H    6.612388    1.590918   -1.311468
