56 
3ti1_ligand_dft.xyz
 C    1.270512    3.403498   -0.925482
 C   -7.225226   -1.054462    0.449828
 C   -6.795967    0.130493    1.055897
 C   -4.995364   -1.433729   -0.457018
 C    0.307919   -0.214044   -0.954351
 C   -6.323932   -1.805070   -0.287702
 C   -4.559748   -0.265410    0.154923
 C   -3.262570    0.414711    0.181224
 C   -3.442645    1.621461    1.048816
 C    2.725080    0.654868   -1.318161
 C    0.413235   -1.706501   -1.074243
 C   -2.140240   -0.064441   -0.418257
 C    0.663171    2.035964   -0.871703
 C   -5.472222    0.506592    0.901791
 C   -0.845798    0.509943   -0.629172
 C    1.326015    0.776535   -1.103280
 N   -0.608833    1.872026   -0.590380
 N   -4.802556    1.619525    1.389800
 N    3.252226   -0.685326   -1.392431
 O   -2.653865    2.432663    1.484103
 O    3.552296    1.575330   -1.349848
 F   -6.752886   -2.945426   -0.872091
 C    4.642370   -0.850010   -1.750738
 C    5.410632   -1.425559   -0.540328
 N    4.863555   -0.801634    0.705737
 C    4.881940   -1.704402    1.906788
 C    5.322401    0.616936    0.957270
 C    6.768965    0.769741    1.389358
 C    6.196629   -2.425036    2.166694
 H    2.070229    3.516760   -0.184880
 H    1.724256    3.607043   -1.901494
 H    0.487704    4.138918   -0.724997
 H   -8.251149   -1.392991    0.542354
 H   -7.489641    0.735414    1.631909
 H   -4.339288   -2.055233   -1.058066
 H   -0.547280   -2.192113   -0.885082
 H    0.726968   -2.029231   -2.079720
 H    1.120420   -2.138214   -0.350673
 H   -2.259033   -1.065079   -0.838121
 H   -5.171649    2.286778    2.047323
 H    2.612936   -1.378808   -1.751487
 H    5.034631    0.129638   -2.032956
 H    4.769017   -1.535109   -2.593672
 H    6.487804   -1.262856   -0.595781
 H    5.220781   -2.498627   -0.456247
 H    3.863163   -0.704107    0.419564
 H    4.083220   -2.433808    1.743141
 H    4.594295   -1.084158    2.759208
 H    4.643901    1.006617    1.720660
 H    5.096183    1.162183    0.036731
 H    6.947506    0.405492    2.404182
 H    7.469556    0.279036    0.707076
 H    7.004570    1.837338    1.380153
 H    6.456827   -3.110097    1.355774
 H    7.031449   -1.740989    2.323510
 H    6.079474   -3.023521    3.074363
