42 
3tif_ligand_xtb.xyz
 P    0.439603   -2.078445   -0.902031
 O    1.080255   -2.732044    0.352196
 O    0.950422   -3.011563   -2.067762
 O    0.615883   -0.644907   -1.123697
 P   -2.122402   -1.870581    0.203483
 O   -1.667698   -1.902369    1.589045
 O   -3.457823   -2.691052   -0.060727
 O   -1.132095   -2.500418   -0.866144
 O   -2.434946   -0.449782   -0.426061
 C   -3.315417    0.387986    0.318318
 C   -2.728160    1.788254    0.512564
 O   -1.645392    1.747596    1.435085
 C   -2.212045    2.436072   -0.783322
 O   -2.566495    3.789839   -0.815521
 C   -0.689809    2.252130   -0.687496
 O   -0.026193    3.327185   -1.282300
 C   -0.456811    2.175240    0.842195
 N    0.617476    1.257420    1.130360
 C    0.583500    0.102947    1.839854
 N    1.682044   -0.598093    1.748241
 C    2.504323    0.130570    0.921051
 C    3.776099   -0.085822    0.365627
 N    4.534981   -1.158057    0.657048
 N    4.263426    0.833709   -0.472766
 C    3.534782    1.894392   -0.764788
 N    2.325453    2.204456   -0.328814
 C    1.835769    1.293355    0.515255
 H    1.307948   -2.054987    1.053550
 H    0.876385   -2.570587   -2.913252
 H   -3.506954   -3.458779    0.508474
 H   -4.259713    0.457982   -0.227790
 H   -3.490118   -0.048960    1.304968
 H   -3.509935    2.425970    0.945229
 H   -2.617183    1.919198   -1.662599
 H   -1.807762    4.264413   -1.189897
 H   -0.399788    1.292662   -1.131804
 H    0.933364    3.169522   -1.158342
 H   -0.174117    3.172170    1.227491
 H   -0.275278   -0.194356    2.406313
 H    4.122116   -1.924139    1.158222
 H    5.377432   -1.297379    0.127261
 H    3.981184    2.595978   -1.456568
