24 
3tiy_ligand_xtb.xyz
 C   -2.513576    0.834629   -0.000916
 C   -2.294587   -0.548063   -0.000128
 O   -0.919678   -2.386553    0.001038
 C   -0.987381   -1.039831    0.000608
 C    0.154266   -0.188076    0.000699
 C   -0.088635    1.221022    0.000550
 C    0.875885    2.269361    0.001995
 C    2.234590    2.249111    0.001542
 C    3.089414    1.138354   -0.000638
 C    2.756880   -0.183447   -0.001189
 C    1.442353   -0.842747    0.000697
 O    1.538175   -2.099817    0.001633
 O    3.767202   -1.068716   -0.003065
 C   -1.417459    1.671550   -0.000438
 O   -3.784303    1.288187   -0.001900
 O   -3.334463   -1.408875    0.000036
 H    0.052105   -2.616888    0.001492
 H    0.432720    3.257738    0.003411
 H    2.731715    3.210161    0.002821
 H    4.153501    1.333950   -0.001850
 H    3.336724   -1.956083   -0.002214
 H   -1.596321    2.738477   -0.000890
 H   -3.792675    2.253575   -0.002230
 H   -2.963735   -2.305911    0.000833
