35 
3tiz_ligand_dft.xyz
 N   -0.811439   -0.012921   -0.313899
 C   -2.204333   -0.066498   -0.207151
 C   -2.971333   -0.395801   -1.336793
 C   -4.349638   -0.500189   -1.266829
 C   -5.009775   -0.283831   -0.056127
 C   -4.265267    0.040913    1.070574
 C   -2.876489    0.153915    0.997708
 C   -0.033330    0.647495    0.724532
 C    1.411055    0.776388    0.310096
 C    1.943002    2.017839    0.028833
 C    3.303540    2.169072   -0.338281
 C    4.118546    1.076018   -0.424672
 C    3.619943   -0.223997   -0.158980
 C    2.251061   -0.374930    0.201652
 C    1.765592   -1.689052    0.448308
 C    2.597580   -2.775446    0.355776
 C    3.958713   -2.619103    0.008090
 C    4.454254   -1.367794   -0.246888
 O   -6.371963   -0.403052   -0.047021
 O    1.132327    3.110868    0.113554
 H   -0.491077    0.225297   -1.242919
 H   -2.469647   -0.578372   -2.284206
 H   -4.933026   -0.752571   -2.146339
 H   -4.762907    0.216989    2.022430
 H   -2.327691    0.416084    1.895675
 H   -0.091259    0.043652    1.640228
 H   -0.436550    1.639187    0.968764
 H    3.693601    3.162994   -0.548268
 H    5.162538    1.195612   -0.701826
 H    0.715725   -1.830446    0.679489
 H    2.204327   -3.769963    0.545175
 H    4.603444   -3.489907   -0.061184
 H    5.497389   -1.231623   -0.521666
 H   -6.692532   -0.230864    0.845714
 H    1.646091    3.901850   -0.085145
