61 
3tkh_ligand_dft.xyz
 C   10.774028    0.599596   -0.305709
 C    9.805351    1.383051   -0.926078
 C    8.484714    0.957698   -0.892631
 C    8.169523   -0.231464   -0.229541
 C    9.225507   -0.925010    0.377686
 N   10.496901   -0.536659    0.337618
 C    6.804548   -0.761993   -0.159383
 S    5.402494    0.272932   -0.006552
 C    4.414040   -1.158266    0.004756
 N    5.049439   -2.289071   -0.088094
 C    6.398794   -2.062338   -0.182359
 N    3.031718   -1.175396    0.106045
 C    2.170048   -0.116645    0.222378
 N    2.697558    1.103996    0.239928
 C    1.856970    2.135215    0.354565
 C    0.484517    2.014199    0.458245
 C   -0.068914    0.723009    0.430199
 C    0.783067   -0.362105    0.304412
 N   -1.473244    0.574222    0.558084
 C   -2.283141    1.274464   -0.426053
 C   -3.698299    1.449267    0.097173
 N   -4.283172    0.105270    0.427321
 C   -3.405631   -0.648876    1.376864
 C   -1.992228   -0.750685    0.819767
 C   -5.711051    0.190100    0.839688
 C   -6.522993   -0.053761   -0.452776
 N   -7.843273    0.124854   -0.418001
 C   -8.646784   -0.088029   -1.629794
 C   -9.790141   -1.046718   -1.313969
 O  -10.551038   -0.576789   -0.222309
 C   -9.775613   -0.484995    0.943419
 C   -8.627384    0.510036    0.757490
 O   -5.881382   -0.410181   -1.444777
 H   11.819772    0.897151   -0.322114
 H   10.083919    2.300151   -1.434133
 H    7.707667    1.532490   -1.389784
 H    9.020219   -1.837271    0.934763
 H    7.063585   -2.911142   -0.290860
 H    2.660284   -2.114963    0.097655
 H    2.321373    3.117452    0.379440
 H   -0.131911    2.893775    0.604532
 H    0.418683   -1.381742    0.245462
 H   -2.306197    0.737539   -1.391636
 H   -1.868754    2.264101   -0.620817
 H   -4.348129    1.905851   -0.652621
 H   -3.704556    2.040137    1.016554
 H   -4.360020   -0.402183   -0.484752
 H   -3.845137   -1.639473    1.514906
 H   -3.410959   -0.106203    2.325393
 H   -1.378751   -1.240668    1.579532
 H   -1.994069   -1.395988   -0.078337
 H   -5.898310    1.165700    1.291837
 H   -5.913230   -0.587200    1.581134
 H   -7.996783   -0.478996   -2.412141
 H   -9.048515    0.881110   -1.946010
 H   -9.389559   -2.049714   -1.099054
 H  -10.467920   -1.115130   -2.166557
 H   -9.365265   -1.470886    1.217197
 H  -10.435886   -0.144435    1.743631
 H   -9.032215    1.515207    0.593402
 H   -8.004950    0.529169    1.654490
