54 
3tki_ligand_xtb.xyz
 C   -6.386355    2.143187    0.621565
 N   -5.811199    0.812830    0.685652
 O   -7.987411    1.393858   -1.036108
 S    0.366018   -1.170323    0.079825
 C   -7.000659    2.361690   -0.768522
 C   -7.471858    0.087620   -0.939113
 C   -6.860487   -0.160687    0.447987
 C    3.025507   -2.066206   -0.084387
 C    3.446839   -0.733834   -0.059268
 C    4.807978   -0.433909   -0.133797
 C    5.713995   -1.504584   -0.226903
 N    5.323415   -2.759479   -0.211581
 C    4.043295   -3.042793   -0.133329
 C   -0.784196   -2.474428    0.085210
 C    1.635906   -2.401049   -0.029497
 C    1.053225   -3.643530   -0.054333
 N   -0.286632   -3.671585    0.009253
 C   -3.515112    1.580282    0.466592
 C   -2.186252    1.264357    0.343425
 N   -1.725197    0.024121    0.243631
 C   -2.623545   -0.954120    0.268402
 C   -3.990278   -0.752338    0.384822
 C   -4.491670    0.554664    0.496902
 N   -2.107223   -2.230282    0.166672
 C    5.326420    0.926618   -0.145793
 O    6.546494    1.108748    0.173935
 N    4.521042    1.913586   -0.515024
 C    4.874135    3.305110   -0.773954
 C    5.590487    4.002778    0.387953
 N    6.997196    3.592209    0.420230
 H   -5.653888    2.914101    0.841568
 H   -7.180695    2.199131    1.372906
 H   -6.205106    2.314067   -1.529520
 H   -7.499993    3.329510   -0.826587
 H   -6.700551   -0.074361   -1.709383
 H   -8.311023   -0.584983   -1.120216
 H   -7.633104   -0.015425    1.209786
 H   -6.495672   -1.180741    0.520940
 H    2.696409    0.033505    0.071430
 H    6.774125   -1.325908   -0.327386
 H    3.801226   -4.094581   -0.095275
 H    1.567524   -4.585209   -0.121367
 H   -3.783906    2.619442    0.536534
 H   -1.433872    2.040208    0.318266
 H   -4.628644   -1.619099    0.395885
 H   -2.723678   -3.030111    0.176933
 H    3.575559    1.647865   -0.755186
 H    3.944397    3.831009   -0.987466
 H    5.507625    3.356333   -1.667644
 H    5.123414    3.717070    1.333101
 H    5.477416    5.084628    0.264604
 H    7.442465    3.840479    1.297376
 H    6.861091    2.145769    0.240448
 H    7.525880    4.018857   -0.335166
