54 
3tki_ligand_dft.xyz
 C   -6.964861    1.680165    0.970741
 N   -6.258081    0.448100    0.632871
 O   -8.141181    1.619715   -1.133867
 S    0.410523   -1.003817    0.235597
 C   -7.345387    2.436242   -0.300077
 C   -7.486178    0.418412   -1.479518
 C   -7.095878   -0.380011   -0.234113
 C    3.055233   -1.967633    0.039895
 C    3.601804   -0.703475   -0.179378
 C    4.983698   -0.524255   -0.081905
 C    5.785236   -1.632407    0.202256
 N    5.283773   -2.844452    0.423877
 C    3.964766   -2.994723    0.359799
 C   -0.806911   -2.205240   -0.121542
 C    1.626359   -2.234663   -0.059368
 C    1.007941   -3.405131   -0.391768
 N   -0.354624   -3.394104   -0.427029
 C   -4.066525    1.515760    0.867201
 C   -2.695385    1.379716    0.825424
 N   -2.045519    0.254102    0.509608
 C   -2.814113   -0.793981    0.226548
 C   -4.207215   -0.785280    0.232921
 C   -4.884363    0.398970    0.565242
 N   -2.151935   -1.974906   -0.091020
 C    5.643622    0.780094   -0.283990
 O    6.834516    0.850656   -0.642285
 N    4.921225    1.901606   -0.037929
 C    5.337745    3.233806   -0.443887
 C    6.542514    3.790556    0.320963
 N    7.813993    3.191007   -0.203114
 H   -6.377380    2.292418    1.655117
 H   -7.881517    1.395855    1.500255
 H   -6.432991    2.753936   -0.832031
 H   -7.943760    3.320805   -0.068379
 H   -6.579159    0.632256   -2.069577
 H   -8.183885   -0.148349   -2.101060
 H   -7.996756   -0.659281    0.323662
 H   -6.586348   -1.299115   -0.520471
 H    2.945821    0.110648   -0.479400
 H    6.864408   -1.526420    0.263573
 H    3.590091   -3.991868    0.578139
 H    1.521340   -4.324373   -0.652120
 H   -4.483133    2.484526    1.106323
 H   -2.066039    2.237166    1.051946
 H   -4.740319   -1.704577    0.023486
 H   -2.699237   -2.796065   -0.308778
 H    3.988492    1.794828    0.332680
 H    4.494742    3.904727   -0.269692
 H    5.539757    3.249026   -1.522930
 H    6.473833    3.538694    1.380540
 H    6.603292    4.875321    0.215597
 H    8.105415    3.627809   -1.080260
 H    8.588641    3.272787    0.458233
 H    7.585205    2.146362   -0.408717
