98 
3tne_ligand_xtb.xyz
 C    5.424249   -0.329631    1.975744
 C    5.599487    0.486121    0.896798
 S    6.967978   -0.051125   -0.019871
 C    7.181448   -1.316087    1.149244
 N    6.323514   -1.330196    2.100266
 C    4.735811    1.614715    0.446973
 O    3.717535    1.140646   -0.433174
 C    2.633045    0.591067    0.159892
 O    2.456966    0.573527    1.358549
 N    1.788027    0.132260   -0.779925
 C    0.648703   -0.743873   -0.531749
 C   -0.389583   -0.114881    0.436874
 C   -0.536393    1.399260    0.236680
 C   -0.787041    1.851074   -1.203405
 C    1.124708   -2.115935   -0.015786
 C    2.275147   -2.622039   -0.836923
 C    2.075778   -3.073716   -2.136310
 C    3.145175   -3.491466   -2.907864
 C    4.429672   -3.461246   -2.390654
 C    4.637377   -3.016405   -1.096651
 C    3.566776   -2.597735   -0.326211
 O   -0.104312   -0.385260    1.782300
 C   -0.792886    3.391078   -1.273388
 C    0.563239    3.918272   -0.903385
 C    0.799823    4.474847    0.347255
 C    2.069562    4.891751    0.706465
 C    3.122760    4.756837   -0.181549
 C    2.897202    4.210391   -1.433583
 C    1.627066    3.795172   -1.789536
 N   -2.021930    1.299629   -1.733116
 N   -4.117285   -0.789896   -1.249401
 C   -4.287990    0.545489   -1.798854
 C   -3.225588    1.450714   -1.150675
 O   -3.455285    2.174843   -0.200029
 C   -5.708982    1.050319   -1.527676
 C   -6.744545    0.055173   -2.042748
 C   -5.907394    2.414310   -2.183906
 C   -3.140373   -1.613515   -1.714945
 N   -3.064920   -2.839035   -1.114467
 C   -3.881883   -3.221522    0.024194
 O   -2.396976   -1.314941   -2.650215
 C   -3.444623   -2.509467    1.272735
 C   -2.619816   -2.976240    2.248681
 S   -2.324260   -1.760141    3.425532
 C   -3.333345   -0.678141    2.507916
 N   -3.835614   -1.218020    1.450461
 C   -3.604674    0.725332    2.921638
 C   -4.950910    0.787061    3.653117
 C   -2.479455    1.266369    3.797139
 C   -2.082609   -3.791465   -1.569776
 H    4.640096   -0.224959    2.703317
 H    7.984790   -2.019520    1.055758
 H    4.267435    2.095670    1.312624
 H    5.300714    2.344780   -0.133892
 H    2.154329    0.148752   -1.718952
 H    0.157885   -0.876570   -1.499681
 H   -1.347942   -0.610673    0.239831
 H   -1.370470    1.737465    0.853002
 H    0.369957    1.882698    0.603442
 H    0.016687    1.490270   -1.850799
 H    1.429191   -2.017467    1.026561
 H    0.279747   -2.803498   -0.060746
 H    1.075028   -3.098705   -2.543728
 H    2.976383   -3.841890   -3.915672
 H    5.264756   -3.786681   -2.993118
 H    5.635169   -2.997995   -0.682512
 H    3.735580   -2.253639    0.684625
 H    0.782090   -0.017132    1.961530
 H   -1.557821    3.771193   -0.597184
 H   -1.049961    3.688063   -2.292501
 H   -0.017894    4.577923    1.045714
 H    2.238250    5.319921    1.683943
 H    4.114323    5.081091    0.099932
 H    3.713021    4.106200   -2.134268
 H    1.456945    3.371835   -2.769600
 H   -1.945551    0.522154   -2.384933
 H   -4.352804   -0.855083   -0.258608
 H   -4.106548    0.485811   -2.877574
 H   -5.818178    1.162838   -0.444150
 H   -6.646954   -0.065832   -3.119625
 H   -6.614682   -0.917188   -1.575696
 H   -7.748265    0.412749   -1.826046
 H   -5.762789    2.344064   -3.260384
 H   -5.200541    3.134549   -1.782329
 H   -6.914196    2.778642   -1.994706
 H   -3.783519   -4.299802    0.157877
 H   -4.931733   -2.987070   -0.180797
 H   -2.178911   -3.947852    2.342878
 H   -3.682492    1.321287    2.004439
 H   -5.180895    1.816445    3.914701
 H   -4.913769    0.194617    4.565736
 H   -5.745736    0.402162    3.019109
 H   -1.518298    1.121588    3.309641
 H   -2.460426    0.747081    4.754052
 H   -2.626516    2.327390    3.981699
 H   -1.406326   -4.072488   -0.758160
 H   -1.516736   -3.326827   -2.374620
 H   -2.571490   -4.691751   -1.951522
