80 
3tpp_ligand_dft.xyz
 C    3.830120    0.945325    3.567266
 C    2.914334   -0.216789    3.344742
 C    2.395293    1.006851    4.029738
 N    2.460179   -0.476165    1.963076
 C    3.427472   -1.283265    1.141619
 C    3.090138   -2.801166    1.166131
 C    2.312434   -3.303474   -0.086497
 N    1.333151   -2.331917   -0.567744
 C    0.356155   -1.807401    0.190554
 O    0.101531   -2.223317    1.330510
 O    2.455297   -3.146341    2.373718
 C    3.242282   -3.686431   -1.261355
 C   -0.276399   -0.550203   -0.306739
 C   -1.606601   -0.249379   -0.007945
 C   -2.104276    1.020167   -0.285186
 C   -1.244047    2.015860   -0.758006
 C    0.088221    1.723865   -1.018444
 C    0.556865    0.423159   -0.848614
 C   -3.520379    1.450693    0.021818
 N    1.040581    2.722670   -1.386313
 O   -3.769595    2.633273    0.211234
 C    0.656711    3.735564   -2.377222
 S    2.070699    3.237221   -0.166919
 C    1.098561    4.317074    0.871112
 O    2.391239    2.057983    0.645196
 O    3.134985    3.994876   -0.784646
 C    5.378663   -2.335364   -1.203142
 C    6.121385   -1.206766   -1.537763
 C    5.604101   -0.266452   -2.424770
 C    4.357152   -0.481347   -3.005104
 C    3.622155   -1.617839   -2.675603
 C    4.106686   -2.543645   -1.744586
 N   -4.445535    0.466759    0.078437
 C   -5.867482    0.756149    0.316575
 C   -6.109891    1.136939    1.779303
 C   -6.683922   -0.444171   -0.116472
 C   -7.644274   -0.322993   -1.120010
 C   -8.403256   -1.422918   -1.511003
 C   -8.202386   -2.660026   -0.906979
 C   -7.242137   -2.792689    0.093220
 C   -6.491130   -1.690511    0.487661
 H    4.616294    0.825881    4.304355
 H    4.094384    1.553885    2.706737
 H    3.045872   -1.146659    3.884731
 H    2.173175    0.927332    5.087915
 H    1.727170    1.656183    3.470987
 H    2.301247    0.426955    1.485619
 H    1.552867   -0.961637    2.012878
 H    3.427524   -0.868939    0.133029
 H    4.411658   -1.103893    1.574955
 H    4.047203   -3.330487    1.172174
 H    1.781923   -4.209254    0.227048
 H    1.473786   -1.944135   -1.489388
 H    1.493366   -3.136484    2.217507
 H    3.866322   -4.521534   -0.929221
 H    2.615975   -4.068407   -2.075641
 H   -2.219217   -1.001038    0.480333
 H   -1.647152    3.017490   -0.872697
 H    1.600148    0.223941   -1.070873
 H    0.234780    3.213472   -3.237411
 H    1.551453    4.270695   -2.695379
 H   -0.083798    4.451165   -1.997947
 H    1.730554    4.622048    1.707577
 H    0.222185    3.773105    1.229544
 H    0.803556    5.194760    0.293310
 H    5.793952   -3.065396   -0.512139
 H    7.107763   -1.063954   -1.107572
 H    6.178666    0.617652   -2.680884
 H    3.964050    0.226774   -3.727870
 H    2.675526   -1.799910   -3.183758
 H   -4.225526   -0.439153   -0.308389
 H   -6.131965    1.615704   -0.309796
 H   -5.530327    2.026592    2.037241
 H   -5.825223    0.318984    2.448404
 H   -7.171235    1.351884    1.932304
 H   -7.803018    0.640356   -1.597740
 H   -9.151669   -1.312352   -2.289610
 H   -8.793799   -3.517919   -1.211414
 H   -7.085411   -3.753849    0.573355
 H   -5.755842   -1.799523    1.282328
