37 
3tsd_ligand_dft.xyz
 P   -2.874183   -1.575872   -0.035122
 O   -3.953428   -2.233270    0.714234
 O   -1.869165   -2.400606   -0.906192
 O   -1.855328   -0.669602    0.842185
 O   -3.468500   -0.487827   -1.097566
 C   -2.304233    0.551017    1.440728
 C   -1.476698    1.695787    0.900801
 O   -0.150385    1.594046    1.417745
 C    0.733930    2.285118    0.561590
 N    1.911972    1.458107    0.369981
 C    2.003771    0.108712    0.201144
 N    1.005490   -0.834234    0.236153
 N    2.640799   -2.420690   -0.221044
 C    1.320312   -2.154195    0.026777
 O    0.471538   -3.048053    0.058747
 C    3.756425   -1.533319   -0.268043
 O    4.862279   -1.965904   -0.487138
 C    3.329866   -0.166430   -0.038752
 N    4.072683    0.991741   -0.019672
 C    3.208657    1.929891    0.226244
 C   -0.040622    2.613219   -0.733737
 O   -0.422653    3.963089   -0.661798
 C   -1.264451    1.705380   -0.618591
 O   -2.344290    2.221243   -1.343821
 H   -1.033032   -2.723841   -0.454492
 H   -4.419869   -0.641824   -1.185201
 H   -3.359953    0.728578    1.217881
 H   -2.181962    0.459828    2.521811
 H   -1.933240    2.646554    1.206084
 H    1.073073    3.221403    1.017125
 H    0.071962   -0.634369    0.589256
 H    2.857098   -3.396150   -0.385690
 H    3.423796    2.985553    0.323342
 H    0.563483    2.408724   -1.626950
 H   -1.210673    4.055289   -1.218240
 H   -0.998990    0.697973   -0.959329
 H   -2.917864    1.469880   -1.556814
