70 
3tt0_ligand_dft.xyz
 O   -2.977246   -1.957379    0.637931
 C   -2.717465   -0.868542    0.168334
 N   -3.654987    0.038424   -0.212518
 C   -5.023849   -0.197083    0.020890
 C   -5.723774   -1.152504   -0.718919
Cl   -4.933552   -2.065659   -1.961558
 C   -7.088039   -1.362835   -0.482658
 O   -7.688133   -2.311022   -1.226530
 C   -9.065174   -2.553591   -1.034123
 C   -7.752199   -0.590280    0.470858
 C   -7.068512    0.386644    1.194701
 O   -7.642187    1.174022    2.124638
 C   -9.016476    1.004041    2.399774
 C   -5.701287    0.574996    0.968326
Cl   -4.843034    1.774622    1.888873
 N   -1.344087   -0.496001   -0.039596
 C   -0.382673   -1.551112    0.258348
 C   -0.848900    0.723785   -0.458264
 C    0.528266    0.897948   -0.670305
 C    0.951875    2.166688   -1.057028
 N    0.100511    3.184462   -1.267480
 C   -1.175265    2.903021   -1.057191
 N   -1.695661    1.751317   -0.652506
 N    2.267853    2.491921   -1.308373
 C    3.432501    1.791277   -0.993486
 C    3.552528    1.004861    0.156640
 C    4.745541    0.349773    0.441996
 C    5.842629    0.468666   -0.408247
 C    5.730156    1.265645   -1.548679
 C    4.544592    1.920267   -1.837339
 N    7.094964   -0.186687   -0.159437
 C    8.134803    0.681104    0.360883
 C    9.494731    0.017529    0.206264
 N    9.504194   -1.319880    0.900459
 C   10.820405   -2.046769    0.783995
 C   11.967181   -1.315373    1.459759
 C    8.356602   -2.170429    0.419469
 C    7.041336   -1.424735    0.584418
 H   -3.329887    0.985493   -0.407879
 H   -9.273986   -2.886893   -0.010013
 H   -9.664857   -1.663449   -1.261705
 H   -9.324089   -3.349946   -1.731597
 H   -8.806898   -0.746943    0.647175
 H   -9.630487    1.205025    1.513131
 H   -9.228075   -0.005346    2.773610
 H   -9.254047    1.732440    3.174823
 H    0.156788   -1.853467   -0.645669
 H    0.332213   -1.215771    1.017291
 H   -0.941526   -2.400611    0.641540
 H    1.230191    0.083897   -0.586162
 H   -1.883614    3.709804   -1.227157
 H    2.366376    3.386734   -1.768452
 H    2.724802    0.931233    0.852612
 H    4.806224   -0.240201    1.351799
 H    6.572701    1.345473   -2.229839
 H    4.461883    2.516530   -2.741159
 H    7.965145    0.948207    1.422590
 H    8.151795    1.615891   -0.203544
 H   10.285616    0.627480    0.644269
 H    9.716423   -0.179708   -0.845350
 H    9.344521   -1.137599    1.897719
 H   10.997228   -2.189639   -0.285019
 H   10.662238   -3.027904    1.238598
 H   12.244902   -0.393415    0.944153
 H   11.743890   -1.087888    2.507627
 H   12.842997   -1.968912    1.449183
 H    8.372485   -3.096484    0.998670
 H    8.550513   -2.389711   -0.632846
 H    6.241096   -2.055748    0.189701
 H    6.843225   -1.278763    1.664887
