32 
3ttn_ligand_xtb.xyz
 N    5.669715   -0.261561   -0.007966
 C    4.408235    0.531797   -0.020333
 C    3.168716   -0.367017    0.009160
 C    1.879676    0.472881    0.002413
 C    0.636337   -0.422193    0.014136
 N   -0.628689    0.377277    0.019193
 C   -1.866328   -0.453630    0.007062
 C   -3.150762    0.389411    0.010016
 C   -4.381615   -0.529125   -0.020164
 N   -5.660231    0.233250   -0.010311
 H    6.489807    0.363602   -0.030523
 H    5.743571   -0.840562    0.841441
 H    5.731858   -0.885296   -0.826079
 H    4.404652    1.148612   -0.921524
 H    4.414930    1.193292    0.848584
 H    3.185883   -0.987857    0.906620
 H    3.171147   -1.024947   -0.861658
 H    1.875339    1.102694   -0.889307
 H    1.879109    1.122685    0.879661
 H    0.640273   -1.058293    0.901902
 H    0.629033   -1.063797   -0.869675
 H   -0.624859    0.999615   -0.801612
 H   -0.629374    0.983428    0.852027
 H   -1.845892   -1.102808    0.885829
 H   -1.839316   -1.085438   -0.884131
 H   -3.164438    1.043757   -0.865015
 H   -3.182466    1.010393    0.908549
 H   -4.375816   -1.190535    0.849358
 H   -4.364029   -1.148179   -0.920244
 H   -6.461573   -0.417896   -0.033253
 H   -5.760830    0.809404    0.839180
 H   -5.748127    0.852621   -0.830288
