32 
3ttn_ligand_dft.xyz
 N    5.318122    0.977704    0.276335
 C    4.312643    0.067362   -0.393246
 C    2.919034    0.168131    0.239277
 C    1.986178   -0.874416   -0.412277
 C    0.621680   -1.090648    0.257724
 N   -0.483341   -0.164324   -0.238719
 C   -1.842166   -0.504606    0.334092
 C   -2.965306    0.372973   -0.241660
 C   -4.308386   -0.066274    0.363737
 N   -5.464408    0.741243   -0.177938
 H    6.243710    0.885114   -0.163707
 H    5.059265    1.969379    0.212011
 H    5.442873    0.756349    1.271886
 H    4.719728   -0.942745   -0.303996
 H    4.306283    0.345464   -1.449707
 H    2.529584    1.187161    0.118005
 H    2.988086   -0.034689    1.315337
 H    2.476251   -1.853526   -0.366133
 H    1.858418   -0.667202   -1.482880
 H    0.663026   -0.966177    1.342839
 H    0.261285   -2.098773    0.042445
 H   -0.520870   -0.221781   -1.263338
 H   -0.248925    0.809991   -0.019196
 H   -1.756102   -0.392853    1.418101
 H   -2.009078   -1.561081    0.107818
 H   -2.999270    0.267001   -1.333338
 H   -2.778304    1.428457   -0.008431
 H   -4.328591    0.064408    1.448323
 H   -4.535228   -1.110259    0.134328
 H   -6.351184    0.428702    0.242382
 H   -5.381152    1.744665    0.029162
 H   -5.574474    0.644901   -1.195538
