75 
3ttp_ligand_xtb.xyz
 N   -6.992772    2.256265   -0.938960
 C   -6.102213    1.217572   -0.998863
 C   -6.082044    0.240552    0.004357
 C   -5.138577   -0.764083   -0.019942
 C   -4.207299   -0.806778   -1.042180
 C   -4.209901    0.148929   -2.042734
 C   -5.153065    1.154661   -2.025784
 S   -2.978149   -2.099042   -1.034401
 O   -3.598812   -3.367974   -0.801031
 O   -2.180302   -1.955881   -2.228379
 N   -1.992170   -1.763752    0.258699
 C   -2.164593   -2.489559    1.493469
 C   -0.843337   -3.094075    1.989171
 C   -0.324073   -4.106855    0.973586
 C   -1.050632   -3.745345    3.353549
 C   -1.467186   -0.419470    0.307401
 C   -0.092836   -0.298893   -0.376911
 O   -0.197567   -0.182900   -1.771840
 C    0.693078    0.926880    0.130761
 N    2.031956    0.849180   -0.408737
 C    3.130844    0.957412    0.356748
 O    3.139897    1.166842    1.544644
 O    4.251614    0.807807   -0.400880
 C    5.475635    0.942422    0.298222
 C    5.858314   -0.303372    1.118823
 O    7.261005   -0.208237    1.255332
 C    7.776819    0.254651    0.048144
 O    8.109444   -0.812833   -0.809544
 C    7.756960   -0.457383   -2.128991
 C    6.478781    0.376015   -2.008002
 C    6.666940    1.082955   -0.661413
 C    0.045199    2.262813   -0.279146
 C   -1.025140    2.830312    1.916768
 C   -2.128944    3.137396    2.691463
 C   -3.380810    3.242579    2.108208
 C   -3.519815    3.051891    0.744612
 C   -2.413622    2.743909   -0.028346
 C   -1.156082    2.617852    0.548696
 H   -7.794476    2.149785   -0.340745
 H   -7.140129    2.793332   -1.776815
 H   -6.813963    0.282383    0.797144
 H   -5.120687   -1.529919    0.739100
 H   -3.472949    0.081161   -2.827340
 H   -5.165570    1.903141   -2.804261
 H   -2.593166   -1.833375    2.264004
 H   -2.868956   -3.294016    1.276372
 H   -0.112627   -2.284091    2.092300
 H   -0.263189   -3.652678   -0.012420
 H   -1.001688   -4.955070    0.910458
 H    0.661603   -4.466771    1.259301
 H   -1.792635   -4.537542    3.285161
 H   -1.391733   -3.014661    4.083732
 H   -0.118628   -4.176342    3.710238
 H   -2.165740    0.256550   -0.195228
 H   -1.385454   -0.108066    1.351038
 H    0.490874   -1.199230   -0.119606
 H   -0.822187   -0.866047   -2.089257
 H    0.796455    0.875660    1.218823
 H    2.118051    0.658225   -1.394357
 H    5.410520    1.807908    0.968635
 H    5.573584   -1.210065    0.568727
 H    5.417982   -0.316297    2.114178
 H    8.681313    0.834014    0.285799
 H    7.628710   -1.380232   -2.695006
 H    8.564779    0.135995   -2.583213
 H    6.361854    1.075316   -2.831820
 H    5.604562   -0.271457   -1.968786
 H    6.960264    2.123879   -0.789028
 H   -0.221793    2.200800   -1.334320
 H    0.804045    3.039761   -0.155426
 H   -0.049247    2.758937    2.374835
 H   -2.012074    3.298642    3.753198
 H   -4.243011    3.480855    2.713334
 H   -4.491034    3.141328    0.281373
 H   -2.529002    2.598476   -1.093161
