67 
3tu7_ligand_xtb.xyz
 S    0.704551   -2.226104    1.737650
 O    2.129703   -2.395715    1.749608
 O    0.158319   -1.079627    2.416551
 C   -0.023525   -3.709134    2.470841
 N    0.131760   -2.317125    0.194889
 C   -1.070463   -1.549899   -0.020616
 C   -0.769279   -0.059201   -0.185215
 O    0.066878    0.296982   -1.014983
 C   -1.792641   -2.011129   -1.300584
 C   -3.063580   -1.225154   -1.451568
 C   -4.221784   -1.623593   -0.794836
 C   -3.081527   -0.043523   -2.182077
 C   -5.371774   -0.856376   -0.862347
 C   -4.228130    0.728622   -2.245277
 C   -5.375322    0.325963   -1.582709
 N   -1.479782    0.816352    0.527004
 C   -1.437458    2.250143    0.245828
 C   -0.182740    2.926192    0.854040
 O   -0.234941    3.690399    1.795957
 C   -2.715674    2.775492    0.887321
 C   -2.836690    1.888498    2.121848
 C   -2.410070    0.516528    1.604346
 N    0.928088    2.610869    0.180642
 C    2.247677    3.053784    0.569053
 C    3.324914    2.052012    0.143827
 C    3.383795    1.915336   -1.382895
 C    4.395301    0.833827   -1.767176
 N    4.025823   -0.439856   -1.180728
 C    4.108214   -0.344567    0.268964
 C    3.099688    0.682184    0.789964
 C    3.006115   -1.200654   -1.723970
 N    2.510141   -0.822582   -2.952175
 N    2.482040   -2.245468   -1.203136
 H    0.363113   -4.553807    1.918646
 H   -1.099314   -3.643400    2.386800
 H    0.277587   -3.754044    3.509019
 H    0.878707   -2.217119   -0.523102
 H   -1.709867   -1.720166    0.846618
 H   -1.124052   -1.834882   -2.143895
 H   -1.993444   -3.080303   -1.224099
 H   -4.221510   -2.543906   -0.227370
 H   -2.187133    0.273173   -2.698140
 H   -6.265098   -1.178980   -0.347668
 H   -4.227033    1.647761   -2.813026
 H   -6.269822    0.929218   -1.629662
 H   -1.407465    2.394703   -0.839886
 H   -3.564703    2.632019    0.217363
 H   -2.619695    3.827584    1.145308
 H   -3.841250    1.874237    2.539076
 H   -2.137556    2.239179    2.879608
 H   -3.273072   -0.031958    1.208668
 H   -1.905898   -0.075598    2.370793
 H    0.853592    1.872359   -0.515710
 H    2.451195    4.028625    0.105397
 H    2.254743    3.192194    1.654757
 H    4.289625    2.444027    0.489627
 H    2.410937    1.615101   -1.774377
 H    3.662539    2.869944   -1.833873
 H    5.385757    1.092604   -1.376425
 H    4.487528    0.752738   -2.851697
 H    5.129924   -0.044321    0.522581
 H    3.911749   -1.309077    0.735210
 H    3.179630    0.756130    1.874786
 H    2.097776    0.316802    0.559749
 H    3.131258   -0.388301   -3.612426
 H    1.909493   -1.529520   -3.346017
 H    2.842512   -2.499126   -0.292129
