39 
3tu9_ligand_dft.xyz
 C    5.007103   -0.527427   -0.803545
 O    4.102229    0.117627    0.066650
 C    2.733713   -0.040785   -0.300094
 C    2.079116    1.288188    0.063228
 O    0.816251    1.392699   -0.619215
 P   -0.339336    2.326158   -0.041605
 O   -1.529543    2.266338   -0.924928
 O   -0.583633    1.949601    1.471765
 O    0.402527    3.739884    0.057446
 C    2.203915   -1.251092    0.485203
 O    2.494470   -1.056543    1.860340
 C    0.701167   -1.536975    0.432776
 O    0.399085   -2.561829    1.357551
 C    0.224850   -2.060392   -0.926138
 O    0.583871   -1.225701   -2.001086
 C   -1.275543   -2.337166   -0.926910
 O   -1.987266   -1.089651   -1.029387
 P   -2.890858   -0.490888    0.130988
 O   -2.173004   -0.135377    1.391860
 O   -3.641441    0.685078   -0.592499
 O   -4.007461   -1.605383    0.385608
 H    4.962303   -0.092059   -1.810758
 H    6.006158   -0.375892   -0.390143
 H    4.811906   -1.606030   -0.877464
 H    2.629338   -0.212839   -1.375734
 H    1.930135    1.354855    1.144892
 H    2.721023    2.105603   -0.270706
 H   -1.213763    1.171795    1.560144
 H   -0.115840    4.391944    0.547783
 H    2.728652   -2.148953    0.117568
 H    3.416922   -0.763675    1.895032
 H    0.154512   -0.624009    0.697509
 H    0.823810   -2.304419    2.187733
 H    0.728118   -3.019435   -1.096076
 H    0.138170   -0.374620   -1.871454
 H   -1.568168   -2.890215   -0.031631
 H   -1.550626   -2.902013   -1.819359
 H   -2.988170    1.401259   -0.815820
 H   -4.216194   -1.660401    1.327781
