46 
3tv6_ligand_dft.xyz
 C   37.661237  -39.821941  -10.139351
 C   37.099343  -38.942064  -11.123965
 N   35.941383  -39.206096  -11.790094
 C   35.361161  -40.326808  -11.475752
 C   35.834661  -41.278571  -10.507291
 C   36.997785  -41.032484   -9.823880
 C   38.820861  -39.150689   -9.741384
 N   38.855330  -38.015591  -10.460959
 N   37.826934  -37.842061  -11.318935
 N   35.025816  -42.419266  -10.333045
 C   35.276549  -43.493758   -9.532452
 C   34.223548  -44.575162   -9.578821
 O   36.247252  -43.596260   -8.802311
 C   33.892638  -45.265832   -8.413676
 C   32.989276  -46.328593   -8.385851
 C   32.390774  -46.725582   -9.581672
 C   32.668251  -46.045208  -10.759607
 C   33.571070  -44.997237  -10.738271
 F   33.825343  -44.357513  -11.896349
 F   34.432097  -44.899597   -7.243793
 N   32.729213  -46.978895   -7.161369
 S   31.163281  -47.140619   -6.562549
 C   30.504685  -45.462966   -6.516803
 C   31.284162  -44.468119   -5.656260
 C   31.112303  -44.653085   -4.149020
 O   30.384834  -47.863121   -7.552674
 O   31.348402  -47.651798   -5.216633
 O   39.813843  -39.378283   -8.874140
 C   39.740364  -40.594787   -8.145095
 H   34.431025  -40.551429  -12.003203
 H   37.363090  -41.740850   -9.095369
 H   34.226079  -42.482626  -10.945339
 H   31.699354  -47.559633   -9.570427
 H   32.210111  -46.333109  -11.698321
 H   33.384730  -46.775777   -6.415272
 H   30.473004  -45.152255   -7.565698
 H   29.472387  -45.584900   -6.172444
 H   32.345210  -44.499031   -5.928971
 H   30.933169  -43.470144   -5.943575
 H   31.658074  -43.873586   -3.609120
 H   30.056020  -44.579941   -3.867544
 H   31.479664  -45.626918   -3.818002
 H   40.621118  -40.612146   -7.503995
 H   38.835634  -40.625754   -7.528605
 H   39.759449  -41.456445   -8.820848
 H   39.575486  -37.311470  -10.403264
