25 
3tv8_ligand_xtb.xyz
 C    0.403115    1.695395    0.152961
 C    1.582097    0.715148    0.272460
 O    2.703239    1.415935   -0.188921
 C    1.328868   -0.573167   -0.560327
 O    2.243279   -1.578878   -0.200326
 C   -0.071878   -1.142588   -0.242368
 O   -0.172027   -1.448482    1.128019
 C   -1.141435   -0.087808   -0.521277
 N   -0.867871    1.013736    0.437207
 C   -2.574893   -0.563969   -0.257932
 O   -3.354590    0.610601   -0.163803
 H    0.392609    2.101444   -0.860912
 H    0.560015    2.521037    0.848793
 H    1.706341    0.411538    1.322712
 H    3.517911    1.010127    0.127155
 H    1.395673   -0.329534   -1.627644
 H    3.071842   -1.479731   -0.680026
 H   -0.238067   -2.037290   -0.855819
 H    0.525900   -2.081211    1.343858
 H   -1.061602    0.305809   -1.537327
 H   -1.690217    1.636729    0.421677
 H   -0.815047    0.546749    1.358468
 H   -2.609967   -1.135259    0.678538
 H   -2.903571   -1.207067   -1.079424
 H   -4.291170    0.389044   -0.181354
