60 
3twd_ligand_xtb.xyz
 C   -2.306054    4.725253    0.120884
 O   -2.707324    3.393509   -0.110486
 C   -1.752074    2.445461   -0.339644
 C   -0.389736    2.698574   -0.365514
 C    0.514567    1.665000   -0.612729
 C    0.022660    0.380212   -0.818119
 C   -1.331941    0.118386   -0.796636
 C   -2.236228    1.140018   -0.559086
 N   -3.626039    0.970944   -0.526829
 C   -4.339568   -0.175268   -0.584682
 O   -3.847371   -1.285067   -0.692655
 C   -5.841426    0.054912   -0.502200
 C   -6.651228   -1.177323   -0.927044
 C   -6.769180   -2.214267    0.192372
 O   -7.813323   -2.445809    0.738040
 O   -5.647359   -2.836485    0.520216
 S    1.165532   -0.969933   -1.138253
 O    1.829833   -0.760926   -2.386760
 O    0.442447   -2.196917   -0.986670
 N    2.286155   -0.808657    0.104639
 C    1.806096   -0.470225    1.366632
 C    2.558669    0.345689    2.213020
 C    2.050102    0.735386    3.436777
 C    0.786080    0.331005    3.834203
 C    0.042109   -0.488749    3.001791
 C    0.544256   -0.895179    1.779358
 C    3.676861   -0.887536   -0.130988
 C    4.443401   -1.734593    0.665868
 C    5.803165   -1.843380    0.466887
 C    6.432418   -1.120773   -0.548049
 C    5.655311   -0.280798   -1.345802
 C    4.295929   -0.156954   -1.136954
 N    7.804167   -1.179479   -0.708797
 O    1.853851    1.814380   -0.662191
 C    2.423876    3.068564   -0.361342
 H   -1.681589    4.804414    1.015075
 H   -1.773251    5.137376   -0.740674
 H   -3.227516    5.284275    0.274989
 H   -0.026620    3.697532   -0.195300
 H   -1.664669   -0.893766   -0.956873
 H   -4.125305    1.841541   -0.397996
 H   -6.103092    0.898871   -1.144335
 H   -6.094940    0.328160    0.526131
 H   -6.178635   -1.644642   -1.794126
 H   -7.662946   -0.873138   -1.195593
 H   -4.869584   -2.485624    0.019618
 H    3.540517    0.667559    1.899577
 H    2.644501    1.366262    4.082142
 H    0.390344    0.643252    4.788865
 H   -0.936348   -0.826470    3.309371
 H   -0.022350   -1.559217    1.148679
 H    3.960860   -2.302977    1.446969
 H    6.389471   -2.500663    1.092855
 H    6.130230    0.282482   -2.136443
 H    3.703300    0.484739   -1.765312
 H    8.256463   -1.995988   -0.329421
 H    8.153317   -0.897321   -1.610760
 H    2.121704    3.832660   -1.084196
 H    2.163120    3.390079    0.651617
 H    3.500105    2.917918   -0.425864
