50 
3tyq_ligand_dft.xyz
 C   -2.612889    1.126884    0.318166
 N   -0.246237    0.577436    0.772387
 O    0.048286    3.409977    0.249157
 C   -3.801332    0.464937    0.601649
 N    5.562566    1.113017    0.033479
 O    4.043798    1.615330    1.626943
 C   -4.825866    0.481955   -0.337184
 N   -6.072824   -0.229510   -0.031655
 O    2.116711    3.280099    1.018218
 C   -4.706684    1.138832   -1.552406
 O   -6.967249   -0.191544   -0.862347
 C   -3.515007    1.803122   -1.824884
 O   -6.142924   -0.820442    1.035901
 C   -2.477065    1.800020   -0.899913
 C    3.276915    0.539990   -0.379429
 C    1.689485   -2.242006   -0.271629
 C    0.819271   -3.311473   -0.159982
 C    1.250003   -0.949296    0.057084
 C   -0.070106   -0.759010    0.501935
 C    0.944766    1.238558    0.528840
 C    1.892071    0.336600    0.080273
 C   -0.503627   -3.085136    0.288618
 C   -0.964955   -1.829289    0.627203
 C    0.995327    2.730373    0.592625
 C   -1.478428    1.123895    1.322558
 C    4.263994    1.122765    0.510889
 C    5.958540    0.636294   -1.179206
 C    5.036663    0.112879   -2.027785
 C    3.683745    0.065938   -1.601688
 C    1.274752   -4.721756   -0.457183
 C    1.607259   -5.507246    0.817168
 H   -3.947603   -0.065375    1.536370
 H    6.238157    1.516857    0.670297
 H    2.753856    2.610626    1.386502
 H   -5.530123    1.124631   -2.255417
 H   -3.399278    2.331695   -2.765371
 H   -1.554338    2.336107   -1.098852
 H    2.713391   -2.404472   -0.600472
 H   -1.179855   -3.933120    0.365394
 H   -1.987013   -1.683248    0.959021
 H   -1.754872    0.526404    2.198366
 H   -1.277701    2.141075    1.657227
 H    7.016576    0.708609   -1.399374
 H    5.333186   -0.264768   -2.997635
 H    2.938179   -0.370151   -2.260592
 H    2.156965   -4.692774   -1.107281
 H    0.493174   -5.251245   -1.015936
 H    2.409336   -5.014189    1.376292
 H    0.734428   -5.571076    1.475710
 H    1.929060   -6.526524    0.578986
