20 
3tz4_ligand_xtb.xyz
Cl    0.728935    1.582417   -0.671578
 C    1.845253   -0.630648    0.126249
 O    2.057328   -1.436846   -0.734722
 C    0.535101    0.105933    0.333933
 O    2.761749   -0.248964    1.017644
 C   -0.659740   -0.714919   -0.120385
 C   -1.998214    0.029756   -0.075860
 C   -2.374437    0.431478    1.348305
 C   -3.085628   -0.857993   -0.677223
 H    0.460051    0.444519    1.367615
 H    3.614115   -0.679997    0.842358
 H   -0.465352   -1.059075   -1.138351
 H   -0.713478   -1.597010    0.523650
 H   -1.912004    0.935192   -0.684201
 H   -3.364479    0.880916    1.358913
 H   -2.388042   -0.439993    1.999997
 H   -1.674771    1.158559    1.751799
 H   -2.834078   -1.138272   -1.697126
 H   -4.038445   -0.334684   -0.691378
 H   -3.202031   -1.766407   -0.089934
