45 
3tzm_ligand_dft.xyz
 C    2.930032    7.911979    4.339366
 C    2.537376    7.368258    3.140341
 O    1.272848    7.061920    2.718243
 C    1.410396    6.725718    1.342802
 O    2.789143    6.490925    1.084464
 C    3.451897    7.024366    2.153502
 C    4.805234    7.209565    2.324959
 C    5.224759    7.760988    3.541454
 C    4.314472    8.114488    4.538468
 C    4.759330    8.636567    5.840050
 N    4.190623    8.132037    6.988924
 C    4.739431    8.767699    8.063997
 C    4.395189    8.475511    9.457924
 C    5.230692    8.951412   10.475623
 C    4.936787    8.688780   11.803084
 C    3.261075    7.734589    9.802828
 C    2.966039    7.476896   11.135573
 C    3.796775    7.958714   12.148241
 C    3.540501    7.711802   13.605795
 O    4.431741    7.759906   14.435568
 N    2.246679    7.404539   13.945638
 N    5.611343    9.664869    7.667689
 C    5.644234    9.603581    6.295508
 C    6.494239   10.549159    5.554604
 C    7.142537   11.580478    6.247084
 C    7.932276   12.469016    5.534640
 C    8.052303   12.313337    4.156269
 C    7.370329   11.259369    3.560192
 N    6.612620   10.391902    4.230583
 H    2.199152    8.204608    5.085856
 H    1.060415    7.563948    0.724527
 H    5.514373    6.935783    1.552480
 H    6.278020    7.940278    3.710739
 H    3.587382    7.324075    7.008523
 H    6.110693    9.522765   10.200796
 H    5.587238    9.039090   12.597528
 H    2.586735    7.363274    9.035679
 H    2.096904    6.871927   11.377528
 H    2.062506    7.365786   14.937863
 H    1.485225    7.713842   13.361829
 H    7.012651   11.661369    7.319593
 H    8.446673   13.276441    6.047713
 H    8.658450   12.986272    3.558993
 H    7.436394   11.096722    2.486068
 H    0.842289    5.817452    1.132874
