34 
3u10_ligand_xtb.xyz
 P    3.519918    0.846766   -0.120776
 O    2.662740    2.205645   -0.126419
 O    4.884428    0.969008   -0.589278
 O    3.379995    0.334026    1.387727
 C    2.121063   -0.049593    1.924662
 C    1.520860   -1.055656    0.958863
 O    0.236417   -1.535499    1.268991
 C    1.354307   -0.381901   -0.401500
 O    2.610161   -0.155684   -1.004240
 C    0.472264   -1.403273   -1.121692
 O    1.204365   -2.477598   -1.635321
 C   -0.407434   -1.905745    0.053537
 N   -1.729191   -1.358321    0.038555
 C   -2.901671   -2.036924    0.264714
 N   -3.954986   -1.287375    0.274843
 C   -3.486068   -0.014726    0.059413
 C   -4.106318    1.244691   -0.035952
 N   -5.431777    1.414734    0.077921
 N   -3.334943    2.313918   -0.255488
 C   -2.030082    2.150705   -0.376536
 N   -1.329785    1.032295   -0.309670
 C   -2.089381   -0.041280   -0.084267
 H    3.172389    2.897521   -0.546290
 H    2.322958   -0.483794    2.906425
 H    1.461498    0.817338    2.028682
 H    2.227238   -1.896965    0.850342
 H    0.790740    0.553720   -0.290796
 H   -0.146667   -0.941426   -1.902373
 H    2.020514   -2.125689   -2.016715
 H   -0.490774   -3.000200   -0.001144
 H   -2.915451   -3.099430    0.407148
 H   -5.813085    2.341758    0.021700
 H   -6.014796    0.620155    0.267341
 H   -1.458631    3.051800   -0.554944
