45 
3u2k_ligand_dft.xyz
 C    5.404131    8.617469   23.920069
Cl   -5.490322   -1.111543   24.177051
 C    4.243864    7.749356   23.570779
Cl    1.399039    6.128093   21.388327
 C    3.548425    7.605108   22.383269
Cl    3.869354    8.448191   20.913868
 C    2.529235    6.645549   22.585879
 C    2.617419    6.216880   23.897605
 N    3.660613    6.902064   24.457997
 C    1.914346    5.264461   24.782609
 O    2.289438    5.142241   25.947812
 N    0.873898    4.575560   24.260750
 C    0.144332    3.591951   25.041387
 C   -1.244852    3.370072   24.451365
 C   -2.006294    2.321003   25.256731
 N   -1.253886    1.073799   25.346020
 C    0.083232    1.217025   25.902935
 C    0.889418    2.257587   25.125461
 C   -1.916058   -0.129502   25.325014
 C   -1.320547   -1.346859   25.718548
 C   -2.054121   -2.515049   25.617462
 C   -3.361966   -2.486024   25.126072
 C   -3.847919   -1.232609   24.788099
 N   -3.186326   -0.103126   24.882793
 C   -1.374894   -3.787824   26.059660
 O   -0.161469   -3.882250   26.106491
 N   -2.206034   -4.820071   26.386794
 H    5.157892    9.298947   24.741600
 H    6.271722    8.020244   24.221218
 H    5.691229    9.219220   23.055474
 H    0.656411    4.676672   23.279463
 H    0.046215    3.999512   26.054701
 H   -1.811686    4.307477   24.448247
 H   -1.155993    3.026170   23.411950
 H   -2.194392    2.705161   26.273120
 H   -2.969736    2.107458   24.798899
 H    0.020645    1.505616   26.965110
 H    0.611710    0.266271   25.852723
 H    1.073316    1.885799   24.109918
 H    1.856527    2.409699   25.613692
 H   -0.312487   -1.418819   26.101874
 H   -3.960474   -3.375333   24.975776
 H   -1.766375   -5.637194   26.784070
 H   -3.172059   -4.655696   26.621379
 H    3.910481    6.748244   25.425939
