105 
3u51_ligand_dft.xyz
 C   -1.278622    4.096062    2.182210
 O   -0.439116    4.225589    3.069151
 C   -2.432790    3.169235    2.434694
 C   -3.321654    2.558703    1.640613
 C   -3.484196    2.672592    0.162229
 O   -3.199588    3.678236   -0.486566
 C   -5.438836   -5.845041   -1.069218
 C   -4.941865   -5.042558   -0.047016
 C   -4.274104   -3.857315   -0.346244
 C   -4.091068   -3.456778   -1.673475
 C   -4.598503   -4.269744   -2.690454
 C   -5.266923   -5.453407   -2.394618
 C   -3.373766   -2.170712   -2.011947
 C   -4.303075   -0.955037   -2.194248
 C   -5.126239   -0.541559   -0.963922
 C   -4.420290    0.314746    0.105727
 C   -3.302653   -0.460015    0.821091
 O   -3.593409   -1.281285    1.683864
 N   -3.998260    1.581992   -0.468608
 N   -2.040261   -0.191467    0.433505
 C   -0.901025   -0.828371    1.092421
 C    0.313763    0.061568    0.848996
 O    0.949146    0.591179    1.742733
 C   -0.693018   -2.268114    0.604207
 C    0.428686   -3.038923    1.313915
 C    0.258773   -3.089219    2.842461
 C   -0.983891   -3.886721    3.252183
 C   -0.923905   -5.311569    2.687929
 C   -0.708976   -5.323339    1.169788
 C    0.505303   -4.475739    0.766009
 C   -0.061296    2.314289   -1.437614
 O   -1.118231    1.740389   -1.716961
 C    1.147822    1.487928   -0.952070
 N    0.618104    0.224341   -0.481156
 C    2.200020    1.273475   -2.053513
 C    3.587825    0.935421   -1.503140
 C    3.621754   -0.304888   -0.601846
 N    4.976424   -0.668074   -0.229545
 C    5.814828   -1.276041   -1.092690
 O    5.539036   -1.547654   -2.254887
 C    7.165569   -1.618431   -0.514045
 N    7.408292   -1.323252    0.765028
 C    8.610819   -1.652826    1.231620
 C    9.562823   -2.270819    0.423760
 N    9.327312   -2.564617   -0.855573
 C    8.122083   -2.235480   -1.320344
 N   -1.211028    4.762934    1.008755
 C   -0.098908    5.651478    0.768514
 C   -0.514643    6.665771   -0.292575
 O   -1.132630    6.331861   -1.293814
 C    1.183817    4.904420    0.331340
 C    1.223157    4.443343   -1.130881
 N    0.086844    3.643208   -1.560367
 N   -0.078373    7.934275   -0.093199
 H   -2.465651    2.917824    3.491166
 H   -3.997530    1.864296    2.133904
 H   -5.955104   -6.771757   -0.836530
 H   -5.072120   -5.335461    0.990808
 H   -3.907645   -3.229740    0.462664
 H   -4.458098   -3.975602   -3.728636
 H   -5.647952   -6.074904   -3.200017
 H   -2.819634   -2.304917   -2.948746
 H   -2.631253   -1.950214   -1.243523
 H   -5.008999   -1.185296   -3.000891
 H   -3.693673   -0.115451   -2.555168
 H   -5.996976    0.036500   -1.295138
 H   -5.516742   -1.432694   -0.462410
 H   -5.166082    0.495693    0.887876
 H   -4.021186    1.690512   -1.474068
 H   -1.880800    0.513976   -0.284511
 H   -1.096246   -0.823238    2.165937
 H   -0.485706   -2.262123   -0.474254
 H   -1.649609   -2.780221    0.730727
 H    1.379485   -2.534349    1.089765
 H    0.236562   -2.080236    3.268171
 H    1.148921   -3.575098    3.265647
 H   -1.058417   -3.921709    4.345257
 H   -1.889726   -3.376973    2.897664
 H   -1.838115   -5.860814    2.941912
 H   -0.090677   -5.844411    3.168972
 H   -1.613088   -4.954463    0.668119
 H   -0.568381   -6.352621    0.819738
 H    1.415447   -4.948537    1.159673
 H    0.608084   -4.458003   -0.326484
 H    1.606607    1.975515   -0.087045
 H   -0.058478   -0.155304   -1.133041
 H    1.847634    0.471134   -2.713569
 H    2.273854    2.169458   -2.680167
 H    3.978172    1.794211   -0.940073
 H    4.267975    0.761736   -2.342640
 H    3.062391   -0.137249    0.321455
 H    3.163676   -1.152284   -1.123022
 H    5.316550   -0.507220    0.708069
 H    8.820505   -1.421512    2.272387
 H   10.540119   -2.534386    0.819746
 H    7.894108   -2.460061   -2.357264
 H   -1.938645    4.626596    0.303125
 H    0.128893    6.147338    1.718205
 H    2.046882    5.562824    0.490327
 H    1.297710    4.058053    1.016510
 H    2.148534    3.886265   -1.298034
 H    1.262673    5.309507   -1.796929
 H   -0.758881    4.160010   -1.786929
 H   -0.351760    8.638191   -0.763300
 H    0.286583    8.237000    0.795428
