37 
3u5l_ligand_xtb.xyz
Cl    1.970250    3.985617   -0.798375
 C    0.747007    2.803950   -0.496006
 C    1.098367    1.467502   -0.417654
 C    0.140696    0.488007   -0.161593
 C    0.582784   -0.922665   -0.221517
 C    1.964575   -1.227901    0.190079
 C    2.530466   -0.597385    1.297131
 C    3.811247   -0.919507    1.705501
 C    4.544334   -1.871413    1.016543
 C    3.984699   -2.510682   -0.078261
 C    2.702652   -2.196932   -0.485958
 N   -0.063734   -1.926394   -0.678622
 N   -1.355106   -1.941316   -1.068794
 C   -1.764898   -3.230809   -1.598378
 C   -2.333328   -1.293763   -0.351851
 N   -2.201127   -0.056554    0.239679
 C   -3.404086    0.089375    0.917044
 C   -3.754524    1.207576    1.823725
 N   -4.152032   -0.947594    0.716963
 N   -3.498432   -1.811047   -0.086576
 C   -1.191675    0.890997   -0.001776
 C   -1.535507    2.231652   -0.117779
 C   -0.571987    3.196391   -0.352381
 H    2.125862    1.177698   -0.569731
 H    1.959748    0.137302    1.847514
 H    4.238118   -0.426021    2.566271
 H    5.546831   -2.116503    1.334344
 H    4.551888   -3.256342   -0.615745
 H    2.256203   -2.688871   -1.335631
 H   -0.901714   -3.674477   -2.086568
 H   -2.128740   -3.889190   -0.807375
 H   -2.568219   -3.070554   -2.313933
 H   -2.861155    1.648566    2.260670
 H   -4.315555    1.980018    1.297946
 H   -4.393195    0.814279    2.610669
 H   -2.568377    2.527453   -0.042181
 H   -0.847850    4.235137   -0.433637
