44 
3u6a_ligand_xtb.xyz
 C    4.549969   -1.256885    0.252047
 N    3.476145   -0.501343    0.171695
 O    2.392851    2.778846   -0.580089
Cl    7.195951   -1.803936    0.116611
 C   -3.379284   -2.796646   -1.860807
 N   -3.618046   -1.687667   -0.967578
 O   -2.347202   -2.563070    0.678959
 C   -4.386180   -0.574152   -1.474087
 N   -6.425597    0.544869   -0.564949
 C   -5.276731    0.034275   -0.400588
 N   -4.726052   -0.013361    0.830198
 C   -3.353191   -0.392677    1.059526
 N    1.261161    0.889856    0.072305
 C   -3.163456   -0.667197    2.551811
 C   -3.053218   -1.670183    0.252660
 C   -2.358304    0.670136    0.601544
 C   -2.765269    1.958416    0.277090
 C   -1.828208    2.898556   -0.117012
 C   -0.486162    2.578903   -0.195542
 C   -0.071382    1.289049    0.127459
 C   -1.013344    0.342621    0.523657
 C    2.362944    1.609072   -0.253470
 C    3.610118    0.778826   -0.168430
 C    4.846775    1.355580   -0.441722
 C    5.981010    0.568506   -0.357542
 C    5.827874   -0.766130   -0.004346
 H    4.391394   -2.289558    0.529952
 H   -4.324236   -3.256600   -2.156467
 H   -2.771637   -3.526133   -1.328628
 H   -2.846406   -2.461022   -2.753366
 H   -3.717271    0.213660   -1.854885
 H   -5.003664   -0.926356   -2.304321
 H   -6.777354    0.506000   -1.514767
 H   -5.237058    0.433996    1.574633
 H    1.458392   -0.077014    0.315648
 H   -3.245253    0.259107    3.115940
 H   -2.185067   -1.105271    2.722302
 H   -3.918152   -1.370741    2.895603
 H   -3.808661    2.230242    0.330131
 H   -2.150864    3.898142   -0.366417
 H    0.240055    3.312750   -0.501133
 H   -0.690609   -0.659124    0.767700
 H    4.892083    2.398957   -0.711110
 H    6.960917    0.972769   -0.559346
