55 
3u7m_ligand_xtb.xyz
 C    1.662111   -0.003557   -0.048269
 N   -0.166890   -1.550765    0.363114
 O    1.472004   -0.029337   -1.241348
 C    1.106661   -1.085014    0.870076
 C    2.132097   -2.231407    1.013433
 C   -1.354844    4.269954   -0.615689
 O    5.325509   -0.976254   -1.801819
 O   -1.279025    0.084621    1.478881
 O    5.272801    0.315650    0.447153
 F   -4.247212   -2.231881   -1.707665
 C    4.544970   -0.046610   -1.721477
 C   -6.280899    0.330946   -0.154809
 C   -5.340838    0.913119    0.677754
 C   -5.915655   -0.733249   -0.963197
 C   -4.037943    0.449354    0.717840
 C   -0.603383    3.559448    0.502593
 C    0.660174    2.872240   -0.012013
 C    1.389093    2.152099    1.121824
 C    3.474244    1.702497   -0.295983
 N   -2.362920   -1.147835   -0.122663
 C   -1.272727   -0.782371    0.629739
 C   -4.616642   -1.186761   -0.916456
 C   -3.648473   -0.618548   -0.085061
 C    2.417883    1.107635    0.644768
 N    4.463410    0.717952   -0.627801
 C    2.336706   -2.990895   -0.295842
 C    1.690308   -3.180203    2.124501
 H   -0.112374   -2.009222   -0.534683
 H    0.911252   -0.656024    1.857471
 H    3.083841   -1.770639    1.300196
 H   -0.728975    5.032786   -1.074703
 H   -1.649974    3.560243   -1.385443
 H   -2.251619    4.748468   -0.229863
 H    5.783687   -0.426950    0.057476
 H    3.870216    0.273758   -2.523293
 H   -7.294578    0.698543   -0.178732
 H   -5.622010    1.742199    1.308600
 H   -6.619873   -1.212738   -1.624327
 H   -3.310626    0.901018    1.370417
 H   -0.333905    4.280641    1.277559
 H   -1.250498    2.806448    0.955895
 H    1.315142    3.615184   -0.472404
 H    0.374910    2.153563   -0.782260
 H    0.643144    1.640930    1.733943
 H    1.900783    2.880375    1.753702
 H    3.011777    2.026100   -1.228647
 H    3.972968    2.546430    0.187553
 H   -2.245642   -1.913478   -0.772531
 H    2.925453    0.699479    1.523925
 H    2.504149   -2.309975   -1.127054
 H    1.475953   -3.617384   -0.519578
 H    3.207439   -3.636455   -0.213866
 H    1.634861   -2.660313    3.077681
 H    2.397621   -4.000160    2.218680
 H    0.709194   -3.590865    1.899394
