57 
3u7n_ligand_dft.xyz
 C    1.737039    0.036484    0.011065
 N    0.253329   -1.848452    0.487716
 O    1.423244    0.007776   -1.164190
 C    1.460128   -1.164136    0.914901
 C    2.691443   -2.102066    0.945429
 C   -2.071029    3.734984    0.138437
 C   -7.251084    0.181284   -0.916246
 O    4.992791   -0.451953   -2.297483
 O   -0.998246   -0.177968    1.430800
 O    5.137414    0.643330    0.029792
 C    4.238988    0.492450   -2.089146
 C   -4.980945    0.509689    0.174828
 C   -3.688100    0.086537    0.434018
 C   -5.314679   -1.436368   -1.128940
 C   -0.941316    3.307081    1.073075
 C    0.222077    2.654174    0.326265
 C    1.297129    2.135052    1.284023
 C    3.238495    2.007953   -0.381723
 N   -4.073437   -1.870916   -0.905422
 N   -1.997716   -1.668845    0.001816
 C   -0.927848   -1.148208    0.688951
 C   -5.839364   -0.251518   -0.623258
 C   -3.279651   -1.122996   -0.141337
 C    2.392052    1.248890    0.641282
 N    4.295499    1.194314   -0.935957
 C    2.544450   -3.126738    2.072307
 C    2.960827   -2.791173   -0.396032
 H    0.340970   -2.252043   -0.437048
 H    1.284120   -0.800087    1.930162
 H    3.555331   -1.459895    1.166534
 H   -1.716823    4.451271   -0.612058
 H   -2.889077    4.208587    0.691745
 H   -2.482185    2.869272   -0.393870
 H   -7.763743   -0.544593   -1.554444
 H   -7.833343    0.285273    0.006103
 H   -7.272468    1.149826   -1.428110
 H    5.547789   -0.087286   -0.483523
 H    3.494205    0.868331   -2.801390
 H   -5.328474    1.446540    0.604151
 H   -3.012465    0.652490    1.058983
 H   -5.929373   -2.079926   -1.756832
 H   -0.578339    4.174196    1.641338
 H   -1.327016    2.588493    1.807136
 H   -0.171968    1.825324   -0.271159
 H    0.651444    3.375598   -0.383069
 H    0.804157    1.550204    2.067749
 H    1.795396    2.977378    1.782078
 H    2.626793    2.333993   -1.226756
 H    3.683009    2.893157    0.084678
 H   -1.888607   -2.538156   -0.502626
 H    3.052009    0.907068    1.446493
 H    1.656216   -3.746754    1.912278
 H    2.443481   -2.637307    3.046907
 H    3.418852   -3.784601    2.110561
 H    3.051351   -2.081471   -1.222456
 H    2.172226   -3.514345   -0.638184
 H    3.899503   -3.350989   -0.341197
