47 
3u81_ligand_xtb.xyz
 N    2.885649    0.214524   -1.136111
 C    3.028458   -0.700312    0.021891
 C    2.431757   -2.082531   -0.271443
 C    0.919677   -2.154903   -0.108199
 S    0.010829   -1.076732   -1.293072
 C    4.542408   -0.832076    0.242054
 O    4.852120   -1.466792    1.344240
 O    5.313348   -0.389444   -0.568614
 C   -1.532911   -2.006283   -1.505025
 C   -2.593103   -1.687000   -0.451028
 O   -2.026731   -1.586794    0.849062
 C   -3.365204   -0.382247   -0.714305
 O   -4.562102   -0.699834   -1.363814
 C   -3.602648    0.178903    0.709363
 O   -4.791881   -0.294565    1.258030
 C   -2.399780   -0.384387    1.480240
 N   -1.249842    0.502888    1.465800
 C   -0.093107    0.212050    2.134951
 N    0.943069    0.888841    1.742652
 C    0.464043    1.710267    0.752687
 C    1.059843    2.597314   -0.141052
 N    2.452697    2.724083   -0.230790
 N    0.316013    3.221745   -1.036273
 C   -0.986702    2.976330   -1.069811
 N   -1.658064    2.112977   -0.334459
 C   -0.918442    1.479764    0.568997
 H    3.779068    0.144843   -1.661340
 H    2.769732    1.248590   -0.822891
 H    2.083118   -0.055355   -1.718287
 H    2.549776   -0.265735    0.910037
 H    2.713459   -2.390309   -1.280969
 H    2.865553   -2.796295    0.431738
 H    0.587117   -3.172527   -0.305468
 H    0.619820   -1.874443    0.899491
 H    5.813014   -1.558682    1.467812
 H   -1.265859   -3.061982   -1.481263
 H   -1.913178   -1.753196   -2.494199
 H   -3.320698   -2.512178   -0.452011
 H   -2.756983    0.323744   -1.294205
 H   -5.003882    0.109201   -1.649292
 H   -3.597814    1.274497    0.725551
 H   -5.259427   -0.811941    0.581737
 H   -2.658245   -0.605623    2.521500
 H   -0.067977   -0.525555    2.913728
 H    2.903804    2.766229    0.677003
 H    2.711639    3.509409   -0.820401
 H   -1.555711    3.529735   -1.802006
