29 
3u8m_ligand_dft.xyz
 C   -0.431973   -1.220331   -0.376013
 C    0.404450   -0.126273   -0.160510
 C   -0.204622    1.095571    0.152252
 C   -1.582065    1.171111    0.232218
 C   -2.311833   -0.000526    0.012117
 N   -1.761477   -1.159087   -0.279076
Br   -4.195654    0.058665    0.128689
 N    1.823482   -0.210642   -0.230017
 C    2.400825   -1.540406   -0.199571
 C    3.890579   -1.466558    0.164839
 N    4.142924   -0.285094    1.070502
 C    4.598092    0.967613    0.348565
 C    3.439510    1.666286   -0.354528
 C    2.496733    0.739405   -1.130480
 H   -0.036818   -2.196453   -0.644522
 H    0.394791    1.981760    0.341375
 H   -2.084724    2.100456    0.470984
 H    2.317944   -2.088444   -1.150793
 H    1.872098   -2.120227    0.562324
 H    4.529423   -1.334088   -0.709114
 H    4.209033   -2.370923    0.685546
 H    4.830317   -0.531427    1.785605
 H    3.251370   -0.068023    1.537914
 H    5.378687    0.647827   -0.345347
 H    5.050261    1.619114    1.099283
 H    3.875342    2.410530   -1.028995
 H    2.849980    2.216408    0.386985
 H    1.744479    1.349137   -1.635072
 H    3.033039    0.199506   -1.923487
