29 
3u8m_ligand_xtb.xyz
 C   -0.425540   -1.242113   -0.338255
 C    0.425181   -0.140402   -0.233473
 C   -0.175795    1.103228   -0.002327
 C   -1.546977    1.193619    0.115477
 C   -2.283495    0.018452    0.001452
 N   -1.733806   -1.153351   -0.217484
Br   -4.170595    0.052448    0.157705
 N    1.828656   -0.232156   -0.300598
 C    2.425729   -1.551672   -0.303731
 C    3.885195   -1.449831    0.176402
 N    4.020543   -0.291305    1.100996
 C    4.523805    0.955309    0.452569
 C    3.382803    1.684880   -0.245470
 C    2.525278    0.757911   -1.116892
 H   -0.066961   -2.240469   -0.541675
 H    0.420384    1.998729    0.085448
 H   -2.036370    2.137208    0.291774
 H    2.406611   -2.035166   -1.289733
 H    1.860863   -2.174854    0.392098
 H    4.569431   -1.313394   -0.660966
 H    4.164966   -2.370122    0.689345
 H    4.610263   -0.534616    1.900410
 H    3.056916   -0.082497    1.421125
 H    5.311060    0.685451   -0.253013
 H    4.959758    1.601027    1.216535
 H    3.802589    2.476165   -0.865417
 H    2.744578    2.155706    0.504158
 H    1.796268    1.363997   -1.657990
 H    3.145609    0.258547   -1.866679
