36 
3u8n_ligand_xtb.xyz
 C    3.067561   -1.667737   -0.153190
 C    4.489848   -1.294029    0.301926
 N    4.425044   -0.047281    1.111554
 C    4.742795    1.194661    0.349039
 C    3.512942    1.668297   -0.416574
 C    2.814328    0.537361   -1.183651
 N    2.272814   -0.460565   -0.264366
 C   -1.828231   -0.876579   -0.028321
 N   -1.090197   -1.945122   -0.126350
 C    0.223174   -1.832995   -0.228750
 C    0.867695   -0.600947   -0.221000
 C    0.075597    0.550222   -0.113666
 C   -1.305202    0.435131   -0.022384
Br   -3.696106   -1.101689    0.109998
 O   -2.186321    1.430495    0.077653
 C   -1.752424    2.780820    0.061420
 C   -2.991082    3.655523    0.146980
 H    2.602055   -2.302652    0.603006
 H    3.126570   -2.237650   -1.089840
 H    5.149258   -1.129159   -0.549954
 H    4.909333   -2.105187    0.896776
 H    5.020543   -0.118841    1.939517
 H    3.427393    0.034665    1.388598
 H    5.573283    0.985314   -0.326950
 H    5.061855    1.969368    1.048135
 H    3.814861    2.446873   -1.115907
 H    2.802897    2.109912    0.284595
 H    3.509352    0.068165   -1.886026
 H    2.004368    0.966189   -1.776409
 H    0.740228   -2.773519   -0.333944
 H    0.532790    1.527227   -0.103181
 H   -1.201207    2.982551   -0.867263
 H   -1.089429    2.967162    0.917737
 H   -3.646437    3.451942   -0.694761
 H   -3.532831    3.442037    1.063739
 H   -2.706215    4.703177    0.134140
