54 
3u8w_ligand_dft.xyz
 C   -8.937517   -1.340420   -0.625314
 C   -8.319607   -2.017985    0.568240
 C   -7.479375   -1.705908   -0.633354
 N   -6.532908   -0.636592   -0.538283
 C   -5.330542   -0.823183    0.093632
 O   -5.043499   -1.863094    0.662832
 C   -4.385173    0.342304    0.045919
 C   -3.026419    0.076713    0.207745
 C   -4.795853    1.663454   -0.119379
 C   -3.856878    2.688629   -0.131801
 C   -2.492919    2.434193    0.005790
 C   -1.506555    3.571960   -0.003792
 C   -2.081991    1.098617    0.174017
 C   -0.653034    0.739514    0.371612
 C   -0.206129    0.225415    1.534495
 C    0.281168    0.966529   -0.755810
 O   -0.054440    1.506624   -1.798204
 N    1.606645    0.553610   -0.596461
 C    2.613090    1.081873   -1.517942
 C    3.242406    2.373822   -1.008316
 N    2.019213    0.024066    0.610739
 C    1.167726   -0.141582    1.667993
 N    1.803480   -0.693248    2.682018
 N    3.077206   -0.902477    2.287398
 C    3.214454   -0.493873    1.040164
 C    4.473713   -0.634958    0.290399
 C    4.679349   -1.640015   -0.662185
Cl    3.362693   -2.703515   -1.071453
 C    5.900832   -1.796733   -1.305186
 C    6.951146   -0.942084   -0.983942
 C    6.788981    0.062691   -0.037921
 C    5.557426    0.191854    0.582085
 F    5.385419    1.169938    1.476781
 H   -9.188031   -0.287783   -0.530529
 H   -9.605704   -1.909680   -1.263433
 H   -8.554006   -3.059739    0.758499
 H   -8.142932   -1.419313    1.455099
 H   -7.168596   -2.547302   -1.249533
 H   -6.592457    0.095516   -1.230569
 H   -2.715573   -0.952906    0.355967
 H   -5.851559    1.908779   -0.196706
 H   -4.192518    3.716938   -0.236272
 H   -0.987004    3.614756   -0.965870
 H   -2.009712    4.528084    0.164149
 H   -0.746703    3.447607    0.775603
 H   -0.858317    0.070790    2.387003
 H    2.066366    1.256471   -2.442950
 H    3.357826    0.311220   -1.711311
 H    2.479555    3.152183   -0.912860
 H    3.727387    2.241103   -0.037453
 H    3.998809    2.718936   -1.719565
 H    6.025660   -2.583020   -2.040242
 H    7.908464   -1.062527   -1.480141
 H    7.592746    0.739501    0.227007
