56 
3ud7_ligand_dft.xyz
 C   -1.524110   -0.582049    1.034240
 C   -1.355797   -1.933238    0.306268
 N    0.058153   -2.252402    0.096129
 S    0.889183   -3.158754    1.148391
 O    0.807627   -2.268313    2.514110
 O    0.208251   -4.399040    1.418415
 O    2.276141   -3.163042    0.714980
 C   -2.034590   -1.930680   -1.066611
 O   -2.106025   -3.225747   -1.614272
 C   -3.459453   -1.404847   -0.959286
 C   -3.394084   -0.015871   -0.331058
 O   -2.844657   -0.134912    0.984247
 C   -4.749853    0.662429   -0.213137
 O   -4.653168    2.064649    0.019750
 O   -4.044372   -1.304158   -2.233441
 S    3.105166   -0.605946   -1.525430
 C    1.884484    2.477816   -0.536576
 O    2.479085    3.491568    0.234774
 C    2.228273    1.171764    0.194890
 O    1.903598    0.054129   -0.655972
 C    1.423234    1.040041    1.493881
 O    1.930338    1.912817    2.474410
 C   -0.067030    1.327269    1.244096
 O   -0.627164    0.307512    0.429647
 C   -0.226885    2.660638    0.509620
 O    0.508518    2.670028   -0.695264
 C   -1.694801    2.867921    0.180872
 C    2.399054    4.780400   -0.356805
 O   -2.145567    2.977461   -0.937972
 O   -2.415914    2.849159    1.295682
 O    2.426226   -1.586943   -2.326585
 O    3.927676    0.436291   -2.073691
 O    3.961691   -1.300480   -0.385288
 H   -1.294934   -0.692917    2.098851
 H   -1.809426   -2.727782    0.904994
 H    0.601541   -1.463328   -0.263379
 H    0.925132   -2.860572    3.276128
 H   -1.480182   -1.255087   -1.736351
 H   -1.203297   -3.530680   -1.776020
 H   -4.041028   -2.074569   -0.304125
 H   -2.741140    0.607904   -0.954019
 H   -5.296932    0.244860    0.635389
 H   -5.317416    0.471873   -1.129760
 H   -4.195209    2.460628   -0.741885
 H   -3.861883   -2.141233   -2.682765
 H    2.291446    2.468386   -1.553097
 H    3.294740    1.163079    0.433157
 H    1.528087    0.021501    1.878811
 H    2.201779    2.733871    2.032804
 H   -0.581202    1.388181    2.207324
 H    0.096485    3.467371    1.182002
 H    2.911642    5.465490    0.318889
 H    2.901823    4.781739   -1.331459
 H    1.357981    5.091963   -0.488995
 H   -3.357556    2.655473    1.045657
 H    3.443967   -2.051508   -0.003059
