64 
3uda_ligand_dft.xyz
 N    1.885549   -0.635008    1.395463
 C   -0.506345   -0.481764    1.750715
 S    3.329847   -1.238990    1.867458
 C    0.664174   -1.416042    1.405660
 S   -5.496291   -0.997430   -0.184932
 C    0.370173   -2.076030    0.062533
 O    1.417543   -3.040687   -0.176508
 S    2.192299   -3.010072   -1.587926
 C   -0.975470   -2.791783    0.064422
 O   -1.318697   -3.263271   -1.209930
 C   -2.037748   -1.764236    0.468078
 O   -1.714365   -1.177600    1.725257
 C   -3.410628   -2.383608    0.612772
 O   -4.341442   -1.314987    0.878497
 O    3.126425   -1.975198    3.084084
 O    4.080295    0.145131    2.148256
 O    4.105617   -1.861208    0.788811
 O   -6.411578   -2.092695   -0.303192
 O   -5.935669    0.325033    0.232656
 O   -4.707551   -0.889755   -1.545986
 O    2.378946   -1.616301   -1.968487
 O    1.555810   -3.906155   -2.510438
 O    3.533965   -3.651872   -1.106059
 S    3.198469    1.903844   -1.225988
 C    0.251495    3.494467   -0.898238
 O   -0.045823    4.801411   -0.484189
 C    1.234261    2.962562    0.156045
 O    1.849899    1.749385   -0.320961
 C    0.518269    2.665214    1.484881
 O    0.238939    3.866389    2.158581
 C   -0.781369    1.865647    1.260596
 O   -0.471010    0.557157    0.810671
 C   -1.619498    2.559354    0.183583
 O   -0.892944    2.696697   -1.016572
 C   -2.880974    1.773963   -0.116958
 C   -0.837069    5.535312   -1.409670
 O   -3.037246    1.129462   -1.138386
 O   -3.744019    1.880148    0.869339
 O    2.808588    2.041989   -2.603588
 O    4.077723    2.840527   -0.580441
 O    3.778076    0.460941   -0.935480
 H    1.936973    0.110524    0.702322
 H   -0.395795   -0.099526    2.769978
 H    0.743280   -2.174955    2.188749
 H    0.377238   -1.322635   -0.730930
 H   -0.943959   -3.602183    0.810361
 H   -0.657197   -3.902761   -1.510592
 H   -2.077194   -0.992863   -0.309354
 H   -3.453133   -3.052017    1.474959
 H   -3.674919   -2.929346   -0.295211
 H    4.720679    0.294873    1.429980
 H   -4.125754   -0.075822   -1.513635
 H    3.890705   -3.102324   -0.356151
 H    0.699025    3.487341   -1.898289
 H    2.011820    3.707113    0.344216
 H    1.187857    2.076203    2.120152
 H    0.000698    4.536722    1.498168
 H   -1.348428    1.839456    2.197424
 H   -1.926456    3.536899    0.577063
 H   -0.970783    6.529221   -0.982553
 H   -0.319306    5.614859   -2.372901
 H   -1.811175    5.059890   -1.562790
 H   -4.561003    1.349149    0.689392
 H    3.321305   -0.255056   -1.450410
