64 
3uda_ligand_xtb.xyz
 N    1.920433   -0.895892    1.406872
 C   -0.446476   -0.431379    1.904927
 S    3.211057   -1.913499    1.359410
 C    0.615524   -1.484977    1.519425
 S   -5.349874   -0.665102   -0.297462
 C    0.160507   -2.089247    0.189549
 O    1.175449   -2.976007   -0.263774
 S    1.636419   -2.566527   -1.730744
 C   -1.208170   -2.760872    0.321369
 O   -1.668582   -3.335927   -0.864627
 C   -2.147411   -1.615084    0.767798
 O   -1.703009   -1.037352    1.990662
 C   -3.603091   -2.034596    0.966423
 O   -4.399106   -0.866394    0.955537
 O    2.994489   -2.927846    2.321138
 O    4.312972   -0.920972    1.886164
 O    3.658020   -2.328143    0.052086
 O   -6.373740   -1.636596   -0.310868
 O   -5.705493    0.723661   -0.215666
 O   -4.432483   -0.898389   -1.520530
 O    2.077990   -1.200725   -1.715401
 O    0.562024   -2.851808   -2.610451
 O    2.791384   -3.543287   -1.965454
 S    3.385306    1.721598   -0.793244
 C    0.612869    3.389694   -0.759784
 O    0.374544    4.736962   -0.447448
 C    1.454589    2.810260    0.394026
 O    2.011198    1.569780    0.018035
 C    0.600956    2.647881    1.665824
 O    0.343924    3.881805    2.262840
 C   -0.709879    1.891054    1.326615
 O   -0.414631    0.565158    0.925503
 C   -1.410020    2.616117    0.158612
 O   -0.577347    2.689960   -0.977732
 C   -2.683516    1.862208   -0.220931
 C   -0.091494    5.504993   -1.550209
 O   -2.710942    1.025904   -1.096971
 O   -3.698783    2.209895    0.515392
 O    3.112502    2.089227   -2.133324
 O    4.252306    2.549947   -0.035037
 O    3.880551    0.258798   -0.658487
 H    1.948690   -0.131814    0.742365
 H   -0.246509   -0.027242    2.904996
 H    0.686217   -2.263278    2.284110
 H    0.085492   -1.276601   -0.545004
 H   -1.168259   -3.539016    1.097225
 H   -1.041848   -3.196074   -1.594758
 H   -2.120434   -0.857357   -0.024716
 H   -3.726023   -2.512463    1.940526
 H   -3.912955   -2.703860    0.161908
 H    4.615499   -0.357186    1.161867
 H   -3.764183   -0.174520   -1.578861
 H    3.438082   -3.343493   -1.250566
 H    1.177627    3.283257   -1.697363
 H    2.278679    3.504641    0.604194
 H    1.166077    2.047442    2.389359
 H    0.192957    4.546792    1.573595
 H   -1.374480    1.903702    2.199922
 H   -1.694538    3.621244    0.506194
 H   -0.278718    6.502577   -1.160356
 H    0.670520    5.543487   -2.332290
 H   -1.011058    5.081085   -1.959455
 H   -4.544419    1.696227    0.289234
 H    3.281789   -0.357326   -1.162152
