44 
3udk_ligand_dft.xyz
 C    5.150017   -0.871145    1.453195
 C    5.247514   -1.939433    0.564267
 C    4.100978    0.044516    1.346649
 C    4.309483   -2.127695   -0.453336
 C    3.169028   -0.129364    0.337787
 C    3.282174   -1.207194   -0.544536
 C    1.413736   -0.096596   -1.268978
 C   -1.453602    1.566431    0.081651
 C   -3.180941   -0.840284   -0.748930
 C   -4.075024   -0.413418    1.554210
 C    0.826185    0.710457    1.057549
 C    2.109705    2.125599   -0.385846
 C   -4.536529   -1.482604   -1.062645
 C   -5.368321   -1.089129    1.082811
 C   -0.069950    1.896114    0.650771
 C   -3.371967    0.191859    0.353084
 C    1.933096    0.648155   -0.020533
 N    2.220315   -1.165512   -1.471765
 N    0.685959    2.587634   -0.461397
 O    0.453240    0.260542   -1.935681
 O   -1.863170    2.127577   -0.907499
 O   -5.109618   -2.054428    0.089992
 O   -2.064686    0.668705    0.815841
 H    5.892621   -0.750864    2.234197
 H    6.066185   -2.644559    0.662082
 H    4.024817    0.871641    2.047737
 H    4.389306   -2.962070   -1.141989
 H   -2.492138   -1.615649   -0.394345
 H   -2.756322   -0.379452   -1.645965
 H   -4.296806    0.352575    2.304366
 H   -3.424208   -1.166501    2.011803
 H    1.283434    0.894616    2.032636
 H    0.253772   -0.215506    1.125502
 H    2.617414    2.680023    0.406867
 H    2.602826    2.306038   -1.341973
 H   -5.218175   -0.731415   -1.495568
 H   -4.418784   -2.289070   -1.788758
 H   -5.847988   -1.612001    1.912162
 H   -6.074276   -0.331243    0.703723
 H   -0.195061    2.607335    1.470722
 H   -3.916846    1.061475   -0.026851
 H    2.089340   -1.807370   -2.241191
 H    0.575891    3.603134   -0.445880
 H    0.261442    2.237223   -1.341395
