47 
3udr_ligand_dft.xyz
 C   -4.051049    1.095252    0.324928
 C    5.523677   -0.749558    1.537423
 C    5.772722   -1.711944    0.561280
 C    4.398534    0.072922    1.449375
 C    4.915428   -1.883698   -0.527860
 C    3.545006   -0.085000    0.370639
 C    3.810787   -1.055821   -0.598889
 C    1.888063   -0.053579   -1.337563
 C   -1.213376    1.278669    0.037380
 C   -4.941292   -2.409723   -0.107255
 C   -4.503537   -1.490544   -1.249781
 C   -4.964694   -1.659440    1.226755
 C   -3.144889   -0.838170   -0.963394
 C   -3.607995   -1.012039    1.521129
 C    1.093195    0.476369    1.005810
 C    2.326854    2.126569   -0.222625
 C    0.133276    1.636241    0.667779
 C   -3.172194   -0.089723    0.375549
 C    2.264488    0.612146    0.003657
 N   -4.775113    1.997015    0.318511
 N    2.803740   -1.019347   -1.585930
 N    0.872979    2.463714   -0.354563
 O    0.934233    0.278066   -2.026890
 O   -1.607061    1.838590   -0.954012
 O   -1.825483    0.355434    0.754905
 H    6.207778   -0.639027    2.371497
 H    6.650506   -2.343928    0.645281
 H    4.204760    0.818820    2.215854
 H    5.114234   -2.635902   -1.283730
 H   -4.246844   -3.258066   -0.035847
 H   -5.930191   -2.826922   -0.319286
 H   -5.256572   -0.708038   -1.407843
 H   -4.430213   -2.047554   -2.188589
 H   -5.743554   -0.887042    1.207256
 H   -5.215531   -2.338176    2.047193
 H   -2.858903   -0.157732   -1.767664
 H   -2.369398   -1.609496   -0.875509
 H   -3.630455   -0.445171    2.456577
 H   -2.835637   -1.785063    1.614839
 H    0.594003   -0.490955    0.934729
 H    1.473108    0.583686    2.024261
 H    2.856304    2.433867   -1.125494
 H    2.732940    2.650936    0.645477
 H   -0.058769    2.264081    1.541343
 H    2.780207   -1.589583   -2.419846
 H    0.664403    3.461797   -0.285680
 H    0.535054    2.129516   -1.278973
