44 
3uev_ligand_dft.xyz
 C    5.567994    1.239169    0.034348
 O    4.804271    2.162283    0.128427
 O    6.455678    1.200070   -0.988527
 C    5.606963    0.052930    0.981994
 C    5.241646   -1.273095    0.289668
 C    3.928278   -1.226769   -0.498217
 C    2.714976   -0.803398    0.331547
 C    1.403034   -0.916563   -0.444496
 C    0.187090   -0.465677    0.364132
 C   -1.126846   -0.579221   -0.408375
 C   -2.342946   -0.125713    0.398883
 C   -3.657519   -0.240318   -0.372499
 C   -4.873603    0.214193    0.434304
 C   -6.188552    0.098210   -0.336147
 C   -7.405508    0.552984    0.470060
 C   -8.714252    0.431863   -0.308556
 H    6.997696    0.402435   -0.927469
 H    4.907182    0.272184    1.790109
 H    6.607960   -0.023718    1.426166
 H    5.182290   -2.048534    1.062662
 H    6.053020   -1.583574   -0.383537
 H    3.748630   -2.221439   -0.926401
 H    4.037004   -0.542350   -1.350790
 H    2.841581    0.234579    0.663805
 H    2.657121   -1.422628    1.238930
 H    1.258790   -1.956588   -0.770833
 H    1.473200   -0.313318   -1.360470
 H    0.331991    0.575431    0.684627
 H    0.120166   -1.063501    1.284501
 H   -1.271628   -1.620864   -0.729143
 H   -1.059078    0.017623   -1.328985
 H   -2.198490    0.916238    0.717954
 H   -2.409729   -0.721056    1.320771
 H   -3.802063   -1.282537   -0.691318
 H   -3.590508    0.354544   -1.294546
 H   -4.729388    1.256737    0.751923
 H   -4.939753   -0.379739    1.357146
 H   -6.333351   -0.944434   -0.653834
 H   -6.122923    0.691945   -1.259214
 H   -7.260530    1.594852    0.785743
 H   -7.469928   -0.040266    1.392103
 H   -8.686654    1.040510   -1.219826
 H   -8.897591   -0.606269   -0.609153
 H   -9.569133    0.763346    0.289998
