50 
3uew_ligand_xtb.xyz
 C    7.673069   -1.201859    0.164768
 O    8.067710   -2.025588   -0.606439
 O    8.522434   -0.320142    0.726605
 C    6.222634   -1.035214    0.571941
 C    5.623163    0.214773   -0.085230
 C    4.165169    0.417383    0.321420
 C    3.560148    1.645568   -0.355415
 C    2.124500    1.932777    0.085216
 C    1.122045    0.880445   -0.384159
 C   -0.312390    1.271953   -0.037234
 C   -1.323186    0.227199   -0.503727
 C   -2.756027    0.623086   -0.156221
 C   -3.770551   -0.419661   -0.618790
 C   -5.202719   -0.019311   -0.272010
 C   -6.210984   -1.074220   -0.722361
 C   -7.666277   -0.657549   -0.508180
 C   -8.055398   -0.532554    0.963434
 C   -9.544497   -0.252443    1.127033
 H    8.073713    0.288882    1.327612
 H    6.150620   -0.956865    1.660463
 H    5.672706   -1.918877    0.247961
 H    5.685944    0.107514   -1.169907
 H    6.200275    1.102101    0.191662
 H    4.102079    0.535874    1.406171
 H    3.595674   -0.471677    0.049050
 H    3.583246    1.507598   -1.438565
 H    4.178384    2.516196   -0.121291
 H    1.825848    2.902653   -0.319955
 H    2.087979    2.007216    1.174683
 H    1.347435   -0.081201    0.079907
 H    1.209901    0.757206   -1.466110
 H   -0.547406    2.232382   -0.502227
 H   -0.399582    1.400236    1.044422
 H   -1.091411   -0.733909   -0.038436
 H   -1.236422    0.098664   -1.585263
 H   -2.987753    1.583278   -0.623387
 H   -2.841155    0.754368    0.925253
 H   -3.541156   -1.379548   -0.149733
 H   -3.683451   -0.552797   -1.699877
 H   -5.437480    0.932830   -0.754025
 H   -5.277642    0.126409    0.806938
 H   -6.020521   -2.007009   -0.186038
 H   -6.058315   -1.270491   -1.786838
 H   -8.313569   -1.403364   -0.976867
 H   -7.846267    0.295970   -1.010545
 H   -7.488141    0.275641    1.427794
 H   -7.802082   -1.459989    1.482429
 H   -9.815647    0.672839    0.622984
 H  -10.134780   -1.059742    0.698459
 H   -9.804377   -0.158804    2.179040
