56 
3ug2_ligand_dft.xyz
 C   -4.782377   -0.727111   -1.005942
 C   -5.477456   -1.247807   -2.284543
 O   -6.879294   -1.199895   -2.107358
 C   -7.308622   -2.195551   -1.203751
 C   -6.471650   -2.125348    0.099166
 N   -5.789104   -0.791454    0.111586
 C   -5.284237   -0.341762    1.459835
 C   -4.228669   -1.247452    2.110125
 C   -2.841959   -0.621694    2.108166
 O   -2.413662   -0.526763    0.755893
 C   -1.476187    0.449295    0.500681
 C   -1.913488    1.786597    0.283678
 C   -0.990691    2.759240   -0.008222
 O   -3.257956    1.990272    0.381151
 C   -3.721426    3.326383    0.234204
 C   -0.149426    0.125343    0.410395
 C    0.816633    1.110485    0.103869
 C    0.386442    2.440073   -0.102144
 N    1.247272    3.454683   -0.399604
 C    2.507565    3.112942   -0.481988
 N    3.052798    1.890857   -0.310589
 C    2.240182    0.891718   -0.021608
 N    2.743250   -0.359042    0.161137
 C    4.067441   -0.846867    0.101720
 C    5.181545   -0.062038   -0.201475
 C    6.442078   -0.649065   -0.234952
Cl    7.832154    0.316656   -0.610814
 C    6.599559   -2.004692    0.029769
 F    7.809470   -2.560197   -0.004202
 C    5.496255   -2.787611    0.331261
 C    4.236915   -2.210745    0.366906
 H   -4.464139    0.314299   -1.074437
 H   -3.915198   -1.315885   -0.709033
 H   -5.155129   -2.271020   -2.518324
 H   -5.238950   -0.609905   -3.135486
 H   -7.223000   -3.195856   -1.646175
 H   -8.361604   -1.989126   -1.005189
 H   -5.692148   -2.887775    0.137636
 H   -7.089944   -2.210008    0.994873
 H   -6.512768   -0.117792   -0.158629
 H   -6.179345   -0.265817    2.082053
 H   -4.876544    0.658940    1.297629
 H   -4.176141   -2.226994    1.622918
 H   -4.521349   -1.440962    3.146270
 H   -2.141267   -1.242358    2.679442
 H   -2.870610    0.373283    2.568618
 H   -1.258934    3.793573   -0.183726
 H   -3.277109    3.981680    0.990416
 H   -3.497686    3.713153   -0.765533
 H   -4.802272    3.288704    0.376765
 H    0.107484   -0.916347    0.578111
 H    3.216456    3.902890   -0.717838
 H    2.069493   -1.073758    0.381991
 H    5.068886    0.991746   -0.407450
 H    5.639041   -3.842605    0.535368
 H    3.378160   -2.833656    0.605287
