47 
3uhm_ligand_dft.xyz
 N   -0.570175   -0.444174   -0.344433
 C   -5.463673    0.843679    0.831423
 C   -4.876916   -0.150735    0.040146
 C   -5.717951   -1.006219   -0.682133
 C   -3.401220   -0.291681   -0.043568
 C   -2.806912   -1.482615   -0.128038
 C   -1.086128    0.796838   -0.231095
 C    1.600961   -0.279977    0.820459
 C    3.430898    1.372421   -0.002362
 C    3.679176    0.175162    2.153333
 C   -7.100291   -0.887405   -0.597276
 C   -7.670444    0.096901    0.205313
 C   -6.846563    0.962627    0.918014
 C   -1.333425   -1.680901   -0.261865
 C   -2.576133    0.966515   -0.033514
 O   -0.374046    1.805421   -0.269934
 C    0.875000   -0.569119   -0.505933
 C    3.095961    0.075279    0.736304
 S    3.912635   -1.326789   -0.154453
 C    5.674896   -1.135109    0.077181
 O    3.621827   -1.180212   -1.579574
 O    3.489937   -2.541950    0.546921
 O    4.604603    1.711453   -0.211197
 N    2.431262    2.185901   -0.342343
 O    2.778918    3.368278   -0.963482
 H   -4.839769    1.524371    1.402890
 H   -5.281542   -1.755057   -1.336947
 H   -3.393780   -2.396765   -0.095677
 H    1.501712   -1.147658    1.479205
 H    1.109345    0.560133    1.321155
 H    4.707062    0.543190    2.130171
 H    3.642284   -0.798257    2.650956
 H    3.080503    0.883854    2.734416
 H   -7.733523   -1.556715   -1.171939
 H   -8.749887    0.194454    0.269074
 H   -7.280359    1.735166    1.545847
 H   -0.957759   -2.273882    0.585349
 H   -1.126334   -2.274096   -1.163906
 H   -2.689794    1.505277    0.915396
 H   -2.921070    1.666283   -0.803577
 H    1.089656   -1.584797   -0.842148
 H    1.202782    0.099842   -1.303255
 H    6.131086   -1.894788   -0.561221
 H    5.924777   -1.317723    1.122577
 H    5.951169   -0.128201   -0.235882
 H    1.416188    2.033521   -0.317746
 H    3.754151    3.280502   -1.006262
