46 
3ui7_ligand_xtb.xyz
 C    1.504934    0.802867   -0.813347
 C    1.955826    2.832038    0.411446
 C    0.117013    0.933132   -0.519612
 C   -2.160165    0.172556   -0.574245
 C    0.632683    3.020116    0.685838
 C   -0.831324   -0.044849   -0.887368
 C   -0.332940    2.067569    0.240172
 C    2.399464    1.738125   -0.363489
 C   -3.404858   -0.472442   -0.657669
 C   -2.495611    1.379826    0.209107
 C    1.375497   -3.052723   -0.584396
 C   -0.331474   -2.276280    0.933640
 C    2.228925   -3.410832    0.638177
 C    0.580269   -2.660824    2.096765
 C    0.147799    4.217951    1.432491
 C   -3.788199   -1.744444   -1.339196
 C    4.256692    0.770588   -1.506544
 C   -0.341513   -1.385056   -1.361375
 N   -1.596586    2.251600    0.613846
 N   -3.797790    1.358768    0.500409
 N   -4.320828    0.270179   -0.032821
 N    0.496892   -1.923272   -0.237885
 O    1.422889   -3.733566    1.740298
 O    3.752594    1.709780   -0.598627
 H    1.837713    0.040097   -1.507368
 H    2.701224    3.537745    0.743683
 H    0.751479   -3.903603   -0.868203
 H    2.013489   -2.778117   -1.426471
 H   -0.963799   -1.424193    1.192306
 H   -0.966930   -3.122016    0.659830
 H    2.893363   -2.566142    0.883101
 H    2.837143   -4.292628    0.432042
 H   -0.012415   -3.005157    2.944431
 H    1.178062   -1.790406    2.408118
 H    0.946552    4.669594    2.015311
 H   -0.231576    4.955324    0.725936
 H   -0.682434    3.933989    2.073528
 H   -3.428396   -1.764623   -2.369926
 H   -3.397040   -2.621425   -0.813279
 H   -4.872545   -1.813093   -1.347087
 H    4.157198   -0.257481   -1.131170
 H    3.766793    0.846266   -2.483831
 H    5.314747    1.001160   -1.620138
 H    0.288500   -1.317166   -2.251744
 H   -1.167016   -2.067132   -1.556357
 H    1.082091   -1.095542    0.016707
