46 
3ui7_ligand_dft.xyz
 C    1.655638   -0.742156   -0.766776
 C    3.564641    0.184629    0.411973
 C    0.916703    0.464156   -0.511823
 C   -1.082918    1.811535   -0.559582
 C    2.908146    1.357266    0.658350
 C   -0.437794    0.623653   -0.884093
 C    1.548086    1.531565    0.212113
 C    2.944539   -0.868564   -0.312124
 C   -2.363924    2.383154   -0.643645
 C   -0.326015    2.827216    0.161550
 C   -1.687789   -2.931197   -0.635014
 C   -2.164114   -1.055939    0.881124
 C   -1.696075   -3.836963    0.592270
 C   -2.140709   -2.057954    2.023324
 C    3.567523    2.480968    1.404443
 C   -3.624592    1.883553   -1.276620
 C    3.198149   -3.036165   -1.228867
 C   -1.200344   -0.558390   -1.382218
 N    0.935976    2.681926    0.541892
 N   -1.123837    3.884403    0.444498
 N   -2.329253    3.593427   -0.049424
 N   -1.288383   -1.554367   -0.229222
 O   -2.549891   -3.337421    1.588452
 O    3.733773   -1.958516   -0.506765
 H    1.238252   -1.506638   -1.417029
 H    4.585526    0.031206    0.748067
 H   -2.683369   -2.860582   -1.080570
 H   -0.976706   -3.280750   -1.388458
 H   -1.799741   -0.069461    1.174476
 H   -3.170431   -0.956296    0.465794
 H   -0.667759   -3.946109    0.977876
 H   -2.063449   -4.826949    0.315341
 H   -2.840596   -1.742756    2.798525
 H   -1.132955   -2.105897    2.467499
 H    4.586780    2.214284    1.698281
 H    3.596227    3.384128    0.787554
 H    2.989651    2.742135    2.295825
 H   -3.500145    1.651968   -2.343874
 H   -4.030435    0.980289   -0.791427
 H   -4.387221    2.662811   -1.192676
 H    2.301181   -3.443477   -0.737005
 H    2.940357   -2.747377   -2.256842
 H    3.971733   -3.804547   -1.254082
 H   -0.717702   -1.098221   -2.202967
 H   -2.224550   -0.316903   -1.670487
 H   -0.322124   -1.593284    0.132156
