63 
3uih_ligand_dft.xyz
 N   -0.170639   -2.606514    1.577344
 C   -1.646514   -2.835496    1.365982
 C   -1.905162   -2.037287    0.073151
 O   -1.310173   -2.395353   -0.938980
 C   -2.418796   -2.442174    2.613193
 N   -2.642346   -0.927731    0.184066
 C   -2.320956    0.287009   -0.562520
 C   -2.070710    1.316506    0.556406
 O   -2.779868    1.283477    1.558191
 C   -3.415381    0.733654   -1.552239
 C   -4.774266    0.953967   -0.886135
 C   -3.514106   -0.280542   -2.694250
 N   -1.097953    2.242988    0.397613
 C    0.031712    2.119459   -0.504199
 C    0.864627    0.861784   -0.177476
 O    0.520517    0.045629    0.681393
 C    0.809910    3.425069   -0.253356
 C    0.598393    3.657191    1.245344
 C   -0.848029    3.215602    1.476252
 N    1.964181    0.698310   -0.931282
 C    2.780855   -0.512301   -0.887000
 C    1.821509   -1.702389   -1.003657
 O    0.981396   -1.548229   -2.010914
 C    3.714270   -0.598131    0.335974
 C    4.355845    0.761536    0.663100
 C    4.764460   -1.693402    0.117811
 C    5.205468    1.380319   -0.447873
 O    1.812365   -2.658127   -0.247949
 H    0.052367   -1.594550    1.603914
 H    0.398611   -2.951358    0.774050
 H    0.169650   -3.048193    2.434182
 H   -1.762652   -3.897943    1.142070
 H   -2.242785   -1.397615    2.892667
 H   -2.140922   -3.079031    3.458491
 H   -3.490077   -2.582443    2.444840
 H   -3.075474   -0.702523    1.074881
 H   -1.415835    0.068564   -1.131944
 H   -3.068854    1.691734   -1.965986
 H   -4.732908    1.700474   -0.089373
 H   -5.151007    0.018489   -0.456900
 H   -5.501482    1.289134   -1.631235
 H   -4.245677    0.051837   -3.436252
 H   -3.836884   -1.257134   -2.317173
 H   -2.552510   -0.417620   -3.200304
 H   -0.293231    2.041694   -1.548375
 H    0.352591    4.228182   -0.838691
 H    1.864496    3.358840   -0.532213
 H    0.768247    4.695012    1.536986
 H    1.283666    3.028379    1.824514
 H   -1.009641    2.740666    2.445562
 H   -1.556942    4.044060    1.383890
 H    2.152314    1.368251   -1.661926
 H    3.383031   -0.501031   -1.802593
 H    0.233991   -2.174785   -1.904494
 H    3.095242   -0.881495    1.194761
 H    3.570948    1.469468    0.955973
 H    4.980535    0.621465    1.552693
 H    4.299557   -2.675106    0.001873
 H    5.370802   -1.497186   -0.773505
 H    5.442987   -1.740359    0.974851
 H    4.621008    1.590460   -1.352577
 H    5.634207    2.329661   -0.114718
 H    6.037268    0.731206   -0.737093
