73 
3uik_ligand_dft.xyz
 N    5.028531   -2.347528    0.397028
 C    3.964445   -1.967548    1.382998
 C    2.861780   -1.280148    0.550304
 O    2.220427   -1.988815   -0.228658
 C    4.569565   -1.200526    2.547111
 N    2.748541    0.046059    0.672007
 C    1.752374    0.904543    0.046949
 C    0.405900    0.750919    0.786225
 O    0.170891   -0.223189    1.494393
 C    1.532234    0.688616   -1.470119
 C    2.763674    0.419628   -2.337880
 C    3.799386    1.539006   -2.485635
 N    4.520322    1.885736   -1.259227
 C    5.344875    1.025982   -0.605566
 N    5.809338    1.451595    0.619364
 N    5.633753   -0.187879   -0.984343
 N   -0.470476    1.749207    0.575339
 C   -1.861850    1.634205    0.944124
 C   -2.546204    0.550221    0.084153
 O   -1.940923   -0.048934   -0.810821
 C   -2.520977    3.015680    0.768190
 O   -2.192332    3.387633   -0.560152
 C   -2.031481    4.030884    1.793033
 N   -3.817134    0.286003    0.412588
 C   -4.687982   -0.593575   -0.347489
 C   -6.038375    0.109166   -0.435019
 O   -6.860036   -0.510866   -1.275388
 C   -4.856517   -1.981272    0.309315
 C   -3.533595   -2.709344    0.557372
 C   -2.841731   -3.186264   -0.725490
 C   -1.372833   -3.547126   -0.534157
 N   -0.598161   -2.339466   -0.099872
 O   -6.317495    1.089610    0.213104
 H    4.633770   -2.969253   -0.314444
 H    5.796965   -2.844960    0.853046
 H    5.423288   -1.422975   -0.139176
 H    3.511931   -2.894768    1.743712
 H    3.782010   -0.911926    3.248791
 H    5.104446   -0.303722    2.218572
 H    5.270093   -1.834798    3.098464
 H    3.345558    0.496056    1.351182
 H    2.124988    1.921643    0.199014
 H    0.841657   -0.145520   -1.611726
 H    1.007344    1.574066   -1.846492
 H    3.235539   -0.508323   -2.008105
 H    2.395653    0.218381   -3.350143
 H    3.304507    2.455686   -2.816838
 H    4.510141    1.270640   -3.278336
 H    4.675845    2.872072   -1.104728
 H    6.723074    1.090245    0.861741
 H    5.696167    2.428030    0.857374
 H    5.379184   -0.358181   -1.951935
 H   -0.297175    2.434359   -0.151219
 H   -1.930543    1.327305    1.992774
 H   -3.608848    2.898671    0.869268
 H   -2.583699    4.248617   -0.753643
 H   -2.288489    3.717670    2.809533
 H   -0.947424    4.162045    1.729538
 H   -2.506300    5.001424    1.618258
 H   -4.306808    0.889955    1.064218
 H   -4.276936   -0.691867   -1.355991
 H   -7.714843   -0.046766   -1.268531
 H   -5.512335   -2.582862   -0.328558
 H   -5.373266   -1.850243    1.266838
 H   -3.724821   -3.571125    1.206054
 H   -2.884023   -2.036851    1.134031
 H   -3.355468   -4.069424   -1.118256
 H   -2.899626   -2.418256   -1.504495
 H   -0.930857   -3.890647   -1.471125
 H   -1.227860   -4.322794    0.221647
 H   -0.985415   -1.476337   -0.536454
 H    0.415077   -2.377599   -0.297107
 H   -0.665906   -2.145552    0.902731
