26 
3uj9_ligand_xtb.xyz
 P    1.926061    0.055474   -0.114698
 O    1.409895    1.564340   -0.103760
 O    2.058603   -0.583233   -1.419001
 O    3.191619    0.126383    0.819002
 O    0.784619   -0.647316    0.796031
 C   -0.140218   -1.455034    0.106265
 C   -1.115486   -0.633509   -0.735883
 N   -2.170324    0.122574    0.000080
 C   -3.137229   -0.802625    0.617732
 C   -2.879855    0.971517   -0.976742
 C   -1.586672    0.985372    1.043552
 H    2.128577    2.191819   -0.178502
 H    3.768112   -0.632894    0.731238
 H   -0.629513   -2.080450    0.855623
 H    0.401102   -2.096698   -0.597968
 H   -1.611044   -1.300921   -1.443402
 H   -0.504020    0.078660   -1.296003
 H   -3.579344   -1.449843   -0.137759
 H   -2.650978   -1.420052    1.369086
 H   -3.932621   -0.238430    1.102030
 H   -2.191409    1.686241   -1.423860
 H   -3.312562    0.361423   -1.767758
 H   -3.679977    1.521270   -0.483771
 H   -1.105274    0.384112    1.810976
 H   -0.833084    1.640495    0.610513
 H   -2.367729    1.589428    1.501737
