47 
3ujb_ligand_xtb.xyz
 N    2.885688    0.214892   -1.135582
 C    3.029093   -0.700750    0.021704
 C    2.432949   -2.082829   -0.272616
 C    0.920980   -2.154613   -0.108110
 S    0.011018   -1.076513   -1.292155
 C    4.543170   -0.831557    0.241865
 O    4.853136   -1.464898    1.344818
 O    5.314096   -0.389533   -0.569228
 C   -1.531726   -2.007865   -1.502761
 C   -2.592536   -1.687985   -0.449654
 O   -2.027476   -1.586789    0.850898
 C   -3.363699   -0.383131   -0.714698
 O   -4.559719   -0.700343   -1.365742
 C   -3.603173    0.178759    0.708259
 O   -4.793006   -0.294855    1.255401
 C   -2.401137   -0.383838    1.480627
 N   -1.251338    0.503567    1.465851
 C   -0.094857    0.212593    2.135332
 N    0.941505    0.889031    1.743252
 C    0.462916    1.710665    0.753271
 C    1.059145    2.597510   -0.140482
 N    2.452005    2.724093   -0.230574
 N    0.315762    3.221486   -1.036351
 C   -0.986787    2.975468   -1.071075
 N   -1.658580    2.112519   -0.335587
 C   -0.919572    1.480289    0.568984
 H    3.778385    0.144757   -1.661889
 H    2.770040    1.248915   -0.821662
 H    2.082539   -0.054374   -1.717176
 H    2.550001   -0.267482    0.910190
 H    2.714077   -2.389924   -1.282447
 H    2.866968   -2.797341    0.429664
 H    0.587589   -3.172163   -0.304604
 H    0.622490   -1.873323    0.899768
 H    5.814117   -1.556410    1.468091
 H   -1.263602   -3.063261   -1.477184
 H   -1.912166   -1.756550   -2.492369
 H   -3.320117   -2.513145   -0.450745
 H   -2.754028    0.322257   -1.293837
 H   -5.001609    0.108996   -1.650081
 H   -3.598785    1.274403    0.723644
 H   -5.260437   -0.810524    0.577663
 H   -2.660106   -0.604019    2.521987
 H   -0.070465   -0.524641    2.914523
 H    2.903250    2.767684    0.677027
 H    2.710485    3.508839   -0.821238
 H   -1.555059    3.527453   -1.804953
