53 
3uli_ligand_xtb.xyz
 C   -7.799997   -3.517380    0.513765
 O   -7.791962   -2.190511    0.058064
 C   -6.601438   -1.509620    0.057564
 C   -5.380419   -2.042931    0.452419
 C   -4.241203   -1.259741    0.410096
 C   -4.292507    0.061616   -0.022049
 C   -5.523215    0.589012   -0.418636
 C   -6.659776   -0.184914   -0.379951
 C   -3.098935    0.880603   -0.054340
 N   -3.119281    2.166571   -0.451123
 C   -1.853263    2.574603   -0.335840
 C   -1.068285    1.461847    0.156139
 N   -1.894765    0.403601    0.306894
 C    0.307081    1.616361    0.349356
 C    0.795968    2.874869   -0.000671
 C   -0.030266    3.899171   -0.451014
 N   -1.323255    3.759180   -0.619506
Br    2.686233    3.207992    0.116471
 N    1.099245    0.630457    0.890480
 C    0.686431   -0.738886    0.805806
 C    0.717158   -1.274307   -0.640604
 C    2.106942   -1.217974   -1.255991
 N    3.016393   -2.195325   -0.593835
 C    4.149426   -1.566820    0.230922
 O    3.996790   -0.454123    0.667446
 C    5.334244   -2.431205    0.337627
 C    6.227592   -2.185046    1.541300
 C    6.664341   -1.693617    0.425896
 C    5.285802   -3.824260   -0.279709
 N    4.813289   -3.751807   -1.670141
 H   -7.169032   -4.163253   -0.107455
 H   -7.472259   -3.589016    1.556894
 H   -8.834506   -3.850796    0.439852
 H   -5.304106   -3.063780    0.796746
 H   -3.290607   -1.667816    0.719385
 H   -5.557577    1.614421   -0.751275
 H   -7.617520    0.210387   -0.681879
 H    0.384706    4.869132   -0.691028
 H    2.095680    0.810114    0.884919
 H   -0.351143   -0.795233    1.148054
 H    1.327785   -1.328616    1.468748
 H    0.042160   -0.649902   -1.226159
 H    0.327074   -2.294379   -0.672114
 H    2.530548   -0.219429   -1.121032
 H    2.074110   -1.445788   -2.322018
 H    2.444737   -2.761560    0.040866
 H    6.276790   -2.330132    2.590502
 H    7.345758   -1.114544   -0.144148
 H    4.587607   -4.462918    0.272909
 H    6.282605   -4.273218   -0.194590
 H    4.714641   -4.679474   -2.068642
 H    3.530971   -2.854895   -1.270672
 H    5.479318   -3.238990   -2.240344
