47 
3umo_ligand_xtb.xyz
 P    3.646714    1.062141   -0.349924
 O    3.527694    0.402906    0.958608
 O    4.113989    2.560051   -0.223482
 O    4.662125    0.538033   -1.400768
 P    0.885723    1.063772   -0.359624
 O    1.147774    2.070782    0.822234
 O   -0.309529    1.256360   -1.157646
 O    2.242895    1.189700   -1.154760
 P    1.957012   -1.596735    0.068086
 O    2.900189   -1.356506   -1.022683
 O    2.516307   -1.924581    1.496427
 O    0.924895   -0.385324    0.321322
 O    1.047929   -2.830075   -0.286935
 C    0.371222   -3.643871    0.659813
 C   -1.128238   -3.358041    0.689113
 O   -1.366602   -2.141496    1.389802
 C   -1.767085   -3.231135   -0.709355
 O   -2.858476   -4.101664   -0.808117
 C   -2.217123   -1.758242   -0.773802
 O   -3.406085   -1.651700   -1.488650
 C   -2.364412   -1.417708    0.728484
 N   -2.186150   -0.016637    0.985320
 C   -1.336207    0.555905    1.872143
 N   -1.300520    1.859475    1.799466
 C   -2.183088    2.182906    0.795870
 C   -2.569138    3.385177    0.178391
 N   -2.130110    4.594204    0.571926
 N   -3.447106    3.325364   -0.825653
 C   -3.902315    2.153208   -1.220263
 N   -3.609478    0.957351   -0.736890
 C   -2.735645    1.007827    0.268596
 H    3.806015    2.946836    0.596277
 H    4.405045   -0.353424   -1.666489
 H    0.328574    2.190491    1.365345
 H    3.116851   -1.196513    1.724994
 H    0.787025   -3.488160    1.655447
 H    0.533345   -4.677070    0.342593
 H   -1.630744   -4.178322    1.222359
 H   -1.031621   -3.452583   -1.492430
 H   -3.531083   -3.642546   -1.336111
 H   -1.418988   -1.129086   -1.191740
 H   -3.683070   -0.707975   -1.456596
 H   -3.371452   -1.724796    1.073325
 H   -0.769895   -0.032821    2.565159
 H   -2.356307    5.383348   -0.008222
 H   -1.362016    4.647993    1.216123
 H   -4.602546    2.170641   -2.044042
