14 
3umq_ligand_dft.xyz
 C   -2.707707   -0.226044   -0.000006
 C   -1.341384    0.455505   -0.000036
 C   -0.195944   -0.551781    0.000056
 C    1.174247    0.107022    0.000015
 O    2.225331   -0.747218   -0.000032
 O    1.363538    1.292737    0.000014
 H   -2.836945   -0.859775   -0.885177
 H   -2.836918   -0.859749    0.885188
 H   -3.513409    0.514268   -0.000003
 H   -1.240642    1.106283    0.874516
 H   -1.240620    1.106137   -0.874695
 H   -0.264255   -1.209354   -0.878768
 H   -0.264259   -1.209206    0.878991
 H    1.910827   -1.660969   -0.000078
