14 
3umq_ligand_xtb.xyz
 C   -2.692781   -0.228802    0.000791
 C   -1.331828    0.454394    0.000185
 C   -0.191964   -0.561141   -0.001817
 C    1.166509    0.112502   -0.000339
 O    2.212967   -0.740976    0.001078
 O    1.344354    1.293451   -0.000053
 H   -2.813000   -0.849311   -0.885062
 H   -2.806455   -0.860041    0.879889
 H   -3.487217    0.512563    0.008224
 H   -1.234141    1.092929    0.879180
 H   -1.235716    1.093781   -0.878273
 H   -0.260454   -1.200215   -0.888150
 H   -0.260414   -1.203950    0.881806
 H    1.939210   -1.667281    0.001262
