37 
3unj_ligand_xtb.xyz
 C   -4.448925   -0.717497    0.081248
 C   -5.502103   -1.762321    0.127024
 C   -4.711167    0.652991    0.101116
 C   -3.676134    1.561616    0.066107
 C   -2.345340    1.133048    0.002401
 C   -2.081185   -0.238913   -0.008365
 C   -3.119421   -1.140895    0.038406
 N   -1.360148    2.093307   -0.038563
 C    0.000917    1.987687   -0.085078
 N    0.623875    3.169294   -0.087446
 C    1.946155    3.132867   -0.155379
 C    2.671057    1.960207   -0.193858
 C    1.924732    0.772452   -0.159623
 N    0.588408    0.800961   -0.125855
 N    2.449699   -0.479578   -0.214741
 C    3.770449   -0.897296   -0.063428
 C    4.665901   -0.247573    0.782722
 C    5.961828   -0.713465    0.908124
 C    6.378250   -1.835045    0.211697
 C    5.480968   -2.504311   -0.604373
 C    4.186475   -2.042887   -0.741098
 O   -6.754159   -1.380469   -0.202535
 O   -5.279912   -2.905032    0.426969
 H   -5.722206    1.032965    0.179367
 H   -3.891096    2.620574    0.092262
 H   -1.057563   -0.568126   -0.047412
 H   -2.926243   -2.202807    0.038137
 H   -1.664782    3.058229   -0.013468
 H    2.436579    4.097130   -0.184513
 H    3.741912    1.959707   -0.288552
 H    1.767251   -1.200760   -0.406228
 H    4.340043    0.600180    1.364640
 H    6.647295   -0.200843    1.566558
 H    7.390974   -2.193218    0.314252
 H    5.790938   -3.390204   -1.138241
 H    3.486167   -2.565761   -1.376612
 H   -6.794274   -0.454937   -0.475282
