37 
3unz_ligand_dft.xyz
 F   -4.658889    1.861193   -0.745310
 N    0.718670   -2.644178   -0.068086
 N   -1.234653   -1.374893    0.068797
 N   -1.260097   -3.765617   -0.053500
 N   -3.207829   -0.150896    0.205996
 C    2.462406    0.612545   -0.452527
 C    3.768179    0.250789   -0.114656
 C    4.026762   -1.085016    0.204355
 C    3.004271   -2.014736    0.228371
 C    1.688025   -1.642583   -0.089083
 C    1.429563   -0.314418   -0.451719
 C    4.917784    1.204599   -0.113821
 C   -0.653697   -2.572332   -0.019436
 C   -2.566775   -1.358272    0.115942
 C   -3.319598   -2.545779    0.073985
 C   -2.593757   -3.717274   -0.006316
 C   -2.653128    1.136241    0.239324
 C   -1.407537    1.466278    0.779195
 C   -0.974298    2.789494    0.777075
 C   -1.773701    3.805737    0.264298
 C   -3.029895    3.497541   -0.252282
 C   -3.439980    2.179662   -0.256638
 O    6.068514    0.857298   -0.190620
 O    4.616039    2.520458   -0.015489
 H    1.049956   -3.597956   -0.036952
 H   -4.204827   -0.173064    0.053260
 H    2.225283    1.624111   -0.776378
 H    5.044320   -1.376386    0.441901
 H    3.219052   -3.044781    0.501122
 H    0.430838   -0.016586   -0.734833
 H   -4.402573   -2.545021    0.113546
 H   -3.103840   -4.677610   -0.033977
 H   -0.783113    0.683600    1.186557
 H   -0.001196    3.022533    1.198163
 H   -1.431187    4.835115    0.270739
 H   -3.690552    4.257399   -0.654684
 H    3.681019    2.630113    0.199341
