37 
3uo5_ligand_dft.xyz
 C    3.530344   -0.073587   -0.105255
 C    4.711346    0.840161   -0.092903
 C    3.623087   -1.458330    0.064177
 C    2.487710   -2.250261    0.041824
 C    1.219666   -1.680613   -0.152030
 C    1.125094   -0.295867   -0.356262
 C    2.270642    0.482915   -0.333562
 N    0.130953   -2.549885   -0.161278
 C   -1.223075   -2.315553   -0.082518
 N   -1.963575   -3.432111   -0.101513
 C   -3.280906   -3.228436   -0.019660
 C   -3.863761   -1.981225    0.080764
 C   -2.978613   -0.886670    0.094627
 N   -1.658619   -1.060471    0.011292
 N   -3.463572    0.389235    0.191364
 C   -2.732563    1.598923    0.164996
 C   -3.271593    2.680672   -0.534531
 C   -2.608894    3.902785   -0.555407
 C   -1.394393    4.053539    0.106605
 C   -0.861002    2.975334    0.807831
 C   -1.527795    1.756087    0.855086
 O    5.825316    0.385493    0.529248
 O    4.711264    1.935226   -0.594513
 H    4.587214   -1.948588    0.180207
 H    2.580227   -3.325126    0.174674
 H    0.160732    0.157669   -0.529614
 H    2.197688    1.552826   -0.500177
 H    0.339637   -3.538254   -0.162495
 H   -3.899975   -4.122900   -0.034014
 H   -4.938233   -1.856882    0.150424
 H   -4.462569    0.481323    0.087053
 H   -4.207142    2.559275   -1.075185
 H   -3.039801    4.734524   -1.104430
 H   -0.868924    5.002713    0.078628
 H    0.081339    3.082167    1.336926
 H   -1.113346    0.926167    1.412226
 H    5.622432   -0.417279    1.026162
