37 
3uoh_ligand_dft.xyz
Br    4.627460   -0.967774   -0.645480
 N   -1.828415    2.631484   -0.133895
 N    0.283459    1.694818    0.197090
 N   -0.056181    4.053211   -0.029273
 N    2.410907    0.806475    0.530974
 C   -3.025334   -0.875415   -0.399936
 C   -4.398672   -0.695792   -0.222820
 C   -4.881579    0.603957   -0.047167
 C   -4.013985    1.678847   -0.007130
 C   -2.630712    1.491991   -0.163354
 C   -2.143689    0.196332   -0.379498
 C   -5.391361   -1.811613   -0.250742
 C   -0.469866    2.780249    0.015617
 C    1.592941    1.892604    0.344121
 C    2.151525    3.182054    0.306973
 C    1.260152    4.219769    0.117922
 C    2.062436   -0.549280    0.572777
 C    0.862311   -1.003902    1.133758
 C    0.567977   -2.359805    1.173916
 C    1.469047   -3.299755    0.682973
 C    2.677895   -2.870097    0.150161
 C    2.962180   -1.512029    0.093137
 O   -6.565764   -1.649916   -0.463692
 O   -4.914523   -3.056478   -0.015531
 H   -2.302826    3.521965   -0.184065
 H    3.399295    0.989370    0.428482
 H   -2.609364   -1.858991   -0.609691
 H   -5.950340    0.751923    0.065055
 H   -4.405236    2.680603    0.151083
 H   -1.087419    0.035810   -0.536093
 H    3.214510    3.354804    0.427310
 H    1.614466    5.247578    0.083148
 H    0.161532   -0.280724    1.527236
 H   -0.372537   -2.680294    1.611597
 H    1.241884   -4.359955    0.719735
 H    3.402242   -3.581743   -0.230079
 H   -4.000997   -3.007729    0.293346
