37 
3uoh_ligand_xtb.xyz
Br    4.732484   -0.915354   -0.591487
 N   -1.950523    2.601530    0.054156
 N    0.193753    1.688331    0.161136
 N   -0.194576    4.025774    0.050203
 N    2.360563    0.843347    0.266171
 C   -3.036436   -0.880624   -0.488119
 C   -4.404497   -0.769119   -0.241581
 C   -4.926150    0.488731    0.068246
 C   -4.105954    1.588136    0.164587
 C   -2.728660    1.467511   -0.053172
 C   -2.209556    0.220124   -0.402721
 C   -5.356941   -1.906634   -0.316423
 C   -0.596190    2.754233    0.080187
 C    1.505905    1.903251    0.183560
 C    2.032000    3.203670    0.104668
 C    1.114063    4.230749    0.054872
 C    2.083064   -0.497147    0.459615
 C    0.886248   -0.947591    1.017840
 C    0.655384   -2.296237    1.206379
 C    1.613490   -3.233910    0.858566
 C    2.818972   -2.809824    0.327468
 C    3.043600   -1.461046    0.134114
 O   -6.546878   -1.760225   -0.398801
 O   -4.827873   -3.146882   -0.273580
 H   -2.441087    3.484597    0.114248
 H    3.334855    1.063521    0.095213
 H   -2.592003   -1.821083   -0.789290
 H   -5.988985    0.572664    0.235126
 H   -4.522175    2.554473    0.409744
 H   -1.158621    0.127793   -0.614387
 H    3.093970    3.382220    0.099658
 H    1.423853    5.266663    0.018345
 H    0.146878   -0.218911    1.301916
 H   -0.280084   -2.614195    1.641027
 H    1.433981   -4.287171    1.005144
 H    3.584014   -3.522883    0.061370
 H   -3.868085   -3.131959   -0.167215
