39 
3uol_ligand_dft.xyz
Cl  -24.651144  -16.851256    8.275261
 C  -25.075680  -18.543532    8.089514
 C  -26.365300  -18.864827    7.685493
 C  -26.728873  -20.197818    7.541087
 C  -25.787575  -21.195123    7.778795
 C  -24.492953  -20.868955    8.159477
 C  -24.117050  -19.533535    8.345914
 N  -22.817586  -19.160283    8.723674
 C  -21.995298  -19.782929    9.627777
 C  -20.741891  -19.224339    9.936576
 C  -19.982154  -19.919504   10.856506
 N  -20.372313  -21.055512   11.440938
 C  -21.584247  -21.487079   11.069998
 N  -21.967496  -22.663432   11.672857
 C  -23.116880  -23.436257   11.508183
 C  -23.053388  -24.779802   11.905809
 C  -24.156941  -25.607094   11.783474
 C  -25.356429  -25.118784   11.258641
 C  -26.538129  -25.961758   11.094461
 N  -26.743551  -27.173652   11.647185
 N  -27.950000  -27.635507   11.269301
 N  -28.451079  -26.726817   10.510697
 N  -27.609797  -25.677933   10.376701
 C  -25.421001  -23.777255   10.873423
 C  -24.326082  -22.938790   11.001414
 N  -22.412219  -20.912385   10.198564
 H  -27.076426  -18.067844    7.498199
 H  -27.739521  -20.452009    7.239821
 H  -26.055137  -22.240112    7.657574
 H  -23.762531  -21.647074    8.333247
 H  -22.545279  -18.222372    8.467877
 H  -20.389403  -18.306757    9.480350
 H  -19.000310  -19.551389   11.145803
 H  -21.229676  -23.055766   12.240234
 H  -22.122330  -25.182119   12.296075
 H  -24.059523  -26.649235   12.076681
 H  -26.177550  -27.712940   12.283287
 H  -26.352461  -23.387952   10.475309
 H  -24.399797  -21.903272   10.704824
