92 
3upf_ligand_dft.xyz
 O   -4.698215   -0.739585    0.674582
 O   -4.236536    5.015314    0.045055
 O   -0.490320   -4.653452    1.918028
 O    4.094901    2.512371   -2.582792
 O    2.856070    0.523754   -3.547526
 O    5.114641   -2.260907   -2.532593
 O    6.447216   -2.162715   -0.423009
 O    2.902115    5.869439   -0.254649
 O    2.008673    6.536608    1.963203
 O    3.186175    2.069316    2.995559
 O    4.286332    1.409767    0.909733
 O   -1.206875   -1.045508   -1.382688
 O   -2.840308    0.755143   -1.929052
 O   -1.042353   -4.033099   -0.285559
 O    0.399163   -4.293827   -2.214811
 O    4.110288    0.270810   -1.498254
 O    5.653890   -4.352345   -1.419107
 O    3.282067    4.388520    1.613373
 O    4.745885    0.148547    3.024204
 O   -2.296238    0.269450    0.438240
 O    0.720594   -5.759269   -0.209604
 C   -7.440997    2.906352   -1.922240
 C   -4.660665   -5.222242    2.311954
 C   -7.503028    1.549819   -1.616497
 C   -5.537931   -4.403572    1.607783
 C   -6.364441    3.682828   -1.507693
 C   -3.283101   -5.065165    2.177791
 C   -1.592043    4.602185    0.889468
 C    0.073389   -0.621983    2.223617
 C   -0.347175    5.120682    1.243468
 C    1.169511    0.215754    2.391364
 C   -5.419452    1.730515   -0.436870
 C   -3.660817   -3.349638    0.522494
 C    0.714505    0.969833   -1.492248
 C    2.794304   -3.499497   -0.661644
 C    1.916830    2.894719   -0.703120
 C    3.783312   -1.726686    0.616264
 N   -6.575894   -0.437306   -0.604395
 N   -5.898275   -2.556954    0.042033
 N   -2.972109    3.116791   -0.377241
 N   -1.064476   -2.497653    1.464992
 C   -5.665424   -1.205667    0.067159
 C   -4.151587    3.861692   -0.326516
 C   -1.301624   -3.854163    1.142753
 C   -6.487642    0.950119   -0.868159
 C   -5.031687   -3.453983    0.722432
 C   -5.343436    3.074269   -0.782498
 C   -2.791478   -4.123348    1.282761
 C    1.878174    1.753178   -1.445864
 C    3.904778   -2.736458   -0.284859
 C   -1.713684    3.487299    0.075311
 C    0.128303   -1.809650    1.506478
 C    0.796532    4.565411    0.732829
 C    2.385929   -0.166490    1.890393
 C   -0.446023    1.448871   -0.934300
 C    1.568757   -3.257621   -0.090007
 C    0.743360    3.388671   -0.072297
 C    2.514871   -1.371714    1.139920
 C   -0.520444    2.749672   -0.307867
 C    1.360761   -2.186275    0.851511
 S    3.306395    1.312090   -2.426985
 S    5.460641   -2.954212   -1.126898
 S    2.311983    5.372978    1.160899
 S    3.810811    0.855595    2.185653
 S   -1.772954    0.246280   -1.069876
 S    0.416405   -4.455584   -0.785185
 H   -0.280608   -5.480199    1.446275
 H    4.949046   -1.305683   -2.389442
 H    2.617722    6.786022   -0.408408
 H    3.249902    2.903518    2.464189
 H    4.390952    0.705047   -0.649303
 H   -3.211822   -0.137413    0.476034
 H   -8.243267    3.355583   -2.498411
 H   -5.054437   -5.961426    3.001777
 H   -8.348703    0.960111   -1.962502
 H   -6.609869   -4.487111    1.763728
 H   -6.304521    4.739296   -1.745163
 H   -2.594848   -5.656084    2.771702
 H   -2.486154    5.119486    1.201896
 H   -0.868390   -0.338336    2.679701
 H   -0.290139    5.994535    1.882457
 H    1.064656    1.138363    2.947845
 H   -4.653473    1.301563    0.181018
 H   -3.262633   -2.656276   -0.209296
 H    0.731287   -0.002942   -1.972542
 H    2.921113   -4.281417   -1.403912
 H    2.849265    3.441560   -0.638109
 H    4.677618   -1.184431    0.900460
 H   -7.313151   -0.917009   -1.100146
 H   -6.784931   -2.911476   -0.284250
 H   -3.035321    2.317999   -1.002906
 H   -1.867653   -1.984725    1.790783
