52 
3uph_ligand_dft.xyz
 C   -2.706519   -3.380907   -0.663067
 C   -1.545932   -2.689240   -0.996251
 C    4.319241   -2.658009   -0.051737
 C    4.339508   -2.078755   -1.318359
 C    1.984254   -2.030326    0.185540
 C   -2.303360   -0.756688    0.302499
 C   -1.831338    0.624725    0.665175
 C   -3.669810   -2.769808    0.144347
 C    1.997163   -1.446969   -1.077901
 C   -1.372482   -1.383895   -0.519216
 C   -3.444167   -1.464986    0.612033
 C    3.139389   -2.623782    0.674611
 C    3.184097   -1.491155   -1.805027
 C   -0.474133    0.734766   -0.104345
 C   -4.300299    3.309905   -0.544984
 C   -3.886531    2.234903    0.250488
 C   -3.424776    3.829667   -1.489783
 C   -2.610569    1.751620    0.048086
 C   -1.836337    2.359575   -0.939156
 C    0.728446    1.033331    0.812508
 C   -4.954854   -3.141612    0.692471
 C   -5.377102   -2.080453    1.408484
 C    3.922695    0.788368    1.300590
 C    0.778254   -0.772005   -1.679904
 N   -0.288989   -0.534760   -0.744441
 N   -2.181234    3.365121   -1.704484
 N    1.673325    1.849365    0.248643
 O   -0.594392    1.800756   -1.063325
 O    0.838063    0.491890    1.892328
 O    3.797054    3.084802   -0.032828
 O    2.807102    2.959512    2.287760
 O   -4.479733   -1.041549    1.380821
 F    3.114734   -3.169733    1.899062
 F    3.197199   -0.934284   -3.030808
 S    3.115465    2.347131    1.014418
 H   -2.853869   -4.392798   -1.026935
 H   -0.784199   -3.162314   -1.607134
 H    5.200651   -3.128234    0.368808
 H    5.236678   -2.079594   -1.927070
 H    1.092419   -1.997522    0.801350
 H   -5.290741    3.736092   -0.432225
 H   -4.543467    1.789460    0.991036
 H   -3.726156    4.664628   -2.116758
 H   -1.681362    0.738764    1.742880
 H   -5.481360   -4.075970    0.563295
 H   -6.267933   -1.896234    1.988661
 H    4.097912    0.299078    0.341349
 H    4.867129    1.016321    1.798912
 H    3.280403    0.188020    1.945936
 H    0.392522   -1.374077   -2.511385
 H    1.069709    0.183161   -2.127754
 H    1.441341    2.362291   -0.596627
