70 
3ut5_ligand_dft.xyz
 O   -0.484328    3.022043    0.483035
 C   -1.517672    2.169233    0.642592
 C   -2.438516    2.063959   -0.334253
 C   -1.753769    1.468208    1.947224
 O   -0.893521    1.354372    2.810006
 C   -3.072862    0.836085    2.136906
 C   -3.961117    0.721479    1.145407
 C   -3.692994    1.249698   -0.228644
 C   -3.658682    0.058797   -1.238296
 O   -3.471124    0.512258   -2.566074
 C   -2.439118   -0.816595   -0.930622
 N   -1.910213   -1.468344   -2.174631
 C   -2.655325   -2.643427   -2.706452
 C   -2.689506   -1.927223    0.095790
 O   -3.789616   -2.448511    0.153361
 N   -1.607051   -2.423586    0.762102
 C   -0.417908   -1.753288    1.306581
 C    0.309116   -0.899783    0.266986
 O    0.434947   -1.244389   -0.922894
 C    0.521696   -2.822606    1.922410
 C    1.641108   -2.159233    2.728233
 C    1.073700   -3.800940    0.884346
 C    1.052555    3.679056   -1.984980
 C    1.476103    3.827173   -0.525025
 C    0.954819    2.745549    0.439763
 C    1.555062    2.976408    1.824016
 N    0.751078    0.277621    0.719190
 C    1.227001    1.343778   -0.156055
 C    2.719550    1.101502   -0.495952
 O    3.641605    1.652194    0.073705
 N    2.898270    0.205306   -1.509346
 C    4.219496   -0.326229   -1.722394
 C    4.574094   -1.380852   -0.686153
 O    3.814967   -1.808172    0.151560
 O    5.833964   -1.793676   -0.831645
 H   -2.254584    2.576139   -1.274002
 H   -3.257511    0.432251    3.127498
 H   -4.900320    0.197894    1.304752
 H   -4.548573    1.873243   -0.529180
 H   -4.575569   -0.533847   -1.145337
 H   -4.274464    0.942445   -2.883622
 H   -1.639619   -0.147877   -0.622672
 H   -0.922177   -1.701423   -1.936784
 H   -1.912342   -0.730162   -2.887504
 H   -3.694542   -2.362160   -2.869718
 H   -2.188155   -2.934947   -3.647061
 H   -2.598744   -3.461238   -1.990632
 H   -1.881891   -3.229440    1.315572
 H   -0.734491   -1.092669    2.122492
 H   -0.112407   -3.377300    2.629731
 H    2.354502   -1.647417    2.075762
 H    1.246170   -1.445587    3.460859
 H    2.196518   -2.923235    3.279023
 H    1.595568   -4.616572    1.393029
 H    1.790766   -3.305731    0.224542
 H    0.279064   -4.240103    0.272170
 H   -0.032694    3.557904   -2.072068
 H    1.330259    4.575705   -2.545473
 H    1.541645    2.830411   -2.476907
 H    1.104841    4.778750   -0.131874
 H    2.565997    3.851240   -0.447594
 H    2.636750    2.844960    1.777219
 H    1.134621    2.318419    2.583788
 H    1.329971    4.001942    2.128986
 H    0.621835    0.505311    1.699932
 H    0.652045    1.254570   -1.084761
 H    2.114559   -0.412164   -1.694898
 H    4.291057   -0.770156   -2.719404
 H    4.952113    0.481495   -1.665891
 H    6.009058   -2.461083   -0.148194
