66 
3uvq_ligand_xtb.xyz
 O   -6.480330   -1.959741    0.418142
 O    4.078267   -0.551468   -1.932221
 O   11.845518   -2.117154   -0.194369
 O   10.535133    0.242758    0.515557
 F   -6.397516    2.678338   -1.256252
 C  -11.249345   -1.092887    1.616562
 C  -10.538759    0.090562    1.732592
 C  -10.636630   -2.219580    1.092685
 C   -3.018133    1.411395   -1.642661
 C    0.109730   -1.577683   -1.336030
 C   -9.223271    0.158691    1.309992
 C   -9.318896   -2.159632    0.680796
 C   -4.108672    2.259676   -1.699900
 C    6.074544    1.281810    2.160691
 C    4.765236    1.704571    2.170335
 C    1.471781   -1.391756   -1.315191
 C   -0.191649    0.676162   -0.564085
 C   -4.399376   -0.272161   -0.603358
 C    5.638173    0.101372    0.132491
 C   10.511546   -1.874865   -0.541110
 C    2.462993    1.905656    1.306438
 C    1.758776    2.147901   -0.029369
 C    8.351848   -0.738736    0.156011
 N   -6.766765    0.218981   -0.196313
 N   -2.109770   -0.761264   -1.010192
 O    7.841679    0.103618    1.171312
 C   -7.182534   -0.973727    0.327154
 C    3.502661   -0.067840   -0.972031
 C   -0.749784   -0.532906   -0.982241
 C   -3.151552    0.143922   -1.073447
 C   -5.324233    1.841046   -1.206573
 C    6.529587    0.470954    1.120467
 C   -8.606173   -0.967077    0.771056
 C    3.850852    1.343078    1.181357
 C    1.178803    0.856987   -0.517852
 C   -5.501771    0.566177   -0.661343
 C    2.028662   -0.183573   -0.893354
 C    4.299051    0.514420    0.149080
 C    9.825010   -0.977624    0.495119
 H   12.247199   -1.259347   -0.004830
 H   10.020366    0.868110    1.038916
 H  -12.277529   -1.138108    1.943396
 H  -11.010249    0.964387    2.157390
 H  -11.185558   -3.145668    1.010582
 H   -2.078860    1.720622   -2.069896
 H   -0.305360   -2.527485   -1.640528
 H   -8.675814    1.082429    1.435914
 H   -8.820131   -3.029710    0.281260
 H   -4.025803    3.242265   -2.136116
 H    6.761737    1.571278    2.939884
 H    4.431674    2.343604    2.975499
 H    2.134856   -2.188014   -1.618089
 H   -0.838037    1.478142   -0.242189
 H   -4.518289   -1.258880   -0.187330
 H    5.939733   -0.526437   -0.691489
 H   10.016166   -2.846280   -0.590523
 H   10.448177   -1.386474   -1.524347
 H    1.853087    1.221417    1.907170
 H    2.526935    2.846864    1.857198
 H    2.473161    2.547077   -0.752933
 H    0.963176    2.882300    0.106299
 H    7.811301   -1.692190    0.130699
 H    8.272637   -0.249867   -0.823593
 H   -7.462339    0.946296   -0.297739
 H   -2.388224   -1.730332   -0.951878
 H    9.886417   -1.455155    1.486023
