32 
3uwo_ligand_dft.xyz
 C    0.402885   -1.335968   -0.792196
 C    0.128366   -0.049157   -0.322997
 C    1.196768    0.753690    0.122312
 C    2.454864    0.198975    0.063936
 C    2.599158   -1.113672   -0.424957
 N    1.627703   -1.887403   -0.850026
 N    3.714662    0.650133    0.409562
 C    4.666144   -0.339128    0.153346
 N    3.946117   -1.410660   -0.362127
 C    4.046824    1.939442    0.963637
 O    5.861496   -0.267811    0.343066
 C   -1.262773    0.463570   -0.303783
 C   -1.545884    1.779092   -0.690800
 C   -2.847874    2.264049   -0.662293
 C   -3.894033    1.437286   -0.266302
 C   -3.630989    0.118619    0.108633
 C   -2.319297   -0.352411    0.104034
 C   -4.701288   -0.834031    0.561804
 O   -4.451451   -1.801265    1.259640
 N   -5.978060   -0.537120    0.160387
 H   -0.408368   -1.958220   -1.160299
 H    1.024097    1.750902    0.515434
 H    4.375870   -2.280416   -0.632327
 H    5.126475    1.958457    1.118794
 H    3.765138    2.741641    0.273618
 H    3.539441    2.091148    1.921975
 H   -0.739137    2.423075   -1.030323
 H   -3.048834    3.290818   -0.952304
 H   -4.903347    1.835383   -0.216127
 H   -2.137633   -1.365499    0.449181
 H   -6.669686   -1.244485    0.362743
 H   -6.134570    0.023013   -0.662822
