30 
3uxm_ligand_xtb.xyz
 O    1.172230   -2.796107   -0.240350
 C    1.498647   -1.634593   -0.158254
 N    2.807724   -1.237147   -0.074942
 C    3.315888    0.054453    0.050658
 O    4.510138    0.236738    0.116375
 C    2.280537    1.079601    0.094832
 C    2.718528    2.501124    0.233828
 C    0.991264    0.707664    0.007627
 N    0.588142   -0.595658   -0.117864
 C   -0.820828   -0.915860   -0.230009
 C   -1.582959   -0.739365    1.089911
 C   -2.988974   -0.369381    0.613225
 O   -3.800104   -1.480483    0.334515
 O   -1.429041   -0.054009   -1.163586
 C   -2.714519    0.348597   -0.722908
 C   -2.783036    1.871874   -0.609814
 F   -2.056194    2.312775    0.471550
 H    3.491470   -1.986149   -0.106937
 H    1.863190    3.165505    0.312589
 H    3.322474    2.787158   -0.625749
 H    3.346466    2.607158    1.116618
 H    0.191156    1.431684    0.022526
 H   -0.872347   -1.955870   -0.584211
 H   -1.153265    0.085939    1.658779
 H   -1.564622   -1.645947    1.690331
 H   -3.492022    0.300356    1.324660
 H   -3.897375   -2.017087    1.129109
 H   -3.455733    0.024632   -1.463655
 H   -3.812028    2.208485   -0.460549
 H   -2.345757    2.334999   -1.498031
