45 
3uyt_ligand_xtb.xyz
 C   -0.003521   -0.409109   -0.158236
 N   -1.082654   -1.264177   -0.135895
 C   -0.575292   -2.511190   -0.042246
 N    0.728333   -2.523817    0.002450
 C    1.120766   -1.222744   -0.058265
 C    0.847940    1.742762   -1.060950
 C    0.655792    3.108334   -1.157413
 N   -0.373175    3.732356   -0.607609
 C   -1.243800    2.964995    0.050649
 N   -1.153676    1.645851    0.217089
 C   -0.108366    1.026293   -0.329770
 N   -2.340904    3.570479    0.561887
 C   -3.334131   -1.906485   -0.920019
 C   -2.477094   -0.884734   -0.175405
 C   -3.013209   -0.681732    1.245032
 C   -4.457193   -0.194974    1.184187
 C   -5.328314   -1.183153    0.413984
 C   -4.773560   -1.402834   -0.990711
 C    4.302757    0.555696    0.839476
 C    5.222562   -0.329638    0.306440
 C    4.832232   -1.493128   -0.331509
 C    3.483417   -1.765337   -0.447490
 C    2.531322   -0.881746    0.060085
 C    2.956295    0.271901    0.717500
 F    6.540912   -0.052616    0.421819
 H   -1.175703   -3.397223   -0.011839
 H    1.683194    1.248588   -1.525675
 H    1.348913    3.740311   -1.697930
 H   -2.338719    4.574338    0.597299
 H   -2.895632    3.056872    1.223246
 H   -3.321824   -2.861522   -0.391803
 H   -2.936748   -2.066420   -1.924696
 H   -2.530877    0.076695   -0.697402
 H   -2.387243    0.053461    1.752268
 H   -2.956237   -1.625092    1.793162
 H   -4.484856    0.775532    0.683549
 H   -4.846529   -0.065222    2.195683
 H   -6.351464   -0.807528    0.353357
 H   -5.353794   -2.136626    0.946492
 H   -5.389942   -2.127700   -1.525553
 H   -4.803997   -0.462406   -1.545406
 H    4.644773    1.444410    1.346288
 H    5.578340   -2.166214   -0.723629
 H    3.143998   -2.668345   -0.929172
 H    2.229052    0.943720    1.147905
