14 
3uzj_ligand_xtb.xyz
 N   -0.445006   34.498300  -17.613429
 C   -1.249543   35.353939  -16.926702
 C   -2.454575   35.991523  -17.193466
 C   -2.951470   36.803814  -16.199650
 C   -2.281601   36.983045  -14.980388
 C   -1.089292   36.356329  -14.706012
 C   -0.564854   35.527052  -15.696875
 N    0.571322   34.772812  -15.750756
 N    0.625386   34.184305  -16.866483
 H   -0.561362   34.116119  -18.537494
 H   -2.971072   35.855128  -18.131078
 H   -3.885717   37.321178  -16.359072
 H   -2.723290   37.634446  -14.241172
 H   -0.569927   36.490010  -13.771423
