50 
3v0p_ligand_xtb.xyz
 C    4.750011    0.381281    2.046517
 O    5.143856   -0.666667    1.157845
 C    3.666731    1.208252    1.443109
 S    2.005141    0.750241    1.598697
 C    3.816689    2.240395    0.564823
 C    2.604024    2.669176    0.000357
 C    1.522861    1.954637    0.438254
 C    0.144933    2.071855    0.024621
 C   -0.849443    1.396494    0.655010
 C   -0.202329    2.910595   -1.123782
 O    0.535560    3.593853   -1.792974
 N   -1.565992    2.895628   -1.414708
 C   -2.568644    2.225675   -0.778015
 O   -3.736533    2.320938   -1.106108
 N   -2.155328    1.453509    0.282674
 C   -3.199908    0.720269    1.012660
 O   -2.664245   -0.067378    2.021887
 C   -4.010164   -0.200997    0.056770
 O   -5.307828    0.256006   -0.166274
 C   -4.038599   -1.544517    0.810173
 O   -5.185766   -1.680447    1.594513
 C   -2.794330   -1.447119    1.707201
 C   -1.534305   -1.999880    1.034092
 O   -1.421560   -1.413897   -0.262692
 P   -0.206797   -1.743992   -1.205525
 O   -0.305995   -1.179019   -2.537242
 O   -0.093607   -3.323648   -1.079518
 O    1.041758   -1.180171   -0.340764
 P    2.568439   -1.403580   -0.793894
 O    3.330006   -0.219957   -1.172642
 O    2.399664   -2.456314   -1.988433
 O    3.136359   -2.250673    0.391953
 H    4.418792   -0.112118    2.962042
 H    5.622859    1.007988    2.269195
 H    5.229122   -0.277732    0.275033
 H    4.770615    2.671468    0.316981
 H    2.521332    3.454799   -0.726790
 H   -0.655881    0.786335    1.524791
 H   -1.848616    3.455046   -2.213195
 H   -3.867922    1.471664    1.463013
 H   -3.456709   -0.320916   -0.882478
 H   -5.225994    1.095298   -0.651233
 H   -3.955429   -2.386647    0.110527
 H   -5.867568   -1.115824    1.199261
 H   -2.959304   -1.969057    2.653840
 H   -0.651993   -1.747821    1.627865
 H   -1.608072   -3.084846    0.937064
 H    0.593681   -3.677365   -1.646828
 H    2.759968   -2.078023   -2.791948
 H    3.904948   -1.784173    0.802077
