59 
3v3l_ligand_dft.xyz
 N    5.760474    1.844058   -0.855931
 C    4.933546    2.178366    0.144159
 N    3.981707    1.450437    0.722232
 C    3.914301    0.227383    0.179610
 C    4.689297   -0.266475   -0.863554
 C    5.651678    0.617700   -1.384935
 N    6.453785    0.276363   -2.417875
 N    4.337867   -1.563989   -1.183182
 C    3.368636   -1.838479   -0.351847
 N    3.072424   -0.806722    0.512042
 P   -1.475045   -3.043141   -0.679871
 P   -3.922193    0.318477   -0.919954
 C   -0.423504    1.548158   -0.051167
 C    1.996787   -0.730173    1.467865
 O   -1.541847   -4.472649   -1.391441
 O   -3.861878   -0.622682    0.228253
 C   -0.227947    3.029406   -0.359188
 O    0.454827    3.683271    0.684612
 C    0.669815   -0.313292    0.848186
 O    0.658822    1.082250    0.676592
 O   -2.721714   -2.975031    0.280137
 O   -5.195713   -0.000008   -1.836831
 C   -1.667187    3.554783   -0.332350
 O   -1.769145    4.929396   -0.110392
 C   -0.330300   -0.854215    1.881297
 O   -0.420495    0.003103    2.988870
 O   -1.354785   -1.909125   -1.639214
 O   -2.682613    0.327689   -1.902068
 C   -2.285783    2.701382    0.791729
 O   -1.610427    1.450932    0.731475
 C    0.366717   -2.147405    2.320062
 O    1.757886   -2.005884    2.004332
 C   -3.773601    2.438780    0.691756
 O   -4.141946    1.855716   -0.564765
 C   -0.177695   -3.393300    1.647403
 O   -0.182168   -3.230247    0.220791
 H    5.063309    3.185607    0.533453
 H    7.215945    0.892217   -2.651359
 H    6.485618   -0.684438   -2.718353
 H    2.829380   -2.773510   -0.296238
 H   -0.567890    0.947682   -0.955585
 H    2.293291   -0.003374    2.232884
 H   -2.109353   -4.456444   -2.173759
 H    0.270700    3.182888   -1.323471
 H    1.216665    3.135957    0.930433
 H    0.536991   -0.818214   -0.116567
 H   -3.190105   -2.083724    0.283859
 H   -5.202769    0.512928   -2.656143
 H   -2.164087    3.327885   -1.280453
 H   -1.056319    5.151501    0.508494
 H   -1.320414   -1.037634    1.448603
 H   -0.792905    0.826202    2.638130
 H   -2.167092   -0.531022   -1.860019
 H   -2.091326    3.192218    1.756022
 H    0.257911   -2.262976    3.404391
 H   -4.096501    1.778956    1.502019
 H   -4.317454    3.383714    0.748387
 H    0.470342   -4.246559    1.856252
 H   -1.188187   -3.600480    2.008440
