33 
3v3v_ligand_xtb.xyz
 O    1.551950    2.954122   -0.093155
 C    1.202429    1.777522   -0.050434
 C   -0.240988    1.494036   -0.044408
 O   -0.990829    2.613730   -0.081371
 C    2.055207    0.606225   -0.009316
 C    3.464039    0.692810   -0.007991
 O    4.074253    1.881884   -0.039059
 C    1.457448   -0.664490    0.019882
 C    2.227817   -1.824605    0.077028
 C    3.606026   -1.732248    0.093739
 O    4.360038   -2.855572    0.165871
 C    4.217278   -0.474430    0.021029
 O    5.610755   -0.361646    0.012680
 O    0.126785   -0.837049    0.008023
 C   -0.731729    0.223503   -0.020018
 C   -2.136604   -0.176978   -0.030329
 C   -3.163319    0.753599    0.138714
 C   -4.486667    0.352194    0.130017
 O   -5.473253    1.266488    0.301685
 C   -4.802244   -1.001962   -0.054763
 O   -6.133732   -1.337806   -0.057168
 C   -3.786108   -1.926114   -0.223644
 C   -2.465393   -1.521922   -0.209687
 H   -0.324212    3.341057   -0.113001
 H    5.032932    1.735798   -0.000861
 H    1.752505   -2.788944    0.120438
 H    5.270725   -2.609363    0.385339
 H    5.968865   -0.827065   -0.753030
 H   -2.949353    1.797491    0.281504
 H   -6.321233    0.802861    0.264338
 H   -6.224442   -2.286967   -0.192761
 H   -4.032776   -2.969573   -0.367630
 H   -1.683907   -2.251352   -0.343303
