19 
3v4j_ligand_dft.xyz
 O   -3.622637   -0.765930   -0.002651
 C   -2.435531   -0.561467    0.025331
 C   -1.892131    0.877197   -0.141244
 O   -2.627907    1.817080   -0.304001
 C   -0.414109    1.059995   -0.098756
 C    0.373769   -0.012341    0.080346
 N    1.809704    0.183231    0.084444
 N    2.486600   -0.771929   -0.367878
 O    3.770376   -0.502359   -0.355717
 C    2.434662    1.429919    0.570589
 C   -1.435247   -1.638816    0.222852
 C   -0.119461   -1.382479    0.245189
 H   -0.052223    2.071471   -0.251878
 H    4.206448   -1.300192   -0.711555
 H    3.278485    1.162657    1.208443
 H    2.791798    2.006315   -0.286689
 H    1.691991    1.981381    1.139563
 H   -1.820221   -2.643892    0.359018
 H    0.599222   -2.179219    0.400260
