66 
3v4t_ligand_xtb.xyz
 C   -2.948174   -0.600154    0.953222
 C   -3.609066   -1.263579   -0.261640
 C   -3.618597   -0.224794   -1.384804
 C   -4.345725    1.051451   -0.926024
 C   -3.769677    1.566255    0.402351
 C   -4.707930    2.599105    1.041408
 C   -2.057863   -3.226996   -0.023698
 C   -1.402948   -4.295909   -0.854514
 N   -2.896775   -2.440184   -0.712612
 O   -1.609985   -0.333098    0.556133
 O   -4.241650   -0.772700   -2.523521
 O   -4.254770    2.021576   -1.932705
 O   -3.623495    0.520311    1.371649
 O   -5.915285    2.016354    1.449730
 O   -1.837606   -3.107347    1.178912
 N    2.454482    1.535177   -0.915614
 C    1.839450    2.397380   -0.026049
 N    0.505101    2.588005   -0.236652
 C   -0.270086    2.051684   -1.251529
 C    0.454341    1.174413   -2.133277
 C    1.763676    0.947460   -1.926326
 O    2.457020    2.976796    0.842397
 O   -1.443282    2.366779   -1.361549
 C    3.908020    1.356953   -0.780609
 C    4.314417    0.942994    0.661834
 O    4.948117    1.965850    1.363414
 C    5.296380   -0.220686    0.421066
 C    4.845100   -0.754044   -0.947361
 O    4.372676    0.382294   -1.655825
 O    6.618970    0.220229    0.353338
 C    3.775956   -1.847789   -0.821299
 O    2.861408   -1.511232    0.208624
 P    1.285839   -1.704289    0.025983
 O    0.945060   -2.910702    0.984333
 O    0.816560   -1.890145   -1.336010
 O    0.825898   -0.376881    0.789431
 P   -0.496904   -0.080013    1.672283
 O   -0.421875    1.242743    2.255225
 O   -0.606192   -1.288432    2.671836
 H   -2.962727   -1.268741    1.820376
 H   -4.643265   -1.530406   -0.000259
 H   -2.574166    0.036233   -1.619114
 H   -5.414764    0.834112   -0.803108
 H   -2.792082    2.020683    0.209580
 H   -4.959354    3.360079    0.300521
 H   -4.193087    3.065589    1.890787
 H   -2.094488   -4.724136   -1.574055
 H   -1.010343   -5.070120   -0.202613
 H   -0.570303   -3.833428   -1.382156
 H   -2.994268   -2.592416   -1.706924
 H   -4.549673   -0.026048   -3.055986
 H   -3.333980    2.332356   -1.960234
 H   -5.691867    1.284768    2.037888
 H    0.031495    3.138239    0.473776
 H   -0.073051    0.702042   -2.942429
 H    2.352629    0.312813   -2.570463
 H    4.379160    2.320074   -1.036147
 H    3.428318    0.579326    1.194596
 H    4.274057    2.648126    1.526524
 H    5.191842   -0.989739    1.197327
 H    5.696323   -1.139958   -1.514620
 H    6.669080    1.043792    0.862541
 H    3.237214   -1.966091   -1.765126
 H    4.257386   -2.794103   -0.557520
 H    1.154862   -2.777314    1.911014
 H   -1.024850   -2.083823    2.266174
