62 
3v5j_ligand_xtb.xyz
 C  -57.422067  -21.473663   27.199078
 C  -58.814056  -20.893663   26.944366
 O  -58.765460  -19.801811   26.058567
 C  -57.917769  -18.796063   26.566730
 C  -56.507486  -19.325205   26.816782
 N  -56.577039  -20.432500   27.757998
 C  -55.268014  -20.925343   28.142304
 C  -54.552618  -19.962103   29.090206
 O  -53.932058  -18.948497   28.330005
 C  -53.253309  -17.964556   28.980967
 C  -53.057529  -17.889936   30.345184
 C  -52.333245  -16.845234   30.936065
 C  -52.162104  -16.823710   32.447639
 C  -52.917749  -15.584087   32.989354
 C  -52.918931  -15.443785   34.508969
 C  -50.663240  -16.777478   32.813101
 C  -49.891856  -17.926584   32.173743
 O  -52.736716  -18.005720   32.979872
 C  -51.789950  -15.836642   30.163194
 C  -51.985750  -15.897887   28.788596
 N  -51.576040  -15.055832   27.801190
 C  -52.712217  -16.945898   28.176786
 C  -52.721316  -16.691356   26.783990
 C  -52.017546  -15.527813   26.589066
 C  -51.732688  -14.834709   25.368150
 C  -52.126516  -15.180073   24.056640
 S  -53.003046  -16.354623   23.148196
 C  -52.640370  -15.492552   21.685290
 C  -51.895569  -14.370682   21.856250
 C  -51.597336  -14.186848   23.225158
 N  -50.939592  -13.328392   24.036702
 N  -51.018324  -13.712390   25.321923
 H  -57.498118  -22.295964   27.914251
 H  -57.014314  -21.864660   26.249456
 H  -59.247270  -20.575814   27.905099
 H  -59.463934  -21.637782   26.480044
 H  -57.904843  -18.000650   25.819852
 H  -58.329253  -18.407180   27.510419
 H  -56.064957  -19.648362   25.857523
 H  -55.886412  -18.535792   27.236819
 H  -55.412339  -21.872378   28.667962
 H  -54.617636  -21.104697   27.269660
 H  -55.282322  -19.529666   29.786132
 H  -53.794534  -20.512443   29.663706
 H  -53.454106  -18.643458   31.002577
 H  -52.482850  -14.688999   32.544838
 H  -53.950065  -15.661954   32.640853
 H  -53.494368  -14.564574   34.790109
 H  -53.381584  -16.306898   34.984171
 H  -51.910777  -15.323185   34.898602
 H  -50.564640  -16.845861   33.899978
 H  -50.239242  -15.823887   32.498975
 H  -48.864595  -17.939655   32.531125
 H  -50.362195  -18.874840   32.423274
 H  -49.885964  -17.825006   31.091577
 H  -52.555839  -18.013922   33.925896
 H  -51.227304  -15.023941   30.594888
 H  -51.036850  -14.213545   27.902535
 H  -53.188237  -17.291449   26.029436
 H  -53.015831  -15.886298   20.760843
 H  -51.582091  -13.721941   21.059524
 H  -50.434024  -12.491561   23.799819
