54 
3v5l_ligand_xtb.xyz
 C   -5.595161    3.601694   -0.874561
 O   -4.534923    3.668130    0.050768
 C   -3.510750    2.792772   -0.061960
 C   -3.383955    1.832132   -1.066809
 C   -2.308574    0.971260   -1.065569
 C   -2.516083    2.887758    0.919023
 C   -1.434365    2.043085    0.902752
 C   -1.318088    1.048820   -0.079191
 C   -0.208015    0.143527   -0.103205
 C    1.141491    0.387234    0.061617
 C    1.916521    1.533957    0.350074
 C    3.273011    1.428348    0.340301
 C    3.930393    0.198012    0.050653
 C    5.441957    0.157918    0.064184
 C    6.004904    1.119693   -1.009868
 C    5.502767    0.764861   -2.404474
 C    5.974050    0.566539    1.458762
 C    5.425741   -0.335228    2.558240
 O    5.852666   -1.163923   -0.225210
 C    3.206881   -0.932189   -0.252121
 C    1.812963   -0.861570   -0.266176
 N    0.940578   -1.838397   -0.559610
 C   -0.273720   -1.313811   -0.440223
 C   -1.440018   -2.073231   -0.471505
 C   -2.729177   -1.860784    0.103972
 S   -3.629382   -0.827407    1.142495
 C   -4.928278   -1.981189    1.180881
 C   -4.702852   -3.099581    0.440712
 C   -3.428846   -3.048195   -0.160029
 N   -2.651211   -3.835128   -0.967860
 N   -1.509462   -3.306772   -1.106349
 H   -5.253522    3.815475   -1.891971
 H   -6.085347    2.623745   -0.851630
 H   -6.303925    4.367925   -0.564884
 H   -4.119478    1.750327   -1.851302
 H   -2.214059    0.236879   -1.851837
 H   -2.630110    3.635309    1.688061
 H   -0.690064    2.104462    1.681916
 H    1.432418    2.474151    0.570383
 H    3.870054    2.300166    0.560186
 H    7.096837    1.052972   -0.986054
 H    5.731009    2.146005   -0.765300
 H    5.688431   -0.285930   -2.612903
 H    4.432490    0.941353   -2.481079
 H    6.010746    1.366764   -3.154182
 H    5.715221    1.605174    1.664222
 H    7.065842    0.495659    1.438317
 H    4.354045   -0.190038    2.671643
 H    5.601700   -1.378621    2.308087
 H    5.910521   -0.114486    3.506277
 H    6.816023   -1.185693   -0.222504
 H    3.704353   -1.858156   -0.483647
 H   -5.791187   -1.747254    1.773909
 H   -5.389957   -3.920266    0.353767
