69 
3v66_ligand_dft.xyz
 C    0.510552    1.941118    2.586938
 O   -0.118578    0.932106    1.807707
 C   -0.372527    1.295190    0.509513
 C   -1.476596    2.119272    0.217690
 O   -2.210872    2.511550    1.287078
 C   -3.389020    3.256209    1.037053
 C   -1.743215    2.458486   -1.106127
 C   -0.933577    1.954012   -2.125679
 C    0.121952    1.102882   -1.841207
 C    0.406134    0.767916   -0.513703
 C    1.540223   -0.174881   -0.183777
 C    2.902324    0.482440   -0.078967
 O    1.647984   -1.125925   -1.232120
 C    1.823720   -2.468557   -0.842114
 C    2.964666   -2.670307    0.128966
 C    3.284135   -3.840293    0.774230
 C    4.413108   -3.601699    1.599292
 C    4.753733   -2.290647    1.437816
 N    3.883400   -1.705034    0.532540
 C    4.015422   -0.336106    0.169306
 C    5.296372    0.212870    0.112094
 C    5.485735    1.568681   -0.126466
 C    4.377289    2.375375   -0.330508
 C    3.096665    1.836090   -0.327892
Cl    4.588625    4.084858   -0.627692
 C    0.526138   -3.066532   -0.250032
 C   -0.648128   -2.691195   -1.147261
 O   -0.563258   -2.898690   -2.349502
 N   -1.744403   -2.087413   -0.583577
 C   -2.591589   -1.302359   -1.483316
 C   -4.048456   -1.257834   -1.045595
 C   -4.164464   -0.807989    0.411815
 C   -3.364185   -1.788359    1.267507
 C   -1.895446   -1.837422    0.847794
 C   -5.614302   -0.717775    0.880359
 C   -6.393884    0.387351    0.210526
 O   -5.928181    1.363591   -0.333329
 O   -7.721403    0.191613    0.304644
 H   -0.127811    2.826507    2.670240
 H    1.478160    2.218985    2.150911
 H    0.668983    1.508820    3.576324
 H   -3.838140    3.433224    2.015173
 H   -3.159308    4.221225    0.567744
 H   -4.090377    2.693117    0.410736
 H   -2.586591    3.091804   -1.354919
 H   -1.156058    2.212999   -3.155989
 H    0.718486    0.666932   -2.634025
 H    1.312885   -0.667139    0.769324
 H    2.028216   -2.979086   -1.786314
 H    2.757454   -4.777913    0.659951
 H    4.903763   -4.308074    2.253660
 H    5.507405   -1.696936    1.931002
 H    6.161655   -0.428273    0.237149
 H    6.485561    1.985898   -0.166432
 H    2.242903    2.472683   -0.531435
 H    0.422683   -2.733886    0.782547
 H    0.618131   -4.157244   -0.231025
 H   -2.487714   -1.735009   -2.477395
 H   -2.200839   -0.277356   -1.521796
 H   -4.506636   -2.250809   -1.155454
 H   -4.583868   -0.568222   -1.706744
 H   -3.709136    0.187263    0.507761
 H   -3.806156   -2.790430    1.177145
 H   -3.403516   -1.506554    2.326637
 H   -1.411878   -0.896718    1.137914
 H   -1.416900   -2.643529    1.404734
 H   -6.143165   -1.665036    0.724613
 H   -5.657617   -0.519062    1.960329
 H   -8.142390    0.956777   -0.119688
