69 
3v66_ligand_xtb.xyz
 C   -0.478270    2.123372   -2.718734
 O   -0.050242    1.033821   -1.924854
 C    0.335340    1.349940   -0.634439
 C    1.445097    2.176781   -0.372326
 O    2.114420    2.661862   -1.455828
 C    3.291148    3.411450   -1.240999
 C    1.800454    2.430686    0.946611
 C    1.084073    1.864186    1.988466
 C    0.018000    1.025061    1.733488
 C   -0.355093    0.761526    0.422301
 C   -1.491512   -0.189465    0.137205
 C   -2.848104    0.482585    0.143640
 O   -1.529277   -1.181413    1.155109
 C   -1.802021   -2.492221    0.726238
 C   -2.965772   -2.618092   -0.215868
 C   -3.321413   -3.758629   -0.891114
 C   -4.468551   -3.472365   -1.655889
 C   -4.787798   -2.171489   -1.414582
 N   -3.881304   -1.638325   -0.531815
 C   -3.977105   -0.307667   -0.102648
 C   -5.243115    0.261060    0.035629
 C   -5.396853    1.592649    0.366114
 C   -4.270067    2.370968    0.570110
 C   -3.004933    1.817006    0.479460
Cl   -4.438950    4.043949    0.966426
 C   -0.550959   -3.158094    0.088142
 C    0.633768   -2.858554    0.997433
 O    0.608317   -3.230036    2.156228
 N    1.682434   -2.152073    0.501229
 C    2.539518   -1.485433    1.469814
 C    4.005991   -1.479774    1.062486
 C    4.139227   -0.867440   -0.329140
 C    3.333212   -1.741128   -1.281949
 C    1.858073   -1.741063   -0.876045
 C    5.603944   -0.736114   -0.753906
 C    6.269913    0.420462   -0.054251
 O    5.751601    1.477623    0.195023
 O    7.541946    0.156503    0.255284
 H    0.326057    2.844189   -2.878018
 H   -1.336128    2.625586   -2.258349
 H   -0.778812    1.692876   -3.672212
 H    3.667493    3.646977   -2.235370
 H    3.078604    4.342882   -0.707361
 H    4.043230    2.835844   -0.694289
 H    2.649940    3.055518    1.168439
 H    1.376972    2.072998    3.005999
 H   -0.526624    0.548071    2.531140
 H   -1.325967   -0.649170   -0.846957
 H   -2.013751   -3.020171    1.666278
 H   -2.818368   -4.703266   -0.840923
 H   -4.986674   -4.147393   -2.307264
 H   -5.562548   -1.568508   -1.842361
 H   -6.120381   -0.351822   -0.099393
 H   -6.381189    2.020039    0.471044
 H   -2.135544    2.425175    0.673381
 H   -0.432447   -2.794681   -0.928215
 H   -0.707505   -4.235602    0.066924
 H    2.400587   -2.000850    2.421444
 H    2.198206   -0.448279    1.580100
 H    4.399106   -2.498496    1.054286
 H    4.568107   -0.899934    1.796103
 H    3.702591    0.137027   -0.316779
 H    3.723196   -2.761074   -1.259979
 H    3.402571   -1.368341   -2.305173
 H    1.452490   -0.734349   -1.027402
 H    1.334389   -2.431970   -1.535955
 H    6.168457   -1.646717   -0.553999
 H    5.657234   -0.528152   -1.826263
 H    7.959674    0.919153    0.686828
