67 
3v6s_ligand_xtb.xyz
 C    5.548069    2.695483   -0.997448
 N    5.102654    3.895022   -1.312317
 C    5.791502    4.946596   -0.899258
 C    6.957339    4.845592   -0.154350
 C    7.416580    3.584997    0.184720
 C    6.701256    2.468084   -0.242595
 C    7.114647    1.097420    0.076988
 N    6.140673    0.192330    0.146657
 C    8.447695    0.743107    0.284342
 C    8.692116   -0.590407    0.580486
 N    7.732631   -1.488569    0.662044
 C    6.482584   -1.058877    0.433219
 N    5.545863   -2.037898    0.520492
 C    4.173412   -2.005189    0.338516
 C    3.469728   -3.207635    0.432715
 C    2.102525   -3.252248    0.257962
 C    3.465698   -0.834463    0.070351
 C    2.099096   -0.880096   -0.108994
 C    1.401700   -2.082656   -0.020725
 N    0.011624   -2.048775   -0.208414
 C   -0.874198   -3.080462   -0.209817
 O   -0.593426   -4.248865   -0.048893
 C   -2.293981   -2.651878   -0.440982
 C   -3.113924   -3.491253   -1.189509
 C   -4.438874   -3.159998   -1.397286
 C   -4.974106   -2.009104   -0.843753
 C   -4.167855   -1.182412   -0.070547
 C   -2.825990   -1.499068    0.120028
 N   -4.646555   -0.011640    0.553365
 C   -5.901328    0.465983    0.613950
 O   -6.881393   -0.031172    0.086320
 C   -6.019638    1.757146    1.431805
 C   -7.488705    2.157427    1.581704
 C   -8.079760    2.659598    0.259498
 N   -9.529884    2.333298    0.153876
 C  -10.267563    3.317106   -0.656411
 C   -9.727181    0.967907   -0.375207
 H    4.971080    1.858639   -1.366624
 H    5.386006    5.910412   -1.177708
 H    7.486706    5.731095    0.161401
 H    8.304112    3.471729    0.790237
 H    9.249895    1.455781    0.201598
 H    9.694684   -0.956910    0.760056
 H    5.948097   -2.942433    0.731240
 H    4.004627   -4.121727    0.645170
 H    1.575196   -4.188014    0.331124
 H    3.997529    0.098938    0.008219
 H    1.564375    0.035803   -0.322422
 H   -0.348548   -1.132094   -0.434559
 H   -2.693390   -4.397886   -1.594868
 H   -5.070125   -3.805546   -1.987780
 H   -6.010908   -1.763089   -0.995725
 H   -2.213279   -0.859637    0.742541
 H   -3.935756    0.496941    1.063490
 H   -5.451150    2.550671    0.943048
 H   -5.588773    1.591670    2.420018
 H   -7.582323    2.923799    2.351886
 H   -8.029431    1.269127    1.915291
 H   -7.574151    2.182960   -0.581343
 H   -7.952265    3.740357    0.180089
 H   -9.911278    2.358669    1.106172
 H  -10.219148    4.304273   -0.200062
 H   -9.833962    3.366530   -1.653948
 H  -11.312155    3.022956   -0.743574
 H   -9.583272    0.976967   -1.453799
 H   -8.987535    0.287550    0.049033
 H  -10.730415    0.612168   -0.153968
