74 
3v7c_ligand_xtb.xyz
 N    0.077047   -4.657324    1.552036
 C   -1.190846   -4.303189    1.552501
 N   -1.762140   -3.278664    0.940196
 C   -0.881869   -2.515860    0.288970
 C    0.503529   -2.743851    0.252236
 C    0.975562   -3.915075    0.885766
 N    2.245657   -4.319337    0.872218
 N    1.110245   -1.750868   -0.478542
 C    0.142935   -0.991723   -0.889907
 N   -1.095931   -1.397002   -0.476286
 C   -6.418397   -0.230234   -2.191254
 C   -6.563440   -2.398258   -0.898030
 O    4.438643   -3.323514   -0.584831
 C   -1.484966    3.185821    1.543115
 C    1.472019    3.216486   -0.058706
 C    0.944452    4.622829   -0.328398
 C    2.378184    2.712810   -1.181048
 C    0.066791    5.148162    0.816444
 C    2.926951    1.313753   -0.893390
 C    6.365082    0.449348   -0.952464
 C   -3.578233    1.807539    1.598211
 N   -2.358869    4.824110    0.366280
 N   -3.291728    3.979256    0.586735
 N    5.992605   -1.764656    0.106779
 N    3.870719   -1.179770   -0.007549
 O   -2.254658    0.517459    0.070485
 O   -5.662892   -0.397731    0.102960
 O   -4.439918   -1.410875   -1.539693
 S    5.594565    2.069542   -0.724210
 C    4.730966   -2.200263   -0.219051
 C   -1.209536    4.391978    0.930976
 C   -3.586097    0.889546    0.377090
 C    4.104761    1.340216    0.072713
 C   -4.345005   -0.442684    0.558681
 C   -3.602924   -1.379129   -0.409771
 C   -2.288347   -0.647761   -0.732721
 N   -2.799653    2.975320    1.304971
 C   -5.763947   -1.112973   -1.132118
 C    5.999258   -0.339018    0.306976
 C    4.510980   -0.044790    0.611790
 H   -1.858810   -4.943727    2.113170
 H    2.941325   -3.913423    0.245448
 H    2.438109   -5.215150    1.288102
 H    0.267058   -0.122213   -1.504755
 H   -5.836495    0.677634   -2.324018
 H   -7.421128    0.033074   -1.871294
 H   -6.458533   -0.768295   -3.132846
 H   -7.556502   -2.144414   -0.541053
 H   -6.636002   -2.955043   -1.827125
 H   -6.063856   -3.011675   -0.152533
 H   -0.886981    2.503721    2.108465
 H    2.022080    3.222655    0.885232
 H    0.629453    2.529346    0.051915
 H    1.788783    5.302379   -0.460897
 H    0.361843    4.626934   -1.251641
 H    3.212227    3.403423   -1.325808
 H    1.804858    2.687798   -2.109800
 H   -0.179701    6.193313    0.625915
 H    0.618493    5.081420    1.757097
 H    3.243319    0.836084   -1.822094
 H    2.134550    0.706864   -0.455035
 H    7.436232    0.587174   -1.077422
 H    5.946140   -0.027621   -1.840797
 H   -3.138137    1.288677    2.452564
 H   -4.604252    2.108390    1.819984
 H    6.803617   -2.252597   -0.233258
 H    2.863150   -1.320748   -0.101410
 H   -4.026994    1.432994   -0.473457
 H    3.878783    2.004849    0.907815
 H   -4.315902   -0.778831    1.599398
 H   -3.417674   -2.379670   -0.004938
 H   -2.298104   -0.366338   -1.800100
 H    6.655509   -0.055935    1.134708
 H    4.328246   -0.065990    1.696933
