67 
3v9b_ligand_dft.xyz
 C   -3.883312    0.093571   -0.825125
 C   -4.525790   -0.990244   -0.244925
 C   -3.806714   -2.127054    0.116583
 C   -2.432343   -2.178198   -0.101781
 C   -1.806689   -1.114929   -0.748925
 C   -2.512515    0.025468   -1.110083
 O   -4.641690    1.204518   -1.116417
 C   -4.174343    2.439048   -0.724778
 F   -5.246419    3.239284   -0.666073
 F   -3.636754    2.364875    0.523692
 O   -1.932072    1.112259   -1.670215
 C   -0.540536    1.324580   -1.388279
 C   -0.195960    2.755316   -1.670788
 C    0.711071    3.473641   -0.704347
 C   -0.744623    3.835593   -0.774744
 C   -1.606049   -3.291280    0.526996
 O    1.369548    1.764582    2.328028
 C   -0.074696   -4.305263   -1.215127
 C    1.139580   -3.917853   -1.734884
 C    1.539453   -2.816312   -0.939296
 N    0.634479   -2.578278    0.003122
 N   -0.337080   -3.487509   -0.162934
 C    2.691984   -1.903138   -1.046932
 C    2.637877   -0.682900   -0.369731
 C    3.693600    0.229025   -0.420400
 C    4.816017   -0.077677   -1.202850
 C    4.857456   -1.287461   -1.888182
 C    3.816294   -2.207204   -1.814490
 N    3.564461    1.401926    0.340544
 C    4.396969    2.494527    0.351555
 O    5.405842    2.597482   -0.326496
 C   -1.404328   -3.035918    2.054874
 C    3.937831    3.606172    1.276928
 C   -0.730156   -1.727433    2.391458
 C   -1.375347   -0.499729    2.243977
 C   -0.660279    0.682761    2.282983
 N    0.682237    0.679115    2.470282
 C    1.301981   -0.488045    2.787101
 C    0.620126   -1.682870    2.739173
 H   -5.590019   -0.910037   -0.050990
 H   -4.318010   -2.950574    0.608762
 H   -0.738894   -1.149254   -0.912334
 H   -3.427350    2.856688   -1.397806
 H   -0.358168    1.091928   -0.331649
 H    0.071009    0.647368   -1.996593
 H   -0.089003    3.003772   -2.723167
 H    1.439160    4.165884   -1.115026
 H    1.042954    2.933575    0.179107
 H   -1.386254    3.530926    0.047178
 H   -1.024801    4.777698   -1.235476
 H   -2.145884   -4.239933    0.437656
 H   -0.764631   -5.083138   -1.509411
 H    1.654139   -4.356311   -2.576658
 H    1.747995   -0.445065    0.203792
 H    5.629916    0.630379   -1.265336
 H    5.733643   -1.518430   -2.487162
 H    3.882306   -3.154309   -2.341879
 H    2.761624    1.450557    0.971378
 H   -0.828610   -3.871568    2.465607
 H   -2.402471   -3.072683    2.504588
 H    3.419140    4.366663    0.683343
 H    4.820413    4.072909    1.718430
 H    3.259577    3.261300    2.060900
 H   -2.436085   -0.440106    2.023977
 H   -1.088477    1.659465    2.101827
 H    2.362978   -0.392218    2.973211
 H    1.181316   -2.597594    2.893113
