81 
3vb5_ligand_xtb.xyz
 C    1.932343   -1.214758    1.755745
 O    2.630264   -2.202151    1.661652
 O    2.412372    0.022089    2.039210
 C    3.791758    0.102077    2.392672
 C    4.665868    0.386836    1.200048
 C    4.516264    1.580175    0.503351
 C    5.308895    1.849213   -0.599237
 C    6.255838    0.928258   -1.018289
 C    6.407347   -0.264246   -0.329725
 C    5.614868   -0.534420    0.775354
 N    0.604726   -1.173006    1.578382
 C   -0.172781   -2.386350    1.393032
 C   -1.505646   -1.980803    0.756136
 O   -2.448275   -1.615008    1.444720
 C   -0.419947   -3.095191    2.724137
 N   -1.522771   -2.061418   -0.580501
 C   -2.628338   -1.659510   -1.449292
 C   -2.671857   -0.126147   -1.460301
 O   -2.358582    0.522956   -2.446132
 C   -3.966109   -2.314719   -1.067738
 C   -5.071491   -1.785871   -1.977703
 C   -3.849744   -3.832644   -1.183572
 N   -3.013864    0.424452   -0.283891
 C   -2.658165    1.800793    0.030743
 C   -1.129772    1.738983    0.179315
 O   -0.585570    1.428207    1.223872
 C   -3.335949    2.243487    1.319875
 C   -4.863727    2.133803    1.284902
 C   -5.424150    2.432245    2.673682
 C   -5.473783    3.081639    0.254800
 C    1.767779    2.901635   -1.147748
 N    1.465876    4.019085   -0.675979
 C    0.937582    1.634804   -1.151334
 N   -0.468581    1.949617   -0.972636
 C    1.137157    0.844900   -2.453497
 C    2.404494   -0.008605   -2.439560
 C    2.202839   -1.279285   -1.625709
 O    1.121859   -1.835894   -1.541909
 N    3.312613   -1.783693   -1.066935
 H    3.852853    0.922204    3.113816
 H    4.093425   -0.837143    2.867801
 H    3.777208    2.296506    0.830046
 H    5.197387    2.786517   -1.124619
 H    6.876761    1.140936   -1.875746
 H    7.146014   -0.984150   -0.650160
 H    5.730730   -1.465334    1.310358
 H    0.132673   -0.286782    1.734836
 H    0.394977   -3.036868    0.719147
 H   -0.946878   -4.030406    2.553621
 H   -1.027399   -2.463145    3.366986
 H    0.529504   -3.304400    3.208818
 H   -0.629629   -2.202434   -1.041065
 H   -2.358678   -1.976298   -2.461957
 H   -4.204983   -2.063730   -0.031967
 H   -4.850759   -2.015611   -3.018011
 H   -6.021905   -2.245231   -1.717716
 H   -5.171948   -0.707492   -1.880721
 H   -3.062295   -4.206287   -0.533836
 H   -4.785880   -4.302693   -0.892871
 H   -3.621780   -4.121862   -2.207529
 H   -3.099450   -0.198295    0.521204
 H   -2.932391    2.435389   -0.816738
 H   -3.046827    3.276654    1.524661
 H   -2.944389    1.622951    2.129178
 H   -5.133073    1.107581    1.015232
 H   -5.012709    1.744777    3.408602
 H   -6.506879    2.331449    2.678407
 H   -5.173050    3.447413    2.974017
 H   -6.559440    3.039330    0.303420
 H   -5.163378    4.106531    0.448510
 H   -5.173711    2.812146   -0.754541
 H    2.741418    2.815384   -1.620125
 H    0.545422    4.060204   -0.236807
 H    1.247463    1.032297   -0.284376
 H   -1.010818    2.049291   -1.822007
 H    0.281135    0.181153   -2.596179
 H    1.164343    1.544327   -3.291952
 H    2.637059   -0.320834   -3.461036
 H    3.258043    0.549370   -2.052121
 H    3.208734   -2.519850   -0.379661
 H    4.171134   -1.258206   -1.037814
