66 
3vb7_ligand_xtb.xyz
 N   -3.189995   -1.152398   -1.586050
 C   -3.326564    0.259603   -2.014940
 C   -2.126622    1.107870   -1.549402
 O   -1.402972    1.647665   -2.361902
 C   -4.638019    0.845749   -1.511227
 N   -1.982670    1.258228   -0.225436
 C   -0.985672    2.181216    0.302751
 C    0.334097    1.404448    0.402300
 O    0.610685    0.768731    1.413103
 C   -1.416134    2.743354    1.662420
 C   -2.784811    3.410813    1.562545
 C   -0.372998    3.747191    2.148514
 N    1.058944    1.410176   -0.721343
 C    2.332175    0.719629   -0.956318
 C    2.086893   -0.795678   -1.079528
 O    2.302628   -1.418967   -2.096187
 C    3.376592    1.060100    0.112888
 C    4.680209    0.266542   -0.042917
 C    5.622519    0.627531    1.103512
 C    5.352555    0.535639   -1.386812
 C   -0.301956   -2.695205   -0.769802
 N   -0.721390   -1.827165   -1.579688
 C    0.944331   -2.642927    0.067355
 N    1.554462   -1.337250    0.037480
 C    0.618880   -3.048060    1.515622
 C   -0.434292   -2.154924    2.198302
 C   -1.837754   -2.352674    1.675099
 O   -2.424272   -1.520660    0.987273
 N   -2.408765   -3.520277    1.998399
 H   -3.269563   -1.244892   -0.554700
 H   -2.147717   -1.536547   -1.780324
 H   -3.896512   -1.731783   -2.039618
 H   -3.297799    0.286055   -3.108900
 H   -5.485237    0.314866   -1.939753
 H   -4.715191    1.889023   -1.803676
 H   -4.700196    0.788644   -0.426971
 H   -2.431492    0.645208    0.440774
 H   -0.886435    2.992686   -0.425492
 H   -1.462263    1.911574    2.373463
 H   -3.062248    3.825950    2.527207
 H   -3.557029    2.707132    1.261789
 H   -2.757199    4.221997    0.838812
 H   -0.664378    4.145863    3.115967
 H   -0.285788    4.575473    1.449099
 H    0.600011    3.275603    2.255370
 H    0.664055    1.897493   -1.516269
 H    2.688746    1.055896   -1.932375
 H    3.594842    2.128385    0.046870
 H    2.961783    0.869015    1.103271
 H    4.448796   -0.802994    0.019648
 H    6.534126    0.039361    1.043913
 H    5.154878    0.437104    2.066961
 H    5.891848    1.679888    1.054192
 H    5.484330    1.604209   -1.541774
 H    6.332490    0.066383   -1.410878
 H    4.768919    0.126992   -2.207348
 H   -0.915394   -3.582606   -0.635951
 H   -0.110725   -1.027252   -1.732827
 H    1.645600   -3.374660   -0.364128
 H    1.379981   -0.712813    0.822989
 H    0.292705   -4.089570    1.523543
 H    1.541864   -2.981296    2.092434
 H   -0.434861   -2.389254    3.264461
 H   -0.174327   -1.100722    2.091355
 H   -1.964811   -4.161724    2.633460
 H   -3.369039   -3.703343    1.751408
