41 
3vbd_ligand_xtb.xyz
 C   -5.974105   -2.372292    0.594208
 O   -4.779961   -2.522656   -0.145126
 C   -3.915918   -1.501211   -0.224591
 C   -4.084814   -0.256059    0.374926
 C   -2.759396   -1.730324   -0.983392
 C   -1.810833   -0.748004   -1.117105
 C   -1.975307    0.494345   -0.503441
 C   -3.126291    0.739939    0.233895
 C   -3.354929    2.071245    0.906475
 C   -2.487675    3.156034    0.289782
 N   -1.087724    2.668595    0.273413
 C   -0.893506    1.534796   -0.694539
 C    0.491678    0.968801   -0.471808
 C    0.746426    0.231247    0.682511
 C    2.017005   -0.260076    0.921765
 C    1.512296    1.208343   -1.384281
 C    2.783876    0.713228   -1.143183
 C    3.021178   -0.010835    0.007013
 S    4.677202   -0.621454    0.339818
 O    5.599531    0.224995   -0.348408
 O    4.784615   -0.830154    1.749536
 N    4.606444   -2.101000   -0.431627
 H   -5.767676   -2.171354    1.649222
 H   -6.601617   -1.577567    0.181274
 H   -6.494005   -3.323705    0.504442
 H   -4.965721   -0.040028    0.957811
 H   -2.638561   -2.691325   -1.454249
 H   -0.923046   -0.933917   -1.701088
 H   -3.140188    1.983912    1.976471
 H   -4.404164    2.353254    0.815763
 H   -2.547889    4.082222    0.863541
 H   -2.793569    3.354975   -0.738960
 H   -0.847147    2.314688    1.208848
 H   -0.429552    3.420423    0.043992
 H   -0.961942    1.958392   -1.704256
 H   -0.053275    0.021794    1.379239
 H    2.251629   -0.821218    1.811362
 H    1.315360    1.773130   -2.283581
 H    3.600273    0.895151   -1.822674
 H    5.254557   -2.167113   -1.199727
 H    4.708687   -2.874153    0.205538
