20 
3vbt_ligand_xtb.xyz
 C  -18.495669  -35.876168    2.199284
 C  -17.595037  -34.901725    2.543829
 N  -16.916721  -34.582387    1.423880
 N  -17.325792  -35.292385    0.376360
 C  -18.293123  -36.096472    0.816377
 C  -18.984218  -37.027676   -0.063969
 C  -19.967375  -37.872929    0.449488
 C  -20.632445  -38.757557   -0.374244
Cl  -21.847554  -39.795582    0.295266
 C  -20.341040  -38.825941   -1.728486
 C  -19.370550  -37.995958   -2.247840
 C  -18.680652  -37.094411   -1.437578
 O  -17.746809  -36.321731   -2.016930
 H  -19.197699  -36.356538    2.846679
 H  -17.394839  -34.426092    3.482200
 H  -16.179872  -33.904372    1.312239
 H  -20.212142  -37.839867    1.498437
 H  -20.867263  -39.520445   -2.363658
 H  -19.121307  -38.026317   -3.296567
 H  -17.343894  -35.748449   -1.330766
