22 
3vbv_ligand_dft.xyz
 C    1.255297   -1.607212   -0.134385
 C   -0.033578   -2.075956   -0.139125
 C   -1.114534   -1.165671   -0.058301
 C   -2.482062   -1.533543   -0.048102
 C   -3.441743   -0.552998    0.025847
 C   -3.110047    0.819055    0.088980
 C   -1.790017    1.203621    0.078783
 O   -1.423925    2.491635    0.132584
 C   -0.767132    0.206598    0.008098
 N    0.505149    0.663569    0.007055
 C    1.484619   -0.209658   -0.053457
 C    2.881210    0.373317   -0.058147
 O    3.133439    1.451594   -0.553622
 N    3.840486   -0.432461    0.503146
 H    2.094344   -2.289035   -0.225736
 H   -0.235605   -3.141256   -0.212942
 H   -2.756108   -2.582860   -0.099264
 H   -4.491411   -0.831402    0.034264
 H   -3.884414    1.576263    0.142642
 H   -0.447396    2.494117    0.094396
 H    4.751100   -0.009335    0.613407
 H    3.581861   -1.125414    1.188983
