22 
3vbv_ligand_xtb.xyz
 C    1.257948   -1.596619   -0.153299
 C   -0.027955   -2.064494   -0.162345
 C   -1.103956   -1.156144   -0.070514
 C   -2.461769   -1.523264   -0.059331
 C   -3.428964   -0.556564    0.027483
 C   -3.104132    0.803311    0.101365
 C   -1.787744    1.203468    0.090105
 O   -1.434806    2.497610    0.152733
 C   -0.763402    0.219060    0.008549
 N    0.504766    0.663055    0.010546
 C    1.482242   -0.204405   -0.058792
 C    2.873453    0.359231   -0.073586
 O    3.192772    1.328847   -0.720570
 N    3.757327   -0.339614    0.684762
 H    2.096526   -2.270640   -0.243535
 H   -0.234240   -3.123009   -0.240681
 H   -2.724146   -2.568981   -0.119606
 H   -4.471088   -0.839502    0.037366
 H   -3.880259    1.549025    0.164984
 H   -0.462124    2.528245    0.102738
 H    4.698642    0.010271    0.759626
 H    3.463989   -1.062624    1.316835
