18 
3vbx_ligand_dft.xyz
 C   -3.200321    1.023583    0.286010
 C   -3.513349   -0.423415   -0.019919
 O   -4.615896   -0.841153   -0.217961
 O   -2.471771   -1.312914   -0.005152
 C   -1.161489   -0.911185    0.024094
 C   -0.212465   -1.929721    0.039007
 C    1.135262   -1.606276    0.032958
 C    1.534333   -0.267962    0.003041
Br    3.378434    0.151829   -0.009645
 C    0.594600    0.745021   -0.016624
 C   -0.766510    0.426915    0.002079
 C   -1.786383    1.495711    0.004742
 O   -1.526310    2.668838   -0.150740
 H   -3.368967    1.157076    1.364781
 H   -3.926621    1.658747   -0.223739
 H   -0.543657   -2.961916    0.049326
 H    1.881753   -2.392636    0.047358
 H    0.882066    1.790513   -0.041660
