18 
3vbx_ligand_xtb.xyz
 C   -3.151555    0.991469    0.438764
 C   -3.494342   -0.419033    0.018593
 O   -4.607297   -0.797514   -0.192547
 O   -2.471514   -1.303518   -0.070271
 C   -1.165336   -0.917254   -0.007395
 C   -0.206856   -1.927052   -0.012609
 C    1.135457   -1.605723    0.000345
 C    1.524819   -0.271005   -0.002127
Br    3.373195    0.160362    0.013242
 C    0.587318    0.741574   -0.014659
 C   -0.768765    0.423458   -0.002789
 C   -1.792274    1.486840   -0.007577
 O   -1.572285    2.633100   -0.303538
 H   -3.143747    0.998312    1.536161
 H   -3.942355    1.670168    0.114096
 H   -0.533331   -2.954206   -0.027824
 H    1.881149   -2.385373    0.006088
 H    0.874447    1.782241   -0.024425
