24 
3vd7_ligand_xtb.xyz
 C    0.322956    1.214051    0.152905
 C    1.657467    0.571619    0.234123
 C    1.614011   -0.752966   -0.549986
 C    0.377152   -1.571940   -0.131171
 C   -0.919175   -0.852373   -0.523100
 C   -2.160488   -1.451287    0.168993
 N   -0.006696    2.466211    0.376673
 O    2.682769    1.371365   -0.300114
 O    2.742803   -1.537646   -0.266978
 O    0.383039   -1.779543    1.257798
 N   -0.799171    0.536660   -0.167966
 O   -3.348282   -0.969892   -0.380233
 N   -1.804348    1.415122   -0.124018
 N   -1.316310    2.539139    0.196175
 H    1.866856    0.343894    1.295532
 H    1.563184   -0.519684   -1.625079
 H    0.415413   -2.536660   -0.658861
 H   -1.064463   -0.918639   -1.609610
 H   -2.159555   -2.532215    0.015880
 H   -2.092892   -1.249898    1.245836
 H    2.542095    2.282652   -0.015578
 H    3.525692   -0.994678   -0.420721
 H    1.231405   -2.184900    1.480698
 H   -3.376229   -0.006688   -0.268510
