81 
3vf7_ligand_xtb.xyz
 O   -6.948608    1.757661   -1.672392
 C   -7.561498    2.946993   -1.227862
 C   -6.020979    1.164463   -0.889428
 C   -5.458068   -0.011995   -1.398946
 C   -4.505258   -0.700705   -0.680180
 C   -4.107277   -0.217510    0.556109
 C   -4.649463    0.942440    1.070898
 C   -5.608372    1.638561    0.356245
 S   -2.855256   -1.049596    1.514075
 O   -3.124471   -0.873729    2.911132
 O   -2.731191   -2.405461    1.038835
 N   -1.445055   -0.237671    1.178965
 C   -0.846200    0.565652    2.210726
 C    0.501006    0.000755    2.706091
 C    0.441489   -1.509837    3.003864
 N    1.521248    0.114195    1.695221
 C    2.200995   -1.008653    1.425102
 O    3.079727   -1.108655    0.589795
 C    1.682170   -2.106245    2.334499
 C   -1.073253   -0.057269   -0.207819
 C   -0.444124   -1.316394   -0.839723
 O   -1.430417   -2.206802   -1.292120
 C    0.432954   -0.939093   -2.055476
 N    1.546751   -0.110189   -1.664656
 C    1.557021    1.216655   -1.870673
 O    0.677310    1.856848   -2.403090
 O    2.704353    1.764805   -1.399749
 C    4.259199    3.596205   -1.303832
 C    2.798143    3.183354   -1.507424
 C    2.038667    3.871684   -0.370904
 C    3.016035    3.854347    0.805324
 O    2.988614    2.627451    1.521495
 C    4.220517    1.933114    1.341383
 C    5.250259    3.003784    0.999429
 C    4.418708    3.987674    0.178411
 C    0.933474   -2.197799   -2.788519
 C    3.185484   -2.872319   -1.895523
 C    3.986257   -3.643577   -1.072422
 C    3.420208   -4.611218   -0.262099
 C    2.049867   -4.810037   -0.286503
 C    1.250709   -4.040328   -1.112850
 C    1.809143   -3.056668   -1.920836
 H   -6.829200    3.748346   -1.091868
 H   -8.111311    2.790118   -0.295088
 H   -8.259719    3.227316   -2.014534
 H   -5.790215   -0.360864   -2.363212
 H   -4.068514   -1.608994   -1.062900
 H   -4.325888    1.283268    2.041557
 H   -6.026105    2.539692    0.775196
 H   -1.544577    0.561358    3.048954
 H   -0.702656    1.595485    1.863728
 H    0.791384    0.580645    3.593625
 H    0.419194   -1.699331    4.074767
 H   -0.469374   -1.924366    2.570037
 H    1.816003    1.021772    1.354496
 H    2.468488   -2.339434    3.055005
 H    1.480756   -3.011395    1.763290
 H   -0.368314    0.770746   -0.266934
 H   -1.959313    0.208369   -0.797801
 H    0.194970   -1.800217   -0.087303
 H   -1.938852   -2.497851   -0.510750
 H   -0.179782   -0.346611   -2.743930
 H    2.294095   -0.525244   -1.114094
 H    4.910371    2.765990   -1.571361
 H    4.492765    4.441526   -1.949407
 H    2.403296    3.474728   -2.486625
 H    1.815749    4.901027   -0.649403
 H    1.106575    3.359015   -0.140267
 H    2.786993    4.652187    1.522895
 H    4.436227    1.402732    2.271248
 H    4.125500    1.205399    0.527737
 H    5.609437    3.488983    1.908609
 H    6.099701    2.602223    0.453132
 H    4.800541    5.005049    0.266719
 H    1.485456   -1.874826   -3.672952
 H    0.053563   -2.758870   -3.101797
 H    3.635086   -2.119340   -2.526845
 H    5.054100   -3.484218   -1.059093
 H    4.043653   -5.210690    0.385424
 H    1.601776   -5.569802    0.339089
 H    0.182202   -4.197877   -1.134849
