45 
3vf8_ligand_xtb.xyz
 C    7.678848   -0.311944    0.289249
 C    6.297658    0.320444    0.324507
 O    5.353611   -0.693645    0.031869
 C    4.049654   -0.376150   -0.023208
 C    3.506313    0.866161    0.191283
 C    3.188360   -1.492179   -0.342762
 F    3.795044   -2.675325   -0.532831
 C    1.837932   -1.409042   -0.458529
 C    1.266226   -0.139131   -0.254851
 N    0.013894    0.273644   -0.303413
 C    2.116613    1.006373    0.081846
 N    1.347264    2.072666    0.241625
 C    0.094569    1.625844    0.006280
 C   -1.072287    2.386808    0.040124
 N   -1.224787    3.701778    0.174612
 N   -2.472280    4.006503    0.006501
 C   -3.257713    2.934940   -0.033062
 C   -2.429706    1.811215   -0.124153
 N   -2.632942    0.502422   -0.293363
 C   -3.887835   -0.121251   -0.227196
 O   -4.905352    0.523687   -0.106595
 N   -3.850371   -1.471720   -0.345420
 C   -2.636555   -2.264643   -0.399337
 C   -1.901657   -2.350822    0.939294
 C   -5.122147   -2.173455   -0.338817
 C   -5.413438   -2.870526    0.986248
 H    7.742012   -1.109601    1.024073
 H    7.870107   -0.732107   -0.694202
 H    8.432321    0.438257    0.510148
 H    6.221877    1.123113   -0.420750
 H    6.090771    0.742604    1.316822
 H    4.101557    1.728935    0.436100
 H    1.243004   -2.273644   -0.703531
 H   -4.321171    2.998088   -0.124935
 H   -1.738176   -0.000464   -0.436518
 H   -1.962871   -1.872035   -1.168918
 H   -2.933614   -3.269285   -0.708335
 H   -1.501504   -1.386208    1.238762
 H   -2.568870   -2.703529    1.720737
 H   -1.073101   -3.048768    0.852094
 H   -5.120097   -2.901245   -1.156311
 H   -5.894243   -1.426365   -0.532565
 H   -4.697244   -3.665090    1.181409
 H   -5.378637   -2.151370    1.800488
 H   -6.408037   -3.306610    0.953439
