34 
3vf9_ligand_dft.xyz
 C    5.662918    0.278155   -1.268309
 C    4.979807   -0.257036   -0.000106
 C    5.663399    0.278286    1.267833
 O    5.040561   -1.674877   -0.000020
 C    3.505446    0.118535    0.000109
 C    2.538097   -0.832083    0.000109
 C    3.164844    1.542969    0.000166
 C    1.890913    1.991688    0.000215
 C    0.827247    1.022455    0.000166
 C   -0.524616    1.084316    0.000086
 C    1.160948   -0.421703    0.000163
 N    0.110787   -1.202105    0.000087
 C   -0.970871   -0.319682    0.000068
 C   -2.266973   -0.722026    0.000047
 N   -2.636589   -2.119757    0.000069
 N   -3.897017   -2.229656    0.000058
 C   -4.480035   -0.934632   -0.000013
 C   -5.803234   -0.426767   -0.000042
 C   -3.499816    0.022912   -0.000036
 S   -4.170053    1.599129   -0.000143
 C   -5.780825    0.939718   -0.000073
 H    5.182148   -0.145119   -2.154335
 H    5.621415    1.369585   -1.333229
 H    6.720823   -0.012048   -1.271212
 H    5.621445    1.369680    1.332960
 H    5.183221   -0.145384    2.153984
 H    6.721430   -0.011479    1.270157
 H    5.971867   -1.925403   -0.000128
 H    2.781595   -1.886432    0.000062
 H    3.976538    2.264422    0.000193
 H    1.667276    3.053821    0.000338
 H   -1.163192    1.957974    0.000019
 H   -6.706664   -1.022479   -0.000032
 H   -6.625308    1.615824   -0.000127
