59 
3vfq_ligand_dft.xyz
 N    1.107437    4.189971   -1.842701
 C   -0.207529    4.356003   -1.690609
 N   -1.024861    3.729138   -0.845525
 C   -0.357692    2.886433   -0.041959
 C    1.015575    2.661458   -0.036684
 C    1.744375    3.313453   -1.049188
 N    3.065488    3.085013   -1.261883
 N    1.354486    1.732534    0.931034
 C    0.207026    1.403488    1.470188
 N   -0.867110    2.057443    0.922227
 P   -2.659412   -2.734542   -0.849845
 P    0.180226   -2.357697   -0.481266
 C   -2.273930    1.918766    1.284107
 O   -3.450725   -2.534957   -2.223236
 O   -0.058803   -1.484883    0.683653
 C    4.477744    0.527665    0.800648
 O    5.830203    0.849371    0.740877
 C   -3.199454    1.739819    0.064720
 O   -3.700154    2.934034   -0.458843
 O   -2.949669   -3.948517   -0.077404
 O    0.703290   -3.824788   -0.204638
 C    4.341556   -0.839988    1.464200
 O    5.417323   -1.687183    1.122027
 C   -4.343313    0.944352    0.700504
 O   -5.194567    1.821319    1.398843
 O   -1.126518   -2.621866   -1.389191
 C    3.101842   -1.408678    0.782348
 O    3.060935   -2.819384    0.839818
 C   -3.610709    0.065619    1.716671
 O   -2.400993    0.761788    2.052802
 C    3.234404   -0.850817   -0.651295
 O    3.935500    0.383988   -0.511300
 C   -3.298628   -1.345775    1.257925
 O   -2.930401   -1.340556   -0.138551
 C    1.909372   -0.564577   -1.351013
 O    1.195237   -1.783725   -1.577674
 H   -0.672415    5.077234   -2.357494
 H    3.417864    3.476984   -2.124178
 H    3.410980    2.159423   -1.015936
 H    0.063280    0.663571    2.241548
 H   -2.577881    2.809177    1.850006
 H   -3.620136   -3.387049   -2.648092
 H    3.893232    1.295983    1.318652
 H    5.929963    1.749221    0.408618
 H   -2.685320    1.126909   -0.686476
 H   -2.924385    3.456806   -0.753058
 H    1.577524   -3.742562    0.242957
 H    4.237638   -0.759110    2.551770
 H    6.185513   -1.123300    0.947510
 H   -4.892690    0.351495   -0.041258
 H   -5.230879    2.628448    0.861344
 H    2.190941   -1.035817    1.253160
 H    3.972126   -3.120445    0.691790
 H   -4.212117   -0.007973    2.628725
 H    3.832893   -1.544845   -1.255849
 H   -4.179649   -1.980023    1.387115
 H   -2.468469   -1.744505    1.844677
 H    2.085666   -0.126361   -2.335591
 H    1.316919    0.121162   -0.746176
