35 
3vgc_ligand_xtb.xyz
 C   -0.418815    0.069547   -1.136539
 C   -1.478044   -0.549464   -0.420471
 C   -2.690316    0.168078   -0.233614
 C   -2.815080    1.473706   -0.750746
 C   -1.782885    2.048709   -1.432990
 C   -0.588494    1.341528   -1.622059
 C   -1.385057   -1.849185    0.122994
 C   -2.428752   -2.404691    0.809244
 C   -3.623915   -1.694508    0.989143
 C   -3.749106   -0.435254    0.476356
 C    0.911683   -0.604362   -1.302356
 C    1.752401   -0.445164   -0.006131
 C    1.507090    3.112191    1.254159
 C    1.185465    1.630806    1.182671
 N    1.938033    0.962146    0.283157
 O    0.338532    1.098122    1.868151
 O    3.099908   -2.583035   -0.168928
 O    4.285052   -0.507626   -0.197828
 B    3.145677   -1.234951   -0.120225
 H   -3.739342    2.010569   -0.590419
 H   -1.873850    3.051284   -1.826523
 H    0.218553    1.816761   -2.164004
 H   -0.474483   -2.415339    0.002153
 H   -2.337029   -3.399635    1.221202
 H   -4.438006   -2.148733    1.535498
 H   -4.664562    0.124278    0.609939
 H    1.457363   -0.142835   -2.128714
 H    0.804533   -1.666197   -1.518787
 H    1.153538   -0.836216    0.823221
 H    0.956805    3.558435    2.076864
 H    2.573191    3.266070    1.402379
 H    1.205760    3.592549    0.325685
 H    2.656441    1.442904   -0.232162
 H    3.926775   -3.061887   -0.245704
 H    5.114698   -0.983579   -0.260730
