28 
3vid_ligand_dft.xyz
 C    1.728146    0.486027   -0.055102
 C   -0.201473    2.160013   -0.220830
 C   -2.738872    0.193538   -0.071944
 C    2.936473    1.270199   -0.042279
 C   -3.807323   -0.620652    0.021566
 C    3.095707   -1.621409    0.065048
 C    4.195881   -0.831574    0.072937
 N    0.639735   -1.578735   -0.016382
 C    1.804767   -0.987812   -0.000590
 C    4.121675    0.621353    0.019940
 C   -0.278309   -0.527900   -0.079215
 C   -1.618771   -0.742801   -0.066467
 N   -2.147894   -2.070771    0.018679
 N   -3.408860   -1.988407    0.069714
 C    0.407029    0.796906   -0.114090
 C   -1.530115    2.365820    0.517190
 C   -2.719195    1.687393   -0.169651
 H   -0.354514    2.399748   -1.283956
 H    0.531179    2.887075    0.147353
 H    2.889978    2.354428   -0.083210
 H   -4.860309   -0.374425    0.064365
 H    3.153342   -2.703352    0.106183
 H    5.181760   -1.285052    0.121818
 H    5.051564    1.181226    0.031765
 H   -1.729265    3.442254    0.557519
 H   -1.443413    2.019420    1.553728
 H   -3.654730    2.071257    0.251321
 H   -2.720175    1.978215   -1.230033
