95 
3vjc_ligand_dft.xyz
 C   -3.123314    0.289458   -2.464755
 C    8.959233    4.541331   -1.392914
 C   -3.875637   -2.988924    1.242657
 C    7.062488    1.943149    1.934333
 C   10.443394    1.753355   -1.059433
 C   -6.739043    0.751181    0.744782
 O   -4.637261   -2.527698   -1.004564
 O    3.210483    0.615683   -1.325520
 O   -2.306251   -3.042265   -2.437974
 O    1.263695   -5.316113    0.192842
 O    2.683941   -3.271185    1.886873
 O   -1.874348   -4.637810   -0.920083
 O    1.926859   -3.818020   -1.334902
 O    1.614444   -1.860276    3.266057
 O    0.374553    0.159191   -1.773048
 O   -0.518007   -3.772116    1.271568
 C    4.715925    0.851189    0.526884
 C    5.574190    1.658321   -0.102368
 C   -7.496986    5.859685    1.027488
 C   -6.143256    5.584209    1.206021
 C   -8.267538    5.023812    0.225623
 C   -5.569020    4.480045    0.585589
 C   -7.686843    3.918908   -0.391964
 C    9.416204    3.873364   -0.094842
 C   -2.332423    1.330605   -0.352743
 C   -1.667999    0.549641    0.795609
 C   -5.697855    2.420101   -0.860529
 C    8.017630    1.739289   -0.427486
 O   -4.393976   -0.840903    0.472076
 O    2.782877   -0.443627    0.613380
 O   -1.400866   -1.466008   -0.398420
 O   -0.115397   -1.121308    1.485403
 C   -4.344499   -2.129577    0.101964
 C    3.523419    0.353856   -0.177764
 C   -3.347950    0.573656   -1.183854
 C   -1.655776   -3.544355   -1.401505
 C    1.255149   -4.110167   -0.369943
 C    1.831430   -2.440793    2.088991
 C   -6.332072    3.631336   -0.221209
 C    6.846045    2.232116    0.450118
 C    9.397139    2.333938   -0.102126
 C   -5.436263    1.279084    0.142949
 C    0.575482    0.002120   -0.399924
 C   -4.656662    0.152755   -0.546666
 C   -0.631719   -2.553654   -0.864857
 C    1.656418   -1.038239   -0.033632
 C    0.236240   -3.157494    0.275035
 C   -0.686000   -0.511519    0.339756
 C    0.919796   -1.939452    0.980451
 H   -3.848214   -0.260249   -3.058230
 H   -2.184487    0.550072   -2.944566
 H    9.053181    5.629186   -1.316921
 H    9.560036    4.217923   -2.249308
 H    7.910424    4.318395   -1.619035
 H   -2.809709   -2.800213    1.412245
 H   -4.412437   -2.734044    2.160017
 H   -4.022277   -4.040075    0.993510
 H    7.221537    0.872269    2.107314
 H    7.940512    2.475538    2.310517
 H    6.201311    2.262509    2.530249
 H   10.206592    1.983693   -2.104495
 H   10.494054    0.662887   -0.967587
 H   11.439543    2.155683   -0.844770
 H   -7.281684    1.552168    1.255275
 H   -7.391878    0.347801   -0.039911
 H   -6.542178   -0.044784    1.467027
 H   -3.137586   -3.537554   -2.537553
 H    1.930621   -5.834049   -0.286007
 H    2.251151   -2.257695    3.882229
 H    1.242672    0.421193   -2.121324
 H   -1.031871   -4.473395    0.834587
 H    4.848927    0.525975    1.552932
 H    5.347871    1.912829   -1.138130
 H   -7.946928    6.723014    1.508645
 H   -5.532613    6.233058    1.827378
 H   -9.323637    5.230493    0.078119
 H   -4.509669    4.273272    0.725048
 H   -8.294410    3.267996   -1.016115
 H    8.795454    4.240865    0.732829
 H   10.439100    4.198394    0.134309
 H   -2.815277    2.209210    0.095396
 H   -1.555731    1.713793   -1.022341
 H   -2.418178    0.061388    1.421232
 H   -1.109539    1.244674    1.431453
 H   -4.754685    2.711010   -1.336851
 H   -6.342670    2.040530   -1.663963
 H    7.781996    1.943108   -1.481073
 H    8.076686    0.646047   -0.337873
 H    6.767179    3.321739    0.317134
 H    9.674944    2.010229    0.910321
 H   -4.816759    1.673342    0.960069
 H    0.851923    0.950287    0.081727
 H   -5.289896   -0.311013   -1.309288
 H    0.009037   -2.233220   -1.694216
 H    2.005620   -1.588611   -0.907939
