60 
3vjm_ligand_dft.xyz
 C   -2.689373   -0.274521   -0.226484
 C   -2.800026    1.086508   -0.133873
 C   -4.092302    1.649439    0.010700
 N   -5.193329    0.959782    0.085773
 C   -5.105280   -0.395855   -0.023974
 C   -3.869226   -1.075363   -0.207357
 C   -3.877546   -2.481598   -0.378708
 C   -5.059098   -3.178046   -0.329161
 C   -6.283203   -2.505579   -0.110330
 C   -6.308036   -1.141956    0.030197
 C   -4.196052    3.157460    0.171288
 N   -1.424038   -0.932696   -0.339430
 C   -0.981574   -1.572642    0.885032
 C    0.129130   -2.563894    0.574534
 N    1.289717   -1.864218   -0.103711
 C    0.780306   -1.117144   -1.319335
 C    2.424778   -2.810018   -0.436979
 C    3.053310   -3.463219    0.798626
 N    4.071789   -2.459684    1.277279
 C    4.483216   -1.582632    0.108271
 C    3.658014   -2.138156   -1.071376
 C   -0.345377   -0.172517   -0.923737
 C    4.017743   -0.166356    0.503308
 N    4.644681    0.880711    0.009787
 C    4.216164    2.245263    0.396400
 S    5.712011    3.252143    0.285548
 C    6.185295    2.293627   -1.184051
 C    5.870224    0.840490   -0.825125
 F   -3.852978    3.506496    1.422251
 F   -5.408999    3.614005   -0.082097
 F   -3.323677    3.764898   -0.659315
 O    3.021884   -0.119352    1.258468
 H   -1.940050    1.746274   -0.150367
 H   -2.946583   -2.998297   -0.593056
 H   -5.060982   -4.253650   -0.474580
 H   -7.206960   -3.073075   -0.072271
 H   -7.233633   -0.596239    0.176305
 H   -1.807500   -2.129844    1.333464
 H   -0.635137   -0.839088    1.636463
 H   -0.219389   -3.337056   -0.115265
 H    0.489717   -3.021662    1.495683
 H    1.664949   -1.142152    0.544265
 H    0.434866   -1.865624   -2.036802
 H    1.609749   -0.549507   -1.740015
 H    2.001076   -3.569802   -1.097222
 H    3.583582   -4.366770    0.492483
 H    2.388476   -3.717313    1.622680
 H    3.621613   -1.805027    1.946773
 H    4.867881   -2.909704    1.738558
 H    5.558472   -1.669409   -0.046388
 H    3.437654   -1.370393   -1.812690
 H    4.224444   -2.917357   -1.589455
 H   -0.694763    0.326436   -1.831386
 H    0.059677    0.605551   -0.248650
 H    3.818487    2.236951    1.411100
 H    3.441443    2.582854   -0.299116
 H    7.249119    2.428518   -1.384106
 H    5.619038    2.620591   -2.060567
 H    5.700095    0.238969   -1.723610
 H    6.690065    0.410772   -0.241357
