53 
3vo3_ligand_xtb.xyz
 C   -1.898881    3.103535   -0.847601
 C   -3.165414    2.575114   -0.700550
 C   -0.778793    2.297109   -0.745591
 C   -2.213193    0.395341   -0.340883
 C   -7.532406    0.273569   -0.146291
 C    4.709210   -0.374669   -0.307266
 C   -3.332070    1.211672   -0.450362
 C   -0.944675    0.941711   -0.485715
 C   -6.514317   -0.662526    0.017151
 C   -8.721562   -0.444534    0.016561
 C    5.627936    0.218524    0.546961
 C    3.736368    0.989764    1.138436
 C    2.623719    1.613083    1.709145
 C    1.389987    1.338986    1.182422
 C    1.293766    0.442633    0.086129
 C   -5.051348   -0.543443   -0.028448
 C    7.735895   -0.745236   -0.225954
 C   10.131182   -0.900403   -1.105867
 C    9.954281   -2.011023   -0.134666
 C    9.195529   -0.721063    0.065033
 C  -10.119341    0.056145   -0.053835
 C   -6.542364   -3.129511    0.496759
 N   -8.447461   -1.721023    0.259658
 N    5.028776    1.048177    1.423628
 N    2.330812   -0.147498   -0.453611
 N    3.511605    0.119297    0.072284
 N   -7.135170   -1.846098    0.259852
 N   -4.631734    0.728478   -0.318903
 N    6.997172    0.063551    0.597335
 O   -4.304986   -1.481214    0.175878
 O    7.240577   -1.414673   -1.105911
 O    0.108632    0.060966   -0.436585
 H   -1.778654    4.156604   -1.051472
 H   -4.031376    3.215690   -0.785512
 H    0.209579    2.709625   -0.880993
 H   -2.315334   -0.659077   -0.151119
 H   -7.453417    1.323183   -0.350469
 H    4.840546   -1.070607   -1.105752
 H    2.758825    2.277181    2.546742
 H    0.492538    1.770883    1.595120
 H    9.668733   -1.005590   -2.075110
 H   11.052904   -0.339297   -1.103796
 H   10.749956   -2.238799    0.557797
 H    9.372897   -2.863576   -0.450134
 H    9.508866   -0.068294    0.869211
 H  -10.278972    0.844050    0.680900
 H  -10.327858    0.464851   -1.041676
 H  -10.804685   -0.762230    0.144815
 H   -5.921957   -3.425798   -0.349423
 H   -5.910131   -3.100282    1.384637
 H   -7.354608   -3.839915    0.635808
 H   -5.354106    1.421036   -0.453792
 H    7.443414    0.606885    1.322054
