29 
3voz_ligand_xtb.xyz
 O   -1.584155   -2.858419    0.876579
 C   -3.791558    2.736230    0.192171
 C   -3.758431    1.946090    1.329710
 C   -3.688381    2.148477   -1.056505
 C   -3.619856    0.574625    1.219550
 C   -3.548277    0.775185   -1.167069
 C    4.472631    0.566536    0.653912
 C    4.160049   -0.364726   -0.472354
 C   -3.313765   -1.511011   -0.134135
 N    2.373532   -1.882182    0.257082
 N    1.066717   -2.070503    0.297557
 N   -0.963013   -1.059638   -0.384973
 S    4.927012    2.099486    0.459634
 S    1.403908    0.148726   -0.953711
 C   -1.882992   -1.915371    0.203205
 C   -3.515605   -0.025496   -0.030394
 C    2.748671   -0.815222   -0.342862
 C    0.390332   -1.138431   -0.268079
 H   -3.899932    3.806669    0.278715
 H   -3.840361    2.400623    2.305576
 H   -3.716983    2.758132   -1.947273
 H   -3.591035   -0.041668    2.106116
 H   -3.478721    0.321377   -2.146893
 H    4.350820    0.151253    1.649701
 H    4.800219   -1.248314   -0.394706
 H    4.320378    0.133703   -1.429434
 H   -3.971031   -2.046476    0.552142
 H   -3.523024   -1.857261   -1.149436
 H   -1.329359   -0.257120   -0.882458
