18 
3vp3_ligand_xtb.xyz
 C   -2.613659   -0.993145    0.985792
 C   -2.761953    0.334199    0.253525
 C   -1.779435    0.462897   -0.919164
 C   -0.372407    0.465802   -0.450738
 S    0.680038   -0.953766   -0.620806
 N    0.209469    1.443692    0.125653
 N    1.468938    1.223606    0.489145
 C    1.894334    0.045155    0.184486
 N    3.159035   -0.390919    0.379628
 H   -2.746569   -1.827638    0.299890
 H   -1.627792   -1.075014    1.437849
 H   -3.356549   -1.075055    1.775554
 H   -2.588065    1.158909    0.946264
 H   -3.777367    0.424201   -0.137290
 H   -1.967929    1.404424   -1.439434
 H   -1.927026   -0.362822   -1.617222
 H    3.323124   -1.382757    0.388855
 H    3.724180    0.171909    0.994026
