48 
3vqh_ligand_xtb.xyz
 C   -4.144942   -0.649762   -0.463078
 C   -3.540513   -1.864427   -0.626349
 C   -4.251133   -3.046258   -0.368086
 C   -5.550895   -2.980565    0.058719
 C   -6.189676   -1.736467    0.232881
 C   -7.531493   -1.614397    0.672016
 N   -8.137442   -0.475705    0.832226
 C   -7.474713    0.655213    0.557018
 C   -6.170865    0.689613    0.131075
 C   -5.484070   -0.529630   -0.038754
 S   -3.155741    0.798118   -0.755087
 O   -3.838451    1.856178   -1.420955
 O   -1.853667    0.423762   -1.237730
 N   -2.834531    1.449173    0.806246
 C   -1.941126    0.721191    1.690948
 C   -0.504312    0.876301    1.156175
 N   -0.371384    2.226065    0.561880
 C    0.534470    2.293080   -0.626480
 C    1.936363    1.941857   -0.252088
 C    2.569738    0.871809   -0.735620
 C    3.934844    0.463887   -0.458800
 C    4.843980    1.262547    0.241641
 C    6.132012    0.830367    0.477732
 C    6.532633   -0.416177    0.015910
Br    8.304679   -1.014305    0.346364
 C    5.652753   -1.226436   -0.687154
 C    4.368075   -0.782543   -0.922407
 H   -2.518060   -1.896193   -0.969050
 H   -3.764349   -3.997930   -0.509571
 H   -6.109191   -3.881116    0.264858
 H   -8.107910   -2.503225    0.893039
 H   -8.045022    1.563118    0.693962
 H   -5.689388    1.622167   -0.114432
 H   -3.692253    1.746855    1.245996
 H   -2.189483   -0.344299    1.751351
 H   -2.026602    1.149867    2.692204
 H   -0.338748    0.154958    0.355876
 H    0.231212    0.719141    1.944097
 H   -0.070281    2.907107    1.264660
 H   -1.354356    2.442275    0.276296
 H    0.483514    3.312276   -1.018591
 H    0.132083    1.605162   -1.372878
 H    2.426140    2.625718    0.425692
 H    2.031672    0.221248   -1.414528
 H    4.552924    2.239767    0.592535
 H    6.829146    1.455347    1.013484
 H    5.975493   -2.190380   -1.048009
 H    3.685204   -1.412535   -1.473088
