37 
3vqu_ligand_dft.xyz
 O    6.447842   -0.376385    0.316836
 C    5.517670    0.354416    0.018260
 N    5.713142    1.673515   -0.310605
 C    4.100386   -0.124515    0.014133
 C    2.993217    0.721250    0.079739
 C    1.694891    0.226421    0.078802
 C    3.879789   -1.502624   -0.032662
 C    2.594543   -2.010230   -0.043530
 C    1.480800   -1.155470    0.008219
 N    0.224842   -1.770732   -0.001480
 C   -1.054751   -1.261980   -0.005202
 C   -2.120322   -2.166780   -0.023581
 C   -3.425787   -1.670648   -0.033752
 N   -4.503611   -2.496855   -0.086074
 C   -3.603597   -0.266199   -0.017479
 C   -4.911746    0.287521   -0.008020
 N   -6.015116    0.651299    0.005449
 N   -1.214665    0.069144    0.007540
 C   -2.451610    0.536992    0.001702
 O   -2.650871    1.854574    0.017062
 C   -1.504934    2.710781    0.048966
 C   -2.018133    4.135279    0.050472
 H    6.678836    1.944192   -0.428448
 H    5.042419    2.152066   -0.891275
 H    3.129880    1.795482    0.170840
 H    0.849388    0.894130    0.139223
 H    4.738021   -2.165669   -0.059903
 H    2.445418   -3.086889   -0.089922
 H    0.265278   -2.778481   -0.024131
 H   -1.942850   -3.237451   -0.040944
 H   -4.385343   -3.478827    0.099723
 H   -5.426252   -2.114349    0.058796
 H   -0.877581    2.505262   -0.824885
 H   -0.916916    2.490631    0.946541
 H   -2.607878    4.334415   -0.848459
 H   -2.648158    4.318062    0.925186
 H   -1.174664    4.832047    0.076278
