65 
3vrt_ligand_xtb.xyz
 O   -7.834693   -2.024920    1.803093
 C   -7.233033   -1.971897    0.530503
 C   -6.149427   -0.897147    0.433286
 C   -5.465623   -0.928656   -0.931211
 C   -4.399543    0.160998   -1.154473
 C   -5.055475    1.542157   -1.119364
 C   -3.240022    0.027267   -0.154531
 C   -2.030571    0.982684   -0.305754
 C   -1.579136    1.094389   -1.763305
 C   -2.205955    2.371140    0.315212
 C   -0.872652    3.117429    0.386494
 C    0.207787    2.311585    1.116080
 C   -2.600877   -1.382586   -0.201710
 C   -1.094220   -1.210992    0.057877
 C   -0.975752    0.228446    0.543223
 C    0.344927    0.935779    0.526834
 C    1.472822    0.393647    0.051519
 C    2.770678    1.018630   -0.003510
 C    3.908967    0.465586   -0.439383
 C    5.201170    1.228312   -0.425136
 C    4.078871   -0.947692   -0.905870
 C    5.064447   -1.676900    0.034597
 O    5.267225   -3.017397   -0.349969
 C    6.368439   -0.926899    0.021509
 C    7.515562   -1.459080   -0.363392
 C    6.229325    0.509124    0.463886
 O    5.774676    0.608200    1.802583
 H   -8.201209   -1.157125    2.006566
 H   -7.994582   -1.805140   -0.246532
 H   -6.798149   -2.962137    0.375208
 H   -6.606694    0.080981    0.601009
 H   -5.424043   -1.074361    1.228179
 H   -5.017903   -1.913300   -1.071258
 H   -6.231195   -0.813110   -1.703662
 H   -4.005965    0.001911   -2.164012
 H   -6.005718    1.517653   -1.649488
 H   -4.428329    2.283772   -1.604641
 H   -5.238348    1.863924   -0.097444
 H   -3.647074    0.196166    0.847541
 H   -1.657948    0.138160   -2.271116
 H   -0.541829    1.415222   -1.817788
 H   -2.191585    1.815467   -2.299718
 H   -2.609764    2.262613    1.325662
 H   -2.909280    2.973360   -0.259100
 H   -0.527265    3.345648   -0.622916
 H   -1.021268    4.067958    0.904512
 H    1.147276    2.860365    1.085504
 H   -0.080552    2.208341    2.167389
 H   -3.054366   -2.032666    0.545657
 H   -2.763680   -1.840905   -1.177376
 H   -0.532941   -1.354808   -0.864443
 H   -0.720573   -1.920295    0.795814
 H   -1.337462    0.252910    1.580214
 H    1.418949   -0.617359   -0.324958
 H    2.824755    2.043944    0.334759
 H    5.052243    2.236056   -0.037723
 H    5.615074    1.291879   -1.435172
 H    4.503240   -0.964007   -1.914497
 H    3.133124   -1.490088   -0.923067
 H    4.650226   -1.634540    1.057277
 H    4.410815   -3.457002   -0.376202
 H    7.568279   -2.484694   -0.681089
 H    8.429214   -0.888180   -0.374740
 H    7.204982    1.014483    0.369666
 H    6.367625    0.099922    2.366054
