88 
3vtb_ligand_dft.xyz
 C   -4.785243   -1.167912   -0.520231
 C   -5.594121   -2.479866   -0.534300
 C   -4.820662   -3.595045    0.184321
 C   -3.477148   -3.822981   -0.526863
 C   -2.654666   -2.525092   -0.499592
 C   -3.432906   -1.411468   -1.218436
 C   -4.518682   -0.769050    0.944334
 C   -4.565312   -3.181751    1.642596
 C   -2.402743   -2.113274    0.958813
 C   -3.745410   -1.882397    1.669069
 C   -5.607338   -0.067661   -1.238879
 C   -4.918766    1.232489   -1.226974
 O   -5.962783   -0.438512   -2.563828
 C   -4.300010    2.269072   -1.255822
 C   -3.472766    3.477210   -1.248837
 C   -2.424405    3.479057   -0.106037
 C   -3.128361    3.646919    1.242425
 C   -1.541953    2.222774   -0.187924
 C   -0.385987    2.037400    0.830202
 C    0.408314    0.903625    0.115281
 C    0.500465    1.367102   -1.335680
 C   -0.855357    2.070609   -1.576192
 C   -0.793858    1.518750    2.219298
 C    0.414055    1.022163    3.026868
 C    1.265934   -0.006136    2.262208
 C    1.632864    0.483985    0.880007
 C    0.455164    3.317117    0.954417
 C    2.873185    0.549698    0.368630
 C    4.112586    0.176383    1.038880
 C    5.345086    0.188541    0.506495
 C    5.676199    0.554450   -0.919069
 C    6.406924   -0.604992   -1.611272
 C    7.634303   -0.973594   -0.803568
 C    7.331738   -1.354547    0.629556
 C    6.549639   -0.227068    1.315805
 C    8.874034   -0.908488   -1.282231
 O    6.518951   -2.519357    0.694923
 O    6.693708   -0.199810   -2.933104
 H   -6.562427   -2.317746   -0.039805
 H   -5.807973   -2.763591   -1.570327
 H   -5.410538   -4.519220    0.160675
 H   -2.921405   -4.631230   -0.033465
 H   -3.650412   -4.135988   -1.564815
 H   -1.695470   -2.682472   -1.007618
 H   -3.602515   -1.701100   -2.264404
 H   -2.844445   -0.484184   -1.226544
 H   -5.473663   -0.581114    1.455466
 H   -3.947904    0.167612    0.979501
 H   -5.520550   -3.034777    2.163564
 H   -4.026444   -3.978010    2.172903
 H   -1.828956   -2.892410    1.477794
 H   -1.801505   -1.196024    0.989642
 H   -3.564858   -1.579349    2.707654
 H   -6.563585    0.027505   -0.708920
 H   -5.197537   -0.260011   -3.124024
 H   -2.969592    3.563219   -2.218898
 H   -4.110455    4.364645   -1.152914
 H   -1.794004    4.362368   -0.279843
 H   -2.418625    3.878561    2.040285
 H   -3.669556    2.734867    1.519152
 H   -3.854467    4.466579    1.201731
 H   -2.210858    1.362118   -0.048308
 H   -0.269968    0.033344    0.121935
 H    1.326168    2.074710   -1.467322
 H    0.677865    0.535840   -2.024321
 H   -0.700741    3.052080   -2.040550
 H   -1.495061    1.499669   -2.257128
 H   -1.311762    2.290858    2.796539
 H   -1.509673    0.693797    2.093787
 H    1.047129    1.873729    3.304589
 H    0.065388    0.576902    3.965797
 H    2.144752   -0.269856    2.855879
 H    0.677608   -0.929547    2.148160
 H    1.425620    3.118499    1.418818
 H   -0.065663    4.063052    1.565556
 H    0.651399    3.773787   -0.021413
 H    2.968050    0.911650   -0.651639
 H    4.032219   -0.143492    2.075676
 H    6.348347    1.423975   -0.941092
 H    4.794271    0.807227   -1.510457
 H    5.725698   -1.469859   -1.610730
 H    8.276236   -1.517262    1.170869
 H    7.235873    0.624638    1.426782
 H    6.259664   -0.558148    2.317997
 H    9.733305   -1.159786   -0.665137
 H    9.072485   -0.573412   -2.295808
 H    6.994385   -3.225188    0.239914
 H    7.016358   -0.972148   -3.412917
