46 
3vv8_ligand_xtb.xyz
 O    0.269416    1.522845    1.094484
 C    1.428328    1.309142    0.812913
 N    2.205817    2.197838    0.135919
 C    1.695483    3.517157   -0.175051
 C    3.488431    1.879377   -0.317875
 N    4.237057    2.828483   -0.695786
 N    3.815532    0.544036   -0.437123
 C    3.171871   -0.347926    0.211872
 C    2.153181    0.041452    1.238186
 C    3.481570   -1.746385   -0.084934
 C    3.117535   -2.881287    0.839727
 C    2.361574   -2.722446   -0.433949
 C    0.949999   -2.249719   -0.436486
 C    0.000551   -2.833204    0.393520
 C   -1.288632   -2.336609    0.440432
 C   -1.651529   -1.234162   -0.326292
 C   -0.708446   -0.676321   -1.186018
 C    0.571982   -1.185932   -1.249748
 C   -2.992490   -0.643331   -0.210699
 C   -4.135816   -1.434247   -0.247703
 C   -5.383473   -0.848662   -0.133689
 C   -5.499304    0.520216    0.029313
 C   -4.366700    1.325109    0.082129
 C   -4.493876    2.808476    0.255592
 C   -3.119780    0.732361   -0.044232
 H    2.369750    4.267200    0.235023
 H    0.704992    3.603781    0.266653
 H    1.640964    3.650812   -1.255129
 H    5.131921    2.509345   -1.050252
 H    1.415852   -0.731943    1.446081
 H    2.678382    0.274910    2.172541
 H    4.389990   -1.840717   -0.667198
 H    3.827551   -3.689535    0.928966
 H    2.619229   -2.638086    1.765526
 H    2.598604   -3.410138   -1.239409
 H    0.281451   -3.670784    1.016633
 H   -2.012354   -2.781451    1.107740
 H   -0.986232    0.164147   -1.804439
 H    1.301587   -0.741122   -1.912526
 H   -4.045432   -2.502446   -0.383478
 H   -6.271536   -1.463262   -0.169787
 H   -6.477677    0.970182    0.122901
 H   -3.559662    3.235683    0.611083
 H   -5.285441    3.048790    0.962547
 H   -4.743427    3.276245   -0.697570
 H   -2.225438    1.334782    0.025097
