49 
3vva_ligand_xtb.xyz
 O   -0.440654   -0.889941    2.128455
 C    0.588492   -0.736826    1.296543
 C    0.724591   -1.649263    0.244450
 C   -0.330871   -2.699182    0.015157
 C   -1.507132   -2.030914   -0.638547
 C   -2.728985   -1.918175   -0.133240
 C   -3.770834   -1.091711   -0.834733
 C   -3.935157    0.271516   -0.131890
 C   -2.631472    1.005326   -0.110466
 C   -2.236249    1.971246   -0.930069
 C   -0.848753    2.570333   -0.793505
 O   -0.334611    2.508860    0.524518
 O    0.362810    1.228329    3.328484
 C    1.275178    1.285047    2.513041
 C    1.513678    0.321565    1.465831
 C    1.798981   -1.512616   -0.624800
 O    1.937165   -2.382748   -1.640045
 C   -3.140509   -2.529419    1.176091
 C   -3.059271    2.560456   -2.037744
 C    0.133434    1.818336   -1.692987
 C    2.603832    0.458290    0.577144
 C    2.724465   -0.469222   -0.433763
Cl    4.042491   -0.395176   -1.587067
 C    3.581928    1.582278    0.727570
 H   -0.401923   -0.146938    2.788384
 H    0.075099   -3.471175   -0.639850
 H   -0.618762   -3.137859    0.968233
 H   -1.279183   -1.560777   -1.586690
 H   -3.475017   -0.917873   -1.870943
 H   -4.732414   -1.611213   -0.832250
 H   -4.261990    0.103097    0.896272
 H   -4.707468    0.848032   -0.642007
 H   -1.934244    0.652999    0.637157
 H   -0.888111    3.627798   -1.110541
 H   -1.025572    2.781406    1.138618
 H    1.976927    2.127013    2.564019
 H    2.738088   -2.152932   -2.140967
 H   -4.191764   -2.339441    1.376889
 H   -2.986468   -3.607431    1.162111
 H   -2.549534   -2.114546    1.990464
 H   -2.435448    2.750959   -2.908913
 H   -3.868014    1.899153   -2.331082
 H   -3.487327    3.513095   -1.722358
 H    1.128667    2.240309   -1.584893
 H   -0.174385    1.888027   -2.732215
 H    0.161718    0.774159   -1.393515
 H    4.050007    1.557324    1.709917
 H    3.070713    2.536425    0.611410
 H    4.364305    1.520005   -0.022909
