65 
3vvz_ligand_dft.xyz
 C   -1.548802   -0.935212   -0.443887
 C   -1.547544    0.362168   -0.933006
 C   -2.787084    0.994139   -1.050479
 C   -3.985351    0.389419   -0.708915
 C   -3.953200   -0.933213   -0.207621
 C   -2.726275   -1.582062   -0.080903
 O   -0.409401   -1.677557   -0.277313
 C    0.795068   -1.118121   -0.578674
 C    0.931952    0.160345   -1.102833
 C   -0.263112    1.059959   -1.339488
 C    1.902748   -1.924246   -0.321649
 C    3.192693   -1.460306   -0.580429
 C    3.360274   -0.165308   -1.128726
 C    2.231200    0.598199   -1.370926
 N    4.322340   -2.203901   -0.253393
 C   -0.098029    2.424119   -0.671495
 C   -0.365379    3.575984   -1.411231
 C   -0.209230    4.847794   -0.866673
 C    0.249505    4.988489    0.436806
 C    0.543192    3.852002    1.183356
 C    0.356390    2.579495    0.647386
 C    4.737768    0.376421   -1.406426
 C   -5.297291    1.111537   -0.866533
 C    4.257229   -3.624766    0.036572
 C    3.908026   -4.507259   -1.164115
 N   -5.151262   -1.566587    0.110326
 C   -5.159480   -2.812959    0.851043
 C   -6.589722   -3.227850    1.167496
 C    0.640200    1.398727    1.529032
 O   -0.188576    0.605160    1.908016
 O    1.932098    1.357664    1.879342
 C    2.324826    0.227456    2.674548
 C    3.837357    0.183857    2.686527
 H   -2.810839    2.016977   -1.421939
 H   -2.648352   -2.589145    0.310255
 H   -0.323300    1.264469   -2.418713
 H    1.717897   -2.908375    0.092119
 H    2.359979    1.605076   -1.763652
 H    5.146541   -1.939870   -0.773207
 H   -0.696004    3.471476   -2.442020
 H   -0.432325    5.724391   -1.467726
 H    0.389260    5.974342    0.869366
 H    0.920270    3.949062    2.197091
 H    5.362903    0.377678   -0.503667
 H    5.268908   -0.208517   -2.171219
 H    4.682653    1.405747   -1.770095
 H   -5.784410    1.300569    0.101180
 H   -5.151855    2.083633   -1.345494
 H   -6.001736    0.534530   -1.478929
 H    3.538841   -3.780058    0.848512
 H    5.233763   -3.912995    0.439799
 H    2.939972   -4.227252   -1.590074
 H    4.664651   -4.404439   -1.949733
 H    3.863507   -5.561395   -0.870371
 H   -5.879168   -0.929039    0.402254
 H   -4.572014   -2.739608    1.781657
 H   -4.685010   -3.586931    0.235933
 H   -7.081327   -2.489454    1.812217
 H   -7.174874   -3.325135    0.247769
 H   -6.603741   -4.187598    1.691790
 H    1.898835   -0.676271    2.231670
 H    1.907299    0.343740    3.680440
 H    4.220360    0.025008    1.675099
 H    4.254281    1.114049    3.084252
 H    4.176952   -0.646237    3.313999
