59 
3vw1_ligand_dft.xyz
 C    0.000504   -0.001970   -1.177403
 C    1.282003   -0.707754   -0.749490
 C    2.470634   -0.462311   -1.438031
 C    3.672323   -1.043694   -1.062830
 C    3.738712   -1.918839    0.038468
 C    2.544563   -2.153971    0.741520
 C    1.349027   -1.563871    0.346620
 C   -1.251707   -0.757798   -0.748674
 C   -2.022236   -0.388975    0.350989
 C   -3.132443   -1.126618    0.746568
 C   -3.531951   -2.274474    0.040452
 C   -2.745417   -2.653466   -1.064422
 C   -1.639389   -1.906082   -1.440167
 C   -0.028461    1.460710   -0.749568
 C    0.676165    1.945125    0.349471
 C    0.590274    3.275344    0.744904
 C   -0.206237    4.193602    0.039219
 C   -0.927426    3.700473   -1.065210
 C   -0.831096    2.369065   -1.440765
 C    6.168242   -2.032276   -0.157550
 C    5.002709   -3.186375    1.694874
 C   -5.259492   -2.735093    1.699310
 C   -4.855590   -4.314104   -0.163481
 C    0.258226    5.921152    1.696707
 C   -1.319173    6.355555   -0.160280
 N    4.933068   -2.533023    0.405871
 N   -4.662589   -2.998854    0.408055
 N   -0.270921    5.534836    0.406790
 H    0.000224   -0.002262   -2.276640
 H    2.460813    0.216410   -2.288438
 H    4.560992   -0.809968   -1.637104
 H    2.533455   -2.806922    1.606233
 H    0.446907   -1.781850    0.911131
 H   -1.755432    0.498677    0.917489
 H   -3.689046   -0.791057    1.613624
 H   -2.992704   -3.536763   -1.641343
 H   -1.050535   -2.235695   -2.293730
 H    1.312703    1.271491    0.916087
 H    1.158696    3.590595    1.611921
 H   -1.570249    4.355030   -1.641903
 H   -1.411123    2.022703   -2.293738
 H    7.004999   -2.604283    0.248393
 H    6.182946   -2.163927   -1.245201
 H    6.339306   -0.965718    0.060562
 H    6.004281   -3.598078    1.834604
 H    4.787525   -2.505404    2.534271
 H    4.297312   -4.023171    1.746372
 H   -4.559544   -2.890786    2.536169
 H   -5.631475   -1.705873    1.754106
 H   -6.116180   -3.397116    1.840349
 H   -4.981661   -4.253079   -1.250224
 H   -4.019703   -5.000932    0.046103
 H   -5.769425   -4.751201    0.243842
 H   -0.225351    5.394276    2.535247
 H    1.335484    5.728093    1.749688
 H    0.114339    6.994389    1.836533
 H   -1.206374    6.437727   -1.247108
 H   -2.329325    5.969034    0.050720
 H   -1.245340    7.364824    0.249566
