59 
3vw1_ligand_xtb.xyz
 C    0.033750    0.015857   -1.148794
 C    1.465790    0.167769   -0.691128
 C    2.381129    0.847195   -1.481215
 C    3.692008    1.022508   -1.080925
 C    4.141750    0.523641    0.143985
 C    3.211010   -0.149801    0.942890
 C    1.907299   -0.327110    0.530087
 C   -0.548063   -1.304285   -0.693608
 C   -1.309612   -1.419850    0.460539
 C   -1.820818   -2.636563    0.866196
 C   -1.584950   -3.806214    0.133921
 C   -0.814104   -3.682417   -1.028467
 C   -0.309647   -2.460072   -1.423601
 C   -0.836748    1.171367   -0.702867
 C   -0.470539    2.058485    0.297351
 C   -1.308990    3.083989    0.690541
 C   -2.566528    3.263970    0.103697
 C   -2.926509    2.368425   -0.911511
 C   -2.079546    1.350595   -1.297107
 C    6.296684    1.643215   -0.117362
 C    6.160832   -0.332015    1.241338
 C   -3.068269   -5.072815    1.591777
 C   -2.018867   -6.153124   -0.350646
 C   -2.919359    5.312489    1.372756
 C   -4.597365    4.560163   -0.258397
 N    5.434031    0.744452    0.608626
 N   -2.058457   -5.034600    0.560817
 N   -3.431757    4.253920    0.535635
 H    0.037593    0.014233   -2.247285
 H    2.066809    1.246761   -2.436058
 H    4.366824    1.542604   -1.742460
 H    3.503818   -0.522812    1.913084
 H    1.216268   -0.853002    1.172863
 H   -1.519437   -0.539605    1.051701
 H   -2.411759   -2.662550    1.767158
 H   -0.601064   -4.542791   -1.641602
 H    0.281780   -2.405365   -2.327722
 H    0.490210    1.955695    0.780831
 H   -0.966795    3.745373    1.469675
 H   -3.876083    2.457803   -1.413345
 H   -2.393938    0.674136   -2.080413
 H    7.146345    1.890071    0.520646
 H    6.684352    1.210643   -1.051218
 H    5.762252    2.563877   -0.345006
 H    6.823305   -0.838479    0.525361
 H    6.775297    0.067347    2.052307
 H    5.479588   -1.070496    1.651173
 H   -2.673935   -4.655084    2.519844
 H   -3.973972   -4.517981    1.314342
 H   -3.344904   -6.107026    1.786166
 H   -2.581252   -5.963908   -1.274395
 H   -0.985624   -6.387509   -0.612726
 H   -2.443144   -7.028853    0.136274
 H   -2.562510    4.903585    2.319749
 H   -2.097876    5.864264    0.897725
 H   -3.720604    6.013880    1.596243
 H   -4.341815    4.881085   -1.276820
 H   -5.248885    3.686867   -0.320547
 H   -5.159588    5.358411    0.222206
