31 
3vzd_ligand_xtb.xyz
 C    2.528936   -0.931273    0.080324
 C    3.255529   -2.102771    0.109861
 C    4.645783   -2.075501    0.047572
 O    5.319546   -3.258037    0.081241
 C    5.298070   -0.852042   -0.044637
 C    4.571937    0.322871   -0.074221
 C    3.181463    0.295433   -0.012487
 N    2.499770    1.511391   -0.040612
 C    1.168464    1.727514   -0.025784
 N    0.223768    0.860384   -0.014426
 S    0.600410    3.415786   -0.022486
 C   -1.010207    2.799098   -0.000663
 C   -1.019159    1.434584    0.001474
 C   -2.193911    0.573731    0.004476
 C   -2.036084   -0.799010   -0.190317
 C   -3.126455   -1.645133   -0.199060
 C   -4.395486   -1.120372   -0.010880
Cl   -5.768319   -2.171224   -0.020452
 C   -4.576571    0.239858    0.187181
 C   -3.480019    1.078959    0.195251
 H    1.454055   -0.948539    0.132371
 H    2.760296   -3.057441    0.182505
 H    6.269265   -3.095671    0.035847
 H    6.378350   -0.817447   -0.093522
 H    5.090137    1.268822   -0.144958
 H    3.079161    2.337860   -0.075411
 H   -1.832084    3.483771   -0.004500
 H   -1.043135   -1.191722   -0.339801
 H   -2.997566   -2.705339   -0.351608
 H   -5.569403    0.635329    0.335280
 H   -3.629082    2.134803    0.358069
