39 
3vzg_ligand_xtb.xyz
 N   -2.228751    0.377037   -1.196436
 C   -2.676444   -0.412862   -0.029112
 C   -2.610365    0.419556    1.264658
 O   -2.472280    1.718827    1.004951
 C   -1.849125   -1.717216    0.159023
 O   -0.488112   -1.429939    0.466586
 C   -2.075765   -2.685271   -0.995612
 O   -2.703714   -0.055863    2.351511
 C    0.457435   -1.303075   -0.554152
 C    1.847580   -1.577257    0.035437
 C    2.330766   -0.399513    0.900053
 C    2.231243    0.898860    0.084574
 C    0.780066    1.075559   -0.367784
 C    0.608672    2.354217   -1.182391
 O    2.715732   -1.796633   -1.037402
 O    3.687134   -0.565761    1.237952
 O    2.582353    2.014197    0.850749
 O    0.371351   -0.033018   -1.180407
 O   -0.773838    2.664923   -1.303310
 H   -2.244725    1.394800   -0.987976
 H   -1.179377    0.195239   -1.368662
 H   -2.765488    0.179542   -2.041208
 H   -3.725726   -0.702464   -0.148366
 H   -2.455719    2.247013    1.820249
 H   -2.213720   -2.170278    1.089226
 H   -3.119403   -2.985865   -1.006477
 H   -1.475396   -3.578658   -0.846226
 H   -1.825022   -2.256907   -1.963103
 H    0.306979   -2.018229   -1.371517
 H    1.762924   -2.481327    0.661659
 H    1.699182   -0.313502    1.794593
 H    2.879221    0.805107   -0.800586
 H    0.148518    1.130595    0.529404
 H    1.050644    2.206350   -2.174091
 H    1.143931    3.146644   -0.654137
 H    3.622124   -1.654581   -0.723945
 H    3.782589   -1.249452    1.910785
 H    3.444860    1.839650    1.250453
 H   -0.848525    3.575214   -1.608241
