72 
3vzv_ligand_dft.xyz
 O    3.494580    1.420314   -2.242008
 C    3.532797    0.603607   -1.335034
 N    4.702322    0.171401   -0.803616
 C    4.855051   -0.794666    0.270904
 C    4.439436   -0.184035    1.623081
 O    4.526778    1.023318    1.806189
 N    4.000772   -1.050916    2.577372
 C    3.535376   -0.523310    3.849175
 C    3.818161   -2.476623    2.348208
 C    6.369117   -1.086095    0.249029
 C    6.969713    0.254204   -0.191322
 C    5.968152    0.771481   -1.226098
 C    2.256680   -0.002701   -0.738696
 C    1.041979    0.926622   -0.922364
 C    0.890105    1.955651    0.214610
 C    2.011957    2.998405    0.191800
 C    0.780864    1.309895    1.600796
 N   -0.115827    0.036493   -1.032511
 C   -1.359781    0.486654   -1.656891
 C   -2.255781    1.321184   -0.781387
 C   -2.498893    0.992551    0.554569
 C   -3.360001    1.753570    1.331422
 C   -2.901563    2.429678   -1.325510
 C   -3.777219    3.199308   -0.564485
 C   -3.995823    2.853278    0.761915
Cl   -5.083327    3.816260    1.735455
 S    1.864861   -1.595332   -1.584908
 C    0.170769   -1.148573   -1.697395
 N   -0.754551   -1.745887   -2.332629
 C   -1.950758   -0.894503   -2.185555
 C   -2.594940   -0.696631   -3.558807
 C   -2.930779   -1.528475   -1.197887
 C   -4.242454   -1.057611   -1.085436
 C   -5.122498   -1.580279   -0.146857
 C   -2.528048   -2.560179   -0.350281
 C   -3.396188   -3.098500    0.595031
 C   -4.687403   -2.598383    0.693060
Cl   -5.784015   -3.259194    1.886716
 H    4.278321   -1.696607    0.051513
 H    4.064390   -1.007474    4.677295
 H    3.730713    0.547600    3.870332
 H    2.459021   -0.696520    3.967070
 H    4.694119   -2.924665    1.872027
 H    3.689439   -2.964363    3.316676
 H    2.930521   -2.689042    1.738473
 H    6.572937   -1.863780   -0.494570
 H    6.741930   -1.431156    1.217545
 H    7.009208    0.940148    0.659144
 H    7.976177    0.147957   -0.602513
 H    6.211653    0.445216   -2.243927
 H    5.875935    1.859727   -1.234434
 H    2.384379   -0.223432    0.321193
 H    1.182236    1.465896   -1.871228
 H   -0.052527    2.476061    0.008290
 H    2.129697    3.446743   -0.799237
 H    2.972116    2.559089    0.484529
 H    1.787665    3.795133    0.908890
 H    0.307379    2.002499    2.303726
 H    0.184381    0.392593    1.574926
 H    1.773647    1.072420    2.000653
 H   -1.102806    1.082385   -2.549782
 H   -2.018236    0.120908    0.984862
 H   -3.546299    1.493712    2.367528
 H   -2.718076    2.703713   -2.361469
 H   -4.274332    4.062134   -0.993657
 H   -3.035691   -1.632545   -3.911434
 H   -1.834598   -0.377899   -4.277259
 H   -3.377688    0.068816   -3.525243
 H   -4.588048   -0.244888   -1.715895
 H   -6.132239   -1.194236   -0.061003
 H   -1.524140   -2.959183   -0.440939
 H   -3.072187   -3.901611    1.248237
