29 
3w0l_ligand_dft.xyz
 C   -0.271774    2.811646   -0.203368
 C    0.418118    1.604118    0.406665
 C    1.569595    1.011083   -0.395026
 C    2.218216   -0.223714    0.226352
 C    1.308541   -1.423093    0.534755
 C    0.374457   -1.855424   -0.598958
 O   -1.504909    3.088262    0.372741
 O    0.034497    1.095450    1.445381
 O    2.526837    2.035527   -0.564311
 O    3.207133   -0.596404   -0.719163
 O    2.209919   -2.501280    0.771905
 O   -0.594793   -0.850648   -0.930413
 P   -2.004922   -0.666671   -0.214350
 O   -2.627521    0.621798   -0.576386
 O   -2.786094   -1.992475   -0.649351
 O   -1.788143   -0.911461    1.350652
 H    0.391426    3.672354   -0.051450
 H   -0.327898    2.650655   -1.291810
 H    1.147882    0.719627   -1.368823
 H    2.689798    0.075191    1.173515
 H    0.728806   -1.193971    1.430642
 H   -0.127845   -2.790647   -0.331443
 H    0.956284   -2.017550   -1.508065
 H   -2.097901    2.358133    0.119527
 H    3.270048    1.623195   -1.027439
 H    3.626668   -1.397487   -0.375498
 H    1.800082   -3.124821    1.380621
 H   -3.738585   -1.912979   -0.505616
 H   -1.363254   -0.119485    1.740122
