30 
3wab_ligand_xtb.xyz
 C    2.774768   -0.720198    0.956768
 C    2.956443   -0.387819   -0.524030
 C    2.608758    1.051256   -0.921320
 C    1.196427    1.517904   -0.565822
 C    0.118369    0.658100   -1.225719
 N    1.424502   -1.269935    1.260598
 C   -1.304091    0.883685   -0.697451
 C   -1.398593    0.932095    0.811309
 O   -2.441122    1.604124    1.225504
 O   -0.623193    0.385460    1.577077
 C   -2.221632   -0.258102   -1.156817
 S   -1.647847   -1.857068   -0.440729
 H    2.927911    0.169498    1.568197
 H    3.511553   -1.469732    1.250694
 H    4.006921   -0.538729   -0.773668
 H    2.391998   -1.099712   -1.127833
 H    2.753346    1.140575   -1.998380
 H    3.319780    1.725443   -0.442189
 H    1.083935    1.525765    0.517928
 H    1.084742    2.550241   -0.900129
 H    0.354742   -0.398119   -1.100533
 H    0.112804    0.858719   -2.297908
 H    1.406210   -1.678538    2.198861
 H    1.165781   -1.999016    0.587583
 H    0.646857   -0.532386    1.248540
 H   -1.718742    1.821613   -1.077304
 H   -2.534303    1.609234    2.194270
 H   -3.246477   -0.091918   -0.826940
 H   -2.187984   -0.349724   -2.241549
 H   -2.553218   -2.618786   -1.034333
