42 
3waw_ligand_dft.xyz
 C    8.116378   -1.241535   -0.395978
 C    6.800145   -1.916067   -0.024915
 N    5.725060   -0.969782    0.252735
 C    4.574632   -1.644042    0.832577
 C    3.507424   -0.640953    1.249524
 C    5.302542   -0.233884   -0.931285
 C    4.260913    0.814224   -0.572768
 N    3.136378    0.192532    0.118585
 C    1.944258    0.852792    0.102834
 S    0.628883    0.406316    1.182433
 N    1.673054    1.828175   -0.718819
 C    0.385235    2.247801   -0.543085
 O   -0.010448    3.239788   -1.372937
 C   -0.359428    1.643812    0.426624
 C   -1.784151    1.873168    0.821084
 C   -2.784125    0.874712    0.255622
 C   -3.919621    0.538698    0.987193
 C   -4.867725   -0.342740    0.475013
Cl   -6.261300   -0.724616    1.442719
 C   -4.683902   -0.903361   -0.789507
Cl   -5.836387   -2.012662   -1.470017
 C   -3.547941   -0.572714   -1.523989
 C   -2.607640    0.305982   -1.005499
 H    8.078373   -0.762410   -1.378999
 H    8.373956   -0.482320    0.348700
 H    8.919162   -1.984729   -0.428341
 H    6.953376   -2.504063    0.887464
 H    6.508031   -2.632724   -0.817967
 H    4.896587   -2.197836    1.720974
 H    4.127514   -2.370775    0.125756
 H    3.882630   -0.022021    2.078972
 H    2.628915   -1.191448    1.599507
 H    4.890451   -0.914873   -1.702172
 H    6.162319    0.281945   -1.366854
 H    3.880754    1.302609   -1.470155
 H    4.715976    1.581987    0.070629
 H   -0.933005    3.455009   -1.191655
 H   -2.081832    2.883654    0.502367
 H   -1.877968    1.893328    1.913647
 H   -4.080837    0.960372    1.974832
 H   -3.407500   -1.015279   -2.504074
 H   -1.718166    0.542107   -1.582173
