56 
3wcf_ligand_dft.xyz
 O    2.658074   -3.424368    0.099954
 P    3.605816   -2.135264   -0.190829
 O    3.445411   -1.804054   -1.741708
 O    4.992162   -2.233871    0.278024
 C    2.611298   -0.811275    0.634697
 P    0.885247   -0.882107    0.043670
 O    0.228468   -2.226447    0.586428
 O    0.126924    0.199126    0.944167
 O    0.884670   -0.657591   -1.429047
 C    3.334485    0.506261    0.268302
 N    2.541350    1.718351    0.481077
 C    1.815681    2.314132   -0.467546
 C    2.348627    2.388915    1.667751
 C    1.492681    3.411428    1.407007
 N    1.173788    3.348030    0.067681
 C    0.238517    4.233244   -0.657681
 C   -0.880599    3.431234   -1.317970
 C   -1.759920    2.676104   -0.312143
 C   -2.342932    1.387824   -0.893783
 C   -3.153953    0.579540    0.120866
 C   -3.477153   -0.835533   -0.361414
 C   -4.158111   -1.714145    0.692862
 C   -5.477426   -1.160281    1.247043
 C   -6.536895   -0.830490    0.188969
 C   -6.933242   -2.022812   -0.681486
 H    3.163640   -4.252620    0.111620
 H    2.532171   -1.547936   -1.998057
 H    2.636223   -0.990984    1.713893
 H    0.697218   -3.027326    0.287702
 H   -0.834761    0.055004    0.988850
 H    3.612964    0.500271   -0.787075
 H    4.254218    0.592923    0.849333
 H    1.739817    1.974379   -1.489439
 H    2.833816    2.087267    2.582426
 H    1.092454    4.177735    2.051668
 H    0.817776    4.805744   -1.386278
 H   -0.157135    4.930278    0.084326
 H   -0.440648    2.727081   -2.035967
 H   -1.477201    4.128222   -1.915183
 H   -2.562022    3.331392    0.047532
 H   -1.161618    2.413409    0.570782
 H   -1.517850    0.773042   -1.282012
 H   -2.976376    1.617889   -1.759512
 H   -4.076799    1.119486    0.363731
 H   -2.616883    0.522034    1.087670
 H   -2.548171   -1.328055   -0.683457
 H   -4.104095   -0.768315   -1.259490
 H   -3.463197   -1.871001    1.529894
 H   -4.330894   -2.705379    0.257716
 H   -5.277948   -0.261393    1.845409
 H   -5.891147   -1.898606    1.945575
 H   -6.184276   -0.011267   -0.452779
 H   -7.426653   -0.446341    0.701352
 H   -6.097921   -2.373478   -1.298012
 H   -7.266229   -2.864803   -0.063908
 H   -7.752404   -1.759992   -1.357611
