56 
3wcf_ligand_xtb.xyz
 O    2.887988   -3.430670    0.411257
 P    3.639239   -2.091357   -0.061874
 O    3.395081   -1.965215   -1.616926
 O    5.039241   -2.005788    0.310618
 C    2.586743   -0.765403    0.673672
 P    0.992006   -0.742473   -0.225417
 O    0.611343   -2.237804   -0.592192
 O    0.001892   -0.301440    0.953692
 O    0.951170    0.114105   -1.408060
 C    3.361003    0.523903    0.436120
 N    2.522999    1.683896    0.612974
 C    2.005449    2.416042   -0.368920
 C    2.003175    2.130488    1.791376
 C    1.154562    3.152071    1.493393
 N    1.170787    3.313291    0.140445
 C    0.298376    4.169967   -0.631628
 C   -0.782497    3.319618   -1.310264
 C   -1.717992    2.648087   -0.302779
 C   -2.400780    1.423751   -0.912030
 C   -3.230421    0.652390    0.116257
 C   -3.569845   -0.757435   -0.367445
 C   -4.212206   -1.626852    0.715071
 C   -5.546749   -1.104632    1.252900
 C   -6.643064   -0.931755    0.200654
 C   -7.024126   -2.235563   -0.490154
 H    3.531664   -4.064430    0.737311
 H    2.515294   -2.145931   -1.959962
 H    2.416336   -0.951871    1.732523
 H    0.636345   -2.901553    0.102295
 H   -0.897758   -0.142824    0.642839
 H    3.733612    0.522860   -0.592263
 H    4.220184    0.566670    1.111327
 H    2.220628    2.286964   -1.411629
 H    2.268995    1.707567    2.738193
 H    0.560414    3.764991    2.140501
 H    0.889684    4.695402   -1.384424
 H   -0.150874    4.900997    0.042261
 H   -0.294640    2.548408   -1.909058
 H   -1.353329    3.956129   -1.984815
 H   -2.469083    3.358172    0.046072
 H   -1.144443    2.320677    0.569558
 H   -1.630814    0.769194   -1.331260
 H   -3.041346    1.733427   -1.738304
 H   -4.150044    1.201351    0.319462
 H   -2.684882    0.586762    1.065601
 H   -2.652328   -1.251648   -0.707275
 H   -4.232778   -0.692407   -1.229913
 H   -3.518492   -1.715770    1.556781
 H   -4.359813   -2.628940    0.310648
 H   -5.385972   -0.148229    1.755135
 H   -5.900511   -1.809362    2.008750
 H   -6.332957   -0.199484   -0.547094
 H   -7.526091   -0.527856    0.700547
 H   -6.203574   -2.619243   -1.091273
 H   -7.296078   -2.989620    0.244914
 H   -7.876014   -2.076829   -1.146488
