49 
3we4_ligand_xtb.xyz
 C    3.636579    0.667453   -0.247370
 C    3.461847    1.858454    0.486131
 C    4.271456    2.908509    0.073035
 N    5.121866    2.843211   -0.942464
 N    4.452189    0.623238   -1.301705
 F   -4.628129    2.598841   -1.192623
 C   -4.512013    1.936241   -0.017892
 F   -5.773573    1.841209    0.458043
 F   -3.873984    2.782594    0.810643
 C   -3.840398    0.611211   -0.165392
 C   -4.437600   -0.322825   -1.028342
 C   -3.879983   -1.563187   -1.229899
 C   -2.676033    0.339473    0.526713
 C   -2.107654   -0.910462    0.331931
 C   -2.703028   -1.866210   -0.553429
 N   -1.918496   -2.979774   -0.571802
 N   -0.974956   -1.462413    0.850303
 C   -0.942462   -2.676765    0.277375
 C    0.184156   -3.631817    0.528793
 N    1.499130   -2.935577    0.379918
 C    1.676147   -1.956723    1.480909
 C    2.946634   -1.139627    1.290719
 C    1.584595   -2.253828   -0.932648
 C    2.895863   -1.490841   -1.056294
 N    2.932387   -0.500552   -0.003220
 C    2.424575    2.099124    1.544791
 C    1.007598    1.905431    1.002836
 C    5.141939    1.705417   -1.601770
 H    4.222757    3.866210    0.576475
 H   -5.350136   -0.045611   -1.535421
 H   -4.335523   -2.282542   -1.892248
 H   -2.229803    1.064219    1.189713
 H    0.109429   -4.442654   -0.197191
 H    0.136268   -4.044727    1.539831
 H    2.255930   -3.626529    0.426010
 H    1.717222   -2.499066    2.427174
 H    0.752905   -1.338279    1.459976
 H    3.833325   -1.795874    1.375535
 H    3.009379   -0.397773    2.082776
 H    0.743436   -1.559640   -0.987309
 H    1.481312   -2.996964   -1.724915
 H    2.942360   -0.980743   -2.017715
 H    3.755455   -2.177900   -0.998018
 H    2.531941    3.130009    1.890256
 H    2.577348    1.457602    2.415454
 H    0.830212    2.581306    0.169806
 H    0.844596    0.888613    0.659702
 H    0.282443    2.125396    1.781378
 H    5.792172    1.640058   -2.464240
