39 
3wf5_ligand_xtb.xyz
 N    4.835325    0.002221   -1.745676
 C    4.154132   -1.107126   -1.846931
 N    3.198017   -1.486689   -1.022482
 C    2.822104   -0.701708   -0.001940
 N    1.885555   -1.210559    0.818991
 C    1.057298   -2.310511    0.374807
 C   -0.298924   -1.772993   -0.086059
 C   -0.963027   -0.978778    1.049917
 C   -2.251790   -0.422167    0.561672
 N   -3.252143   -1.255513    0.141955
 C   -4.249711   -0.441170   -0.220792
 C   -5.533054   -0.712259   -0.723259
 C   -6.340194    0.363937   -1.009031
 C   -5.905475    1.680368   -0.808193
 C   -4.637691    1.976028   -0.312534
 C   -3.812294    0.914069   -0.020595
 N   -2.527729    0.854488    0.475307
 C   -0.022616    0.117490    1.548587
 C    1.316177   -0.509116    1.942483
 C    3.440407    0.568734    0.155063
 C    3.413629    1.751424    0.945867
 N    4.311995    2.586897    0.472210
 N    4.946551    2.068834   -0.520725
 C    4.490897    0.853054   -0.796935
 H    4.406948   -1.784953   -2.648766
 H    0.921324   -2.998766    1.214437
 H    1.571455   -2.820022   -0.440232
 H   -0.948445   -2.594150   -0.387463
 H   -0.153063   -1.116934   -0.947017
 H   -1.184309   -1.675221    1.868644
 H   -5.858117   -1.729737   -0.873192
 H   -7.334375    0.198571   -1.396519
 H   -6.577230    2.491725   -1.047497
 H   -4.316248    2.995271   -0.165315
 H   -0.464768    0.629939    2.402462
 H    0.125279    0.853133    0.756452
 H    2.017705    0.233134    2.313983
 H    1.149098   -1.247702    2.735272
 H    2.782535    2.032311    1.764934
