73 
3wgg_ligand_xtb.xyz
 P   -0.615162   -1.634227   -0.785145
 O    0.302875   -0.496709   -0.887187
 O   -0.172073   -2.956070   -1.510986
 O   -2.050194   -1.347797   -1.374013
 C   -3.019716   -2.397632   -1.320856
 C   -4.392793   -1.843897   -0.927493
 O   -4.360046   -1.265795    0.371821
 C   -4.911829   -0.751118   -1.873229
 O   -6.307498   -0.793009   -1.934790
 C   -4.412081    0.530322   -1.192907
 O   -5.242119    1.609595   -1.477724
 C   -4.413407    0.127058    0.305445
 N   -3.279835    0.720675    0.977928
 C   -2.410074    0.144577    1.846945
 N   -1.409775    0.919021    2.168893
 C   -1.629676    2.098895    1.496676
 C   -0.932768    3.320964    1.378685
 N    0.220922    3.602131    1.996939
 N   -1.477592    4.271239    0.606427
 C   -2.611404    4.047790   -0.020761
 N   -3.336077    2.939029   -0.024299
 C   -2.809557    1.982485    0.747448
 O   -0.964652   -2.097211    0.703869
 P   -0.080703   -2.140608    2.055201
 O   -0.923987   -2.553059    3.161502
 O    0.633947   -0.745075    2.153151
 O    1.068531   -3.167250    1.640722
 C    2.442922   -2.860389    1.746976
 C    2.922236   -2.028149    0.558524
 O    4.009843   -1.226548    0.986060
 C    3.467512   -2.803302   -0.656092
 O    2.493962   -3.225375   -1.569608
 C    4.404274   -1.751222   -1.307426
 O    3.737416   -1.100576   -2.349723
 C    4.812685   -0.838360   -0.112363
 N    4.693824    0.556375   -0.415538
 C    3.452878    1.172909   -0.442425
 C    3.299763    2.467557   -0.741508
 C    1.995366    3.154529   -0.627190
 O    1.914370    4.313535   -0.249410
 N    0.897224    2.453251   -0.993490
 C    4.478399    3.336463   -1.105739
 C    5.746162    2.683544   -0.643579
 C    5.812199    1.389709   -0.362775
 H    0.778380   -3.175497   -1.421227
 H   -3.074373   -2.865727   -2.306448
 H   -2.715072   -3.136043   -0.578631
 H   -5.104411   -2.675861   -0.893898
 H   -4.482785   -0.858301   -2.878657
 H   -6.615439    0.122697   -2.009330
 H   -3.375917    0.716727   -1.505407
 H   -4.813960    2.397901   -1.082670
 H   -5.338432    0.484610    0.790385
 H   -2.559003   -0.844611    2.230548
 H    0.749128    4.378905    1.619572
 H    0.716452    2.854801    2.452610
 H   -2.991500    4.863195   -0.620767
 H   -0.040476   -0.029020    2.336533
 H    2.645517   -2.285302    2.653666
 H    2.964323   -3.819707    1.798371
 H    2.072082   -1.411192    0.235348
 H    4.034746   -3.677012   -0.315852
 H    2.585263   -2.636651   -2.347166
 H    5.279487   -2.216181   -1.766713
 H    3.126512   -0.435210   -1.997448
 H    5.857311   -1.030041    0.165606
 H    2.618476    0.570600   -0.117281
 H    0.872077    1.457426   -1.142841
 H    0.014200    2.932215   -0.917674
 H    4.351465    4.320972   -0.646796
 H    4.504830    3.493029   -2.192793
 H    6.623269    3.301659   -0.545759
 H    6.725436    0.906456   -0.051735
