73 
3wgg_ligand_dft.xyz
 P   -0.772959   -1.737459   -0.844211
 O    0.143084   -0.602514   -1.064930
 O   -0.347138   -3.127049   -1.465918
 O   -2.244507   -1.498281   -1.385998
 C   -3.294830   -2.459791   -1.171636
 C   -4.597088   -1.742508   -0.867903
 O   -4.508888   -1.074825    0.398100
 C   -5.023403   -0.677928   -1.878329
 O   -6.426941   -0.604767   -1.878868
 C   -4.434697    0.600960   -1.284518
 O   -5.179659    1.705614   -1.700804
 C   -4.538920    0.310963    0.231362
 N   -3.405856    0.888161    0.959427
 C   -2.579021    0.258194    1.840836
 N   -1.543006    0.986701    2.193547
 C   -1.713244    2.182095    1.516926
 C   -0.939908    3.357388    1.400818
 N    0.222172    3.561823    2.052955
 N   -1.377246    4.325697    0.575187
 C   -2.517873    4.149163   -0.089637
 N   -3.328550    3.091240   -0.072931
 C   -2.868446    2.133787    0.746159
 O   -1.097547   -2.064814    0.707227
 P   -0.141360   -2.182627    2.017728
 O   -0.931925   -2.685381    3.145134
 O    0.558147   -0.770403    2.170461
 O    1.027614   -3.114830    1.447056
 C    2.408386   -2.846002    1.700695
 C    2.968140   -1.989933    0.577640
 O    4.179118   -1.425915    1.060080
 C    3.373497   -2.688332   -0.726829
 O    2.318902   -2.893322   -1.637594
 C    4.428719   -1.710408   -1.290562
 O    3.722858   -0.852997   -2.154576
 C    4.978071   -0.995875   -0.012580
 N    4.977757    0.449992   -0.104697
 C    3.763702    1.127678   -0.090419
 C    3.607492    2.379229   -0.541528
 C    2.276968    3.039133   -0.449849
 O    2.184363    4.231713   -0.162933
 N    1.188754    2.264454   -0.692464
 C    4.768592    3.216001   -1.026508
 C    5.993556    2.347802   -1.174759
 C    6.055214    1.088964   -0.731815
 H    0.633777   -3.256991   -1.416399
 H   -3.392287   -3.060006   -2.080691
 H   -3.042661   -3.111580   -0.331684
 H   -5.382885   -2.500889   -0.790244
 H   -4.627729   -0.879953   -2.883128
 H   -6.643696    0.321535   -2.068256
 H   -3.377119    0.685247   -1.559843
 H   -4.742273    2.483786   -1.298338
 H   -5.467070    0.728519    0.636638
 H   -2.774401   -0.750272    2.174636
 H    0.856015    4.218966    1.603929
 H    0.656957    2.759885    2.484535
 H   -2.817335    4.969342   -0.736726
 H   -0.113284   -0.043681    2.342016
 H    2.541603   -2.318622    2.648284
 H    2.906234   -3.816351    1.763468
 H    2.227764   -1.216376    0.340155
 H    3.824596   -3.662321   -0.515627
 H    2.213685   -2.045764   -2.109417
 H    5.232882   -2.224406   -1.830596
 H    4.227846   -0.045801   -2.317954
 H    6.009820   -1.301399    0.187993
 H    2.937447    0.586384    0.349555
 H    1.218016    1.306792   -1.017887
 H    0.290262    2.724032   -0.695127
 H    4.952075    4.041978   -0.324720
 H    4.517822    3.701279   -1.979575
 H    6.883428    2.779721   -1.620738
 H    6.957834    0.490452   -0.811085
