23 
3wk9_ligand_dft.xyz
 C    0.307560    0.241116    0.984225
 C    0.922059    1.643216   -0.862918
 C    1.571899   -0.333974    0.980397
 C    2.193941    1.077118   -0.882264
 C   -3.431513    0.728568    1.205607
 C   -0.033233    1.237919    0.067362
 C    2.507623    0.091506    0.043331
 C   -2.541014    0.901690    0.197503
 C   -4.200737   -0.880562   -0.067261
 C   -1.409478    1.878471    0.098977
 N   -4.366935   -0.273949    1.067866
 N   -5.023326   -1.882528   -0.525869
 S   -2.885005   -0.272110   -1.056988
Br    4.235205   -0.691674    0.026853
 H   -0.432280   -0.096359    1.705307
 H    0.675122    2.413433   -1.589216
 H    1.829579   -1.107560    1.695397
 H    2.930290    1.396753   -1.611323
 H   -3.441384    1.328974    2.109234
 H   -1.530584    2.518600   -0.783369
 H   -1.480605    2.543096    0.969645
 H   -5.614497   -2.261359    0.202161
 H   -4.598560   -2.588289   -1.109632
