32 
3wka_ligand_xtb.xyz
 C    0.124199   -0.119777   -0.021476
 C    1.021592    0.917114   -0.067539
 C    0.583287   -1.476152    0.069610
 C    2.907592   -0.579457    0.017203
 C   -4.137068    0.036720    0.047925
 C   -3.318210    0.656123    1.175698
 C   -3.376857    0.185457   -1.265797
 C   -1.931027    0.023033    1.219282
 C   -1.990982   -0.438969   -1.136282
 C    3.302183    1.814039   -0.059166
 N    1.983449   -1.579498    0.064471
 N   -1.262606    0.228630   -0.061922
 N    2.375735    0.701693   -0.052798
 N    0.562060    2.201955   -0.054883
 O   -0.087987   -2.487120    0.140834
 O    4.100826   -0.781500    0.033175
 H   -5.114162    0.518760   -0.021287
 H   -4.295178   -1.023610    0.255603
 H   -3.814785    0.507885    2.135809
 H   -3.216964    1.730243    1.005173
 H   -3.273400    1.245512   -1.508531
 H   -3.918578   -0.300514   -2.078613
 H   -2.019734   -1.048807    1.451404
 H   -1.322766    0.495301    1.995881
 H   -1.424987   -0.301874   -2.062270
 H   -2.086128   -1.517099   -0.946960
 H    4.300871    1.395486    0.059199
 H    3.257028    2.355010   -1.006854
 H    3.087663    2.491460    0.767886
 H    2.357456   -2.520157    0.125286
 H   -0.441018    2.224280   -0.197036
 H    1.103268    2.918832   -0.507579
