62 
3wke_ligand_xtb.xyz
 C   -6.370190    1.082426   -0.671357
 C   -7.396254   -0.455713    0.853498
 C   -5.179731    0.390124   -0.594092
 C   -6.216143   -1.159080    0.925263
 C   -7.490024    0.686700    0.055963
 C   -5.084440   -0.744403    0.212404
 C   -8.723972    1.501649   -0.084540
 C    2.541277   -0.451934   -0.140172
 C   -0.572656   -2.204121   -0.950780
 C   -0.689421    0.199278   -0.231792
 C   -1.917357   -2.463041   -0.280443
 C   -2.028444   -0.070881    0.443983
 C    7.807805   -0.311177   -0.344006
 C    6.842586    0.427195    1.837693
 C    7.177661    2.079591   -0.004572
 C    5.502512   -1.014528    0.306448
 C    5.830525    0.639295   -1.536166
 C    4.870414    1.380855    0.644499
 C    6.907565   -0.713404    0.823518
 C    7.237208    0.936580   -1.016379
 C    6.276958    1.674875    1.161546
 C    0.171878   -1.068957   -0.247808
 C   -2.770639   -1.194667   -0.284155
 C    4.927558    0.234961   -0.369948
 N    1.450333   -0.839133   -0.885553
 N    3.589524   -0.023850   -0.900587
 O   -8.898784    2.274947   -0.987897
 O    2.546376   -0.505318    1.072869
 O   -9.663964    1.350594    0.870333
 O   -3.991784   -1.519750    0.367840
 H   -6.453489    1.957618   -1.297683
 H   -8.249839   -0.832557    1.402368
 H   -4.336797    0.739944   -1.167924
 H   -6.135520   -2.048412    1.529970
 H   -0.732039   -1.934273   -1.998540
 H    0.034942   -3.109221   -0.925166
 H   -0.155847    0.986749    0.302488
 H   -0.855581    0.536658   -1.259462
 H   -1.767170   -2.775885    0.753512
 H   -2.453893   -3.259296   -0.798631
 H   -2.634672    0.836849    0.458813
 H   -1.865109   -0.379935    1.478000
 H    7.870447   -1.128744   -1.066188
 H    8.817868   -0.106799    0.017596
 H    7.841151    0.635060    2.228960
 H    6.203851    0.140137    2.674773
 H    6.786822    2.980730   -0.482711
 H    8.182665    2.303139    0.359850
 H    4.847465   -1.301898    1.129221
 H    5.531068   -1.838777   -0.411528
 H    5.872297   -0.170989   -2.269888
 H    5.419941    1.524499   -2.028492
 H    4.448550    2.267271    0.164959
 H    4.213801    1.092591    1.464778
 H    7.313720   -1.609592    1.305481
 H    7.877558    1.224588   -1.858214
 H    6.229193    2.494238    1.887015
 H    0.405818   -1.355057    0.782634
 H   -2.971703   -0.903500   -1.325224
 H    1.416928   -0.573405   -1.857673
 H    3.540040   -0.187152   -1.893824
 H   -9.384274    0.742782    1.566920
