78 
3wq6_ligand_xtb.xyz
 C   -2.969653    0.149100    2.867111
 C   -2.145602    1.179142    3.289094
 C   -0.789617    1.146959    3.010036
 C   -0.258679    0.073160    2.316564
 C   -1.078744   -0.964815    1.910749
 C   -2.441839   -0.933134    2.176800
 C   -3.343725   -2.063349    1.740732
 N   -2.981532   -2.566727    0.431201
 C   -2.127538   -3.626731    0.254031
 O   -1.696276   -4.323866    1.138807
 C   -3.501830   -2.074748   -0.744010
 O   -4.404016   -1.282593   -0.813569
 C   -2.793308   -2.763322   -1.889327
 C   -1.839133   -3.744272   -1.227076
 S   -0.090456   -3.221116   -1.478472
 C    0.804476   -4.590349   -0.639724
 C    2.046649   -4.049979    0.047700
 C    3.105735   -3.567620   -0.957192
 C    3.871574   -2.399378   -0.373924
 N    5.008197   -2.462144    0.198797
 N    3.206929   -1.230361   -0.491960
 C    3.460860    0.038935    0.147280
 O    2.433472    0.839800   -0.383071
 C    4.857980    0.627506   -0.145974
 O    5.880618   -0.002083    0.565502
 C    4.881587    2.099249    0.293515
 O    6.084562    2.717830   -0.092141
 C    3.718775    2.886383   -0.312353
 O    3.692159    4.200455    0.172566
 C    2.409248    2.181024    0.059073
 C    1.217091    2.857277   -0.607257
 O    0.034311    2.216992   -0.163874
 C   -1.113588    2.611700   -0.833974
 O   -1.393970    3.957976   -0.549860
 C   -2.581854    4.394500   -1.164464
 C   -3.787720    3.600063   -0.663380
 O   -4.942791    4.064790   -1.308519
 C   -3.585267    2.099017   -0.926262
 O   -4.663098    1.447478   -0.309752
 C   -2.228988    1.662521   -0.363393
 O   -1.927635    0.352041   -0.789319
 H   -4.029795    0.189772    3.068942
 H   -2.567920    2.016182    3.824830
 H   -0.151958    1.959320    3.322440
 H    0.795284    0.044610    2.085577
 H   -0.651716   -1.804639    1.382456
 H   -3.258480   -2.901412    2.441654
 H   -4.381122   -1.723676    1.696189
 H   -2.272056   -2.001605   -2.472350
 H   -3.517708   -3.250000   -2.542767
 H   -1.921098   -4.771407   -1.584319
 H    1.053587   -5.338764   -1.392513
 H    0.118951   -5.007918    0.095023
 H    1.750259   -3.220571    0.694385
 H    2.464617   -4.829480    0.687590
 H    2.610463   -3.242122   -1.874613
 H    3.790120   -4.379636   -1.207100
 H    5.414194   -3.388269    0.240631
 H    2.305404   -1.242784   -0.945909
 H    3.364968   -0.052967    1.250226
 H    5.034318    0.571527   -1.234146
 H    5.732370   -0.984044    0.509849
 H    4.791134    2.122387    1.393055
 H    6.794034    2.103658    0.136918
 H    3.830058    2.883485   -1.409201
 H    4.600592    4.529092    0.135467
 H    2.277307    2.218442    1.150057
 H    1.305060    2.753910   -1.697057
 H    1.208956    3.917374   -0.338911
 H   -0.984438    2.493490   -1.934969
 H   -2.690727    5.448141   -0.907857
 H   -2.515441    4.293886   -2.257525
 H   -3.876485    3.732368    0.426854
 H   -5.644401    3.432504   -1.102912
 H   -3.590376    1.912944   -2.012698
 H   -4.592216    0.492024   -0.471609
 H   -2.269761    1.708500    0.732817
 H   -1.013868    0.184566   -0.519622
