54 
3wqh_ligand_dft.xyz
 N   -6.973344    1.883879   -0.242687
 N   -4.969119   -0.830924    0.107968
 N   -1.485640    0.174844   -0.361137
 N    1.492910    1.416090   -0.514588
 N    4.905193   -1.965596   -0.961462
 N    5.442879    0.076512    0.183874
 N    6.472203    0.725070    0.761847
 O   -3.770745    0.199459   -1.516149
 O    0.958008   -0.773091   -0.779018
 C   -6.666068    0.782996   -0.419843
 C   -6.247226   -0.622304   -0.588468
 C   -7.185324   -1.607251    0.126703
 C   -6.651506   -1.613393    1.562723
 C   -5.129352   -1.545056    1.385315
 C   -3.835194   -0.365345   -0.426934
 C   -2.543695   -0.539962    0.386730
 C   -0.970016    1.500783    0.182019
 C   -2.107639    2.519674    0.112791
 C   -0.452246    1.314695    1.605120
 C    0.161240    1.940216   -0.782693
 C    1.821754    0.099780   -0.614199
 C    3.245507   -0.266185   -0.501222
 C    4.180388    0.524332    0.121019
 C    3.677503   -1.534393   -1.018065
 C    5.819196   -1.166014   -0.359837
 C    7.165399   -1.278141   -0.102800
 C    7.512974   -0.093194    0.585451
 C    8.858755    0.296081    1.100467
 H   -0.629153   -0.408776   -0.534575
 H   -1.937004    0.361617   -1.279701
 H    2.244296    2.086750   -0.574757
 H   -6.129491   -0.827219   -1.654944
 H   -7.073738   -2.592212   -0.336794
 H   -8.231555   -1.307290    0.054407
 H   -7.006383   -0.728607    2.099886
 H   -6.955805   -2.497900    2.124503
 H   -4.686706   -2.544831    1.308767
 H   -4.643638   -1.006787    2.204732
 H   -2.272722   -1.594745    0.478155
 H   -2.647937   -0.128906    1.391232
 H   -1.774622    3.466971    0.544750
 H   -2.431377    2.699768   -0.916877
 H   -2.980488    2.190659    0.684782
 H   -1.268590    1.213679    2.325551
 H    0.206413    0.446132    1.690831
 H    0.120038    2.200180    1.894268
 H    0.241797    3.026113   -0.704766
 H   -0.134561    1.718054   -1.817722
 H    4.004606    1.477725    0.608159
 H    2.942611   -2.178126   -1.493491
 H    7.807078   -2.102246   -0.372735
 H    8.810225    1.275898    1.579068
 H    9.588150    0.335914    0.285622
 H    9.218161   -0.435806    1.830632
