54 
3wqh_ligand_xtb.xyz
 N   -7.153392    1.391650   -0.579469
 N   -4.796682   -0.870193    0.068367
 N   -1.478279    0.569789   -0.171012
 N    1.485189    1.582153   -0.326494
 N    4.524824   -2.139058   -0.540575
 N    5.390912    0.013741    0.036987
 N    6.536880    0.601655    0.324799
 O   -3.612265    0.299429   -1.454654
 O    0.788774   -0.557544   -0.547503
 C   -6.666794    0.365549   -0.690451
 C   -6.004496   -0.926548   -0.761217
 C   -6.839205   -2.028546   -0.104970
 C   -6.471148   -1.883816    1.370931
 C   -4.976748   -1.557615    1.335175
 C   -3.717231   -0.234851   -0.357466
 C   -2.500756   -0.155447    0.588647
 C   -0.947000    1.870216    0.338055
 C   -2.037569    2.931076    0.231390
 C   -0.450805    1.712498    1.772423
 C    0.221098    2.245425   -0.605901
 C    1.715016    0.255547   -0.413991
 C    3.100050   -0.211484   -0.323185
 C    4.185621    0.579350   -0.001038
 C    3.351021   -1.595771   -0.583790
 C    5.566712   -1.368737   -0.236697
 C    6.918108   -1.590859   -0.098277
 C    7.471914   -0.342902    0.246647
 C    8.895793   -0.034058    0.501702
 H   -0.590760   -0.033234   -0.379835
 H   -1.990129    0.738399   -1.084382
 H    2.284462    2.187117   -0.239767
 H   -5.736789   -1.126990   -1.804357
 H   -6.532052   -3.001639   -0.488417
 H   -7.903430   -1.897100   -0.286296
 H   -7.025042   -1.054320    1.811631
 H   -6.678825   -2.784433    1.942680
 H   -4.373524   -2.472005    1.346022
 H   -4.675199   -0.927213    2.174289
 H   -2.154477   -1.155691    0.853716
 H   -2.781681    0.372667    1.499694
 H   -1.686741    3.878660    0.628949
 H   -2.333436    3.081280   -0.804397
 H   -2.920689    2.643804    0.795954
 H   -1.276607    1.656743    2.475718
 H    0.160248    0.819977    1.881657
 H    0.150914    2.574055    2.047496
 H    0.401397    3.316323   -0.519891
 H   -0.081526    2.039943   -1.640624
 H    4.157093    1.631255    0.249782
 H    2.521860   -2.239949   -0.836859
 H    7.436201   -2.516505   -0.227418
 H    9.286434   -0.683063    1.283323
 H    9.001007    1.003985    0.801886
 H    9.481577   -0.209461   -0.399444
