118 
3wqv_ligand_dft.xyz
 C  -12.154008   -0.125568    0.409542
 C  -11.525800    0.852508   -0.581746
 C  -10.212444    0.317533   -1.132200
 C   -9.288535   -0.011722    0.052611
 C  -10.010647   -0.921256    1.071216
 C   -9.282879   -1.139776    2.399982
 N  -12.483741    1.186465   -1.688327
 O  -13.293647    0.483233    0.858621
 O   -9.705594    1.316002   -1.972047
 O   -8.138337   -0.661860   -0.504543
 O  -11.220228   -0.290404    1.453247
 O   -8.228725   -2.104561    2.273724
 C   -6.905600   -0.308634    0.005712
 C   -5.938592   -1.452638   -0.294851
 C   -4.554372   -1.124955    0.257623
 C   -4.097823    0.199247   -0.371848
 C   -5.162661    1.291483   -0.133777
 C   -4.870318    2.614884   -0.847390
 N   -6.441065   -2.740219    0.281948
 O   -3.734343   -2.215348   -0.057167
 O   -2.880547    0.633911    0.227312
 O   -6.412941    0.838499   -0.644281
 O   -3.835832    3.338563   -0.186963
 C   -1.670986    0.364565   -0.382482
 C   -0.701147    1.458924    0.070632
 C    0.730310    1.200209   -0.388108
 C    1.152384   -0.206200    0.053979
 C    0.117062   -1.235734   -0.438336
 C    0.387908   -2.668865    0.038283
 N   -1.140428    2.807865   -0.406210
 O    1.498412    2.227229    0.166197
 O    2.398263   -0.543646   -0.532355
 O   -1.168495   -0.873876    0.082571
 O    1.479507   -3.250478   -0.656836
 C    3.582928   -0.323764    0.155315
 C    4.593206   -1.317716   -0.411106
 C    6.005497   -1.109043    0.120129
 C    6.404280    0.352927   -0.130146
 C    5.335800    1.289700    0.461473
 C    5.596020    2.774025    0.183082
 N    4.193886   -2.735969   -0.149081
 O    6.767077   -2.074227   -0.533337
 O    7.600819    0.649989    0.551767
 O    4.053503    0.980407   -0.118420
 O    6.649412    3.248317    1.010921
 C    8.805427    0.603459   -0.147864
 C    9.828176    1.230313    0.791966
 C   11.248417    1.066084    0.288803
 C   11.517704   -0.421069    0.048708
 C   10.462389   -0.959883   -0.934629
 C   10.560167   -2.450916   -1.184461
 N    9.526523    2.686028    1.007086
 O   12.056105    1.656284    1.263287
 O   12.801251   -0.488447   -0.511283
 O    9.143338   -0.723696   -0.388623
 O   10.281116   -3.102051    0.034094
 H  -12.348020   -1.108477   -0.058851
 H  -11.356194    1.793119   -0.050482
 H  -10.393535   -0.620053   -1.685365
 H   -8.992299    0.929770    0.530761
 H  -10.204139   -1.900897    0.605101
 H  -10.028875   -1.502621    3.110611
 H   -8.882109   -0.192991    2.780487
 H  -13.345619    1.580149   -1.284689
 H  -12.755017    0.369387   -2.247975
 H  -12.063150    1.874369   -2.326291
 H  -13.810477   -0.099599    1.434995
 H   -8.921960    0.987647   -2.432275
 H   -8.196759   -2.620169    3.090361
 H   -6.959688   -0.124830    1.092221
 H   -5.876693   -1.586157   -1.377909
 H   -4.614660   -0.974202    1.348728
 H   -3.956208    0.050329   -1.451840
 H   -5.237103    1.484694    0.947460
 H   -5.793226    3.199385   -0.871375
 H   -4.566444    2.433611   -1.883939
 H   -5.647891   -3.358359    0.495813
 H   -7.045342   -3.227466   -0.385782
 H   -7.033930   -2.565403    1.132518
 H   -2.837710   -2.040283    0.273938
 H   -4.194158    4.136213    0.222205
 H   -1.770756    0.331018   -1.482277
 H   -0.737757    1.497317    1.162889
 H    0.775557    1.215411   -1.492044
 H    1.217332   -0.239594    1.151190
 H    0.094578   -1.228357   -1.538344
 H   -0.520209   -3.260213   -0.110469
 H    0.615242   -2.674002    1.109488
 H   -2.157565    2.998642   -0.198003
 H   -1.013940    2.918629   -1.418030
 H   -0.552421    3.524294    0.036588
 H    2.433248    2.088069   -0.071993
 H    1.165309   -3.909121   -1.288587
 H    3.442478   -0.447631    1.244008
 H    4.594677   -1.201478   -1.498489
 H    6.019897   -1.254486    1.216195
 H    6.508479    0.528788   -1.210478
 H    5.294729    1.145495    1.550680
 H    4.671119    3.319035    0.399090
 H    5.837809    2.923979   -0.876595
 H    3.213942   -2.938790   -0.456850
 H    4.266305   -2.976703    0.845387
 H    4.866364   -3.343473   -0.637024
 H    7.716622   -1.951058   -0.329223
 H    6.423983    4.133237    1.324197
 H    8.726774    1.160716   -1.100839
 H    9.725592    0.750384    1.768560
 H   11.364414    1.575514   -0.686025
 H   11.442160   -0.968105    0.996152
 H   10.562415   -0.431543   -1.893838
 H   11.568403   -2.660155   -1.564153
 H    9.843370   -2.732131   -1.969141
 H    9.794857    3.247793    0.191753
 H   10.094710    3.029436    1.791334
 H    8.512009    2.841105    1.181670
 H   12.985363    1.536166    1.014806
 H   13.278994   -1.255687   -0.173291
 H   10.578833   -4.018318   -0.022404
