46 
3ws9_ligand_xtb.xyz
 C    2.514817    4.541123    0.450465
 C    3.063509    3.634581    1.342401
 C    1.774144    4.084962   -0.626913
 C    5.035349   -1.618512    0.040447
 C    4.331431   -0.432407    0.069777
 C    2.871521    2.277441    1.162965
 C    1.582882    2.729135   -0.819908
 C    3.035279   -2.933861   -0.268571
 C   -4.561096    1.355511   -0.947784
 C    4.407469   -2.861239   -0.119751
 C    2.304669   -1.752521   -0.243559
 C    2.955049   -0.513119   -0.060060
 C    2.130400    1.818499    0.077753
 C   -5.202198    0.302748   -0.322979
 C   -2.996163    0.058062   -0.244979
 C    0.779027   -0.255700   -0.298439
 C   -6.515295   -0.112918   -0.050965
 C   -6.690720   -1.283956    0.628739
 C   -5.545143   -2.021669    1.028794
 C    5.248273   -4.104194   -0.138146
 C   -1.666560   -0.535370    0.042398
 C   -0.545957    0.413634   -0.376125
 N   -3.228483    1.186497   -0.888782
 N    0.955828   -1.540681   -0.377724
 N   -4.324158   -1.664718    0.791698
 N    1.954848    0.438217   -0.103440
 N   -4.158111   -0.524249    0.125640
 H    2.664764    5.600374    0.595056
 H    3.639915    3.985487    2.185613
 H    1.346646    4.787683   -1.326317
 H    6.110963   -1.593720    0.141786
 H    4.835768    0.516086    0.181307
 H    3.283473    1.566822    1.864030
 H    1.021802    2.373352   -1.669749
 H    2.532704   -3.878118   -0.406717
 H   -4.991631    2.210862   -1.428024
 H   -7.343090    0.494843   -0.382893
 H   -7.672473   -1.658352    0.867033
 H   -5.650716   -2.950064    1.570026
 H    5.947973   -4.077445   -0.973144
 H    5.829201   -4.185014    0.779853
 H    4.627158   -4.990597   -0.235416
 H   -1.555454   -1.478138   -0.499158
 H   -1.595782   -0.773023    1.106530
 H   -0.742457    0.732525   -1.403296
 H   -0.552355    1.309585    0.248366
