23 
3wtn_ligand_xtb.xyz
 N    2.605855   -1.815026    0.844692
 N    2.148535    0.481604    0.268940
 C    2.789686   -0.700614    0.047118
 N    3.525479   -0.666043   -1.031701
 C    3.353232    0.582027   -1.556191
 C    2.509407    1.305684   -0.777318
 C   -2.693280   -0.089665   -0.099484
Cl   -4.248702   -0.541142   -0.674260
 N   -1.816016   -1.062897    0.025888
 C   -0.608807   -0.765463    0.468256
 C   -0.219527    0.525107    0.814555
 C   -1.157298    1.541454    0.666806
 C   -2.425237    1.239890    0.203082
 C    1.185309    0.800028    1.290660
 H    2.653798   -1.636158    1.839368
 H    3.238972   -2.551889    0.566209
 H    3.856703    0.867710   -2.457006
 H    2.142511    2.308055   -0.852626
 H    0.080310   -1.595947    0.543869
 H   -0.900917    2.561920    0.914593
 H   -3.179822    1.998379    0.075536
 H    1.291045    1.857176    1.553783
 H    1.397445    0.196005    2.179069
