23 
3wtn_ligand_dft.xyz
 N    2.128013    0.726605    1.913456
 N    2.221490    0.310549   -0.445469
 C    2.646843    0.030940    0.820920
 N    3.597327   -0.870795    0.842975
 C    3.799133   -1.202749   -0.480001
 C    2.956949   -0.505261   -1.293088
 C   -2.707818   -0.184181   -0.022199
Cl   -4.308159   -0.822470    0.284388
 N   -1.742262   -1.061874   -0.191812
 C   -0.514404   -0.587684   -0.428596
 C   -0.210186    0.769122   -0.502236
 C   -1.257515    1.671714   -0.307503
 C   -2.537202    1.199237   -0.065006
 C    1.193552    1.261344   -0.793794
 H    1.131335    0.576192    2.039190
 H    2.619760    0.439504    2.751821
 H    4.540797   -1.935672   -0.764305
 H    2.801287   -0.497823   -2.361154
 H    0.264627   -1.335291   -0.559154
 H   -1.072471    2.742565   -0.341333
 H   -3.374504    1.868081    0.093244
 H    1.299016    1.490758   -1.859111
 H    1.380770    2.187384   -0.238822
