23 
3wto_ligand_xtb.xyz
 N    2.704296    1.787673    0.812710
 N    2.147356   -0.500067    0.283202
 C    2.840000    0.647599    0.038020
 N    3.573354    0.559909   -1.039229
 C    3.347690   -0.690565   -1.537486
 C    2.472978   -1.360610   -0.744538
 C   -2.721486    0.089184   -0.099067
Cl   -4.323922    0.354007   -0.660907
 N   -2.452269   -1.123400    0.333229
 C   -1.231866   -1.372946    0.774291
 C   -0.223331   -0.420604    0.813344
 C   -0.525301    0.858461    0.347474
 C   -1.797058    1.128584   -0.120063
 C    1.164247   -0.750985    1.304562
 H    2.752947    1.623382    1.810382
 H    3.375816    2.484830    0.520642
 H    3.838128   -1.016189   -2.431889
 H    2.061765   -2.346848   -0.799655
 H   -1.065356   -2.386815    1.114411
 H    0.234757    1.626253    0.348050
 H   -2.071281    2.102764   -0.489493
 H    1.398589   -0.137883    2.181620
 H    1.216905   -1.805145    1.592758
