23 
3wto_ligand_dft.xyz
 N    2.047369    1.338113   -1.556033
 N    2.239335    0.160993    0.523035
 C    2.618460    0.333743   -0.776344
 N    3.585761   -0.477844   -1.128804
 C    3.848133   -1.224639   -0.000148
 C    3.025134   -0.866698    1.025515
 C   -2.727015   -0.143576   -0.017727
Cl   -4.365432   -0.520260   -0.501559
 N   -2.477965    1.108945    0.302725
 C   -1.228851    1.406250    0.672256
 C   -0.195702    0.477073    0.742735
 C   -0.491509   -0.839912    0.383866
 C   -1.780511   -1.168019   -0.005085
 C    1.189690    0.890484    1.195350
 H    1.043635    1.234523   -1.669828
 H    2.494789    1.351156   -2.464983
 H    4.617593   -1.983720   -0.000005
 H    2.918404   -1.214936    2.041705
 H   -1.048604    2.450816    0.920749
 H    0.287176   -1.598002    0.398910
 H   -2.050793   -2.176709   -0.293201
 H    1.336715    1.960652    1.013566
 H    1.304953    0.720953    2.270612
