41 
3wyk_ligand_xtb.xyz
 C   -1.358984    3.596824   -1.197042
 C   -1.544425    2.432559   -1.926069
 C   -1.890767    3.706376    0.077249
 C    2.093704    1.980481    0.393451
 C    3.412589    1.560217    0.422579
 C   -2.247397    1.373516   -1.381856
 C   -2.590857    2.650376    0.633048
 C    1.074812    1.076444    0.167986
 C   -4.298765   -1.554320    1.011041
 C    2.682411   -0.710663    0.015816
 C   -5.164503   -0.518292    1.371332
 C    3.691919    0.212457    0.237089
 C   -2.755686    1.476118   -0.090980
 C    1.361672   -0.273154   -0.036862
 C   -3.210658   -0.918181    0.432743
 C   -0.590850   -3.231343   -0.979784
 C    0.454664   -2.387173   -0.846133
 C   -1.951817   -1.477273   -0.001484
 C   -1.913164   -2.871088   -0.502578
 C    5.125878   -0.235970    0.303364
 N   -4.663288    0.656419    1.040632
 N   -0.900262   -0.725803    0.105679
 N   -3.486207    0.420095    0.473843
 N    0.301622   -1.165718   -0.264648
 O   -2.881672   -3.612315   -0.533179
 F    5.649009   -0.072821    1.531743
 F    5.293118   -1.527661   -0.011171
 F    5.912130    0.464217   -0.532373
 H   -0.811435    4.420841   -1.628781
 H   -1.149991    2.353744   -2.927985
 H   -1.761349    4.617895    0.641021
 H    1.856467    3.021417    0.544550
 H    4.216973    2.258256    0.592565
 H   -2.414762    0.474434   -1.955850
 H   -3.021060    2.721470    1.619443
 H    0.047085    1.397330    0.147647
 H   -4.424685   -2.607141    1.149197
 H    2.938991   -1.752455   -0.090122
 H   -6.121528   -0.581029    1.849340
 H   -0.467377   -4.191554   -1.454134
 H    1.436024   -2.630719   -1.221240
