45 
3wyl_ligand_xtb.xyz
 C   -1.415943   -3.742282    1.591004
 C   -1.567121   -2.486029    2.156927
 C   -1.976505   -4.014519    0.354008
 C    2.002756   -2.454485   -0.229131
 C    3.336676   -2.084001   -0.297601
 C   -2.263693   -1.497705    1.486252
 C   -2.670079   -3.030790   -0.328024
 C    1.011169   -1.499967   -0.140174
 C   -4.307703    1.109013   -1.266536
 C    2.669559    0.241083   -0.211842
 C   -5.197251    0.049134   -1.464439
 C    3.653629   -0.733919   -0.291991
 C   -2.799813   -1.765178    0.230676
 C    1.334780   -0.141332   -0.113530
 C   -3.222955    0.541516   -0.616436
 C    0.503594    2.096718    0.373738
 C   -1.945110    1.129353   -0.278819
 C   -0.523378    2.988632    0.401983
 C   -1.880978    2.569683    0.013098
 C    0.829038    4.774664    1.184617
 C    5.083447   -0.286319   -0.416593
 N   -4.711840   -1.076156   -0.977142
 N   -0.910608    0.342274   -0.293789
 N   -3.522278   -0.782974   -0.462427
 N    0.298579    0.797649   -0.011402
 O   -2.834317    3.326800   -0.033575
 O   -0.424503    4.276258    0.784775
 F    5.964370   -1.232889   -0.072831
 F    5.389392    0.078939   -1.676750
 F    5.351265    0.784533    0.352288
 H   -0.872635   -4.509840    2.121142
 H   -1.150257   -2.279026    3.131182
 H   -1.874511   -4.996880   -0.082044
 H    1.733778   -3.498662   -0.241902
 H    4.117800   -2.824757   -0.358262
 H   -2.404436   -0.525684    1.934413
 H   -3.122058   -3.227260   -1.287301
 H   -0.025795   -1.784688   -0.089902
 H   -4.417956    2.133310   -1.552726
 H    2.965950    1.277092   -0.246809
 H   -6.160237    0.061928   -1.934474
 H    1.500881    2.353743    0.686373
 H    1.209110    4.245087    2.064642
 H    1.562829    4.711222    0.374362
 H    0.661147    5.819526    1.437530
