49 
3wym_ligand_dft.xyz
 C    0.185303   -3.600137    1.674935
 C   -0.702892   -2.708113    2.273517
 C    0.007999   -3.964130    0.341860
 C   -1.764967   -2.183579    1.544848
 C   -1.046133   -3.434748   -0.396448
 C    2.632076   -0.713560    0.175342
 C    1.294144   -0.358597    0.229006
 C    6.922753   -1.044504    0.054061
 C   -4.647600   -0.783093   -1.343164
 C    3.196866    1.528252   -0.520043
 C    7.009789    0.138242   -0.712832
 C   -4.875646   -2.153090   -1.558186
 C    5.589170   -1.158075    0.353702
 C   -1.924844   -2.543177    0.208712
 C    3.589259    0.235155   -0.184926
 C    0.880337    0.931026   -0.095837
 C    1.853363    1.849240   -0.488222
 C   -3.431867   -0.728196   -0.691512
 C   -0.968544    2.472281    0.380178
 C   -2.609372    0.429722   -0.330264
 C   -2.303486    2.728361    0.431189
 C   -3.265423    1.699298    0.035351
 C   -1.979816    4.920480    1.225804
 N    5.828926    0.710118   -0.875090
 N   -3.898484   -2.903348   -1.067574
 N   -1.316190    0.259321   -0.400238
 N    4.961930   -0.093401   -0.221475
 N   -3.019734   -2.028163   -0.540041
 N   -0.506197    1.255277   -0.060941
 O   -4.475624    1.874570    0.020696
 O   -2.853751    3.882800    0.839493
 F    1.493307    3.094668   -0.841855
 H    1.006917   -4.017159    2.249592
 H   -0.577140   -2.428695    3.314991
 H    0.692223   -4.663890   -0.128249
 H   -2.473269   -1.501405    2.003898
 H   -1.201244   -3.706887   -1.434389
 H    2.909039   -1.736132    0.403337
 H    0.547176   -1.092090    0.504814
 H    7.718807   -1.710594    0.349782
 H   -5.258420    0.060200   -1.621041
 H    3.926707    2.266332   -0.826288
 H    7.886048    0.593179   -1.153648
 H   -5.716112   -2.627768   -2.045581
 H    5.053923   -1.888348    0.940247
 H   -0.209057    3.184947    0.662466
 H   -1.367312    4.626097    2.088803
 H   -1.322875    5.217118    0.397348
 H   -2.614742    5.761145    1.504191
