50 
3wzu_ligand_xtb.xyz
 C    2.146451    0.776545   -0.079651
 C    1.657878   -0.485532   -0.497358
 C    3.488688    0.866259    0.360620
 C    2.490220   -1.587013   -0.446819
 C    3.811564   -1.494064    0.001847
 O    0.044224    1.825808   -0.310458
 C    4.303887   -0.264010    0.399256
 C   -0.453352   -1.730297   -0.719757
 C   -2.228904    2.449386   -0.066963
 C    0.306601   -0.683922   -1.026011
 C   -2.801906   -2.502109   -0.252060
 C    1.334850    1.993013   -0.027635
 C   -0.809097    2.978188   -0.253641
 C   -1.802460   -1.997257   -1.301825
 O    1.783389    3.093164    0.280309
 C   -3.053504   -1.464693    0.860524
 C   -3.721486   -0.182706    0.343128
 O   -4.245139   -0.117463   -0.744742
 C   -3.719010    0.948511    1.332342
 C   -2.385359    1.706175    1.258352
 O   -4.030131   -2.890580   -0.818718
 O   -3.916505   -2.008432    1.839613
 O    4.045670    2.010734    0.763731
 O    4.516952   -2.647236   -0.002631
 C    5.861496   -2.618086    0.419238
 C   -0.665513    3.800519   -1.530229
 H    2.138666   -2.547863   -0.785079
 H    5.314266   -0.122934    0.744779
 H   -0.099442   -2.466402   -0.009570
 H   -2.452902    1.775854   -0.895357
 H   -2.926226    3.286626   -0.111733
 H   -0.059794    0.061049   -1.716343
 H   -2.404782   -3.409210    0.221371
 H   -0.503998    3.585872    0.608580
 H   -2.194625   -1.103499   -1.790505
 H   -1.714772   -2.780966   -2.061870
 H   -2.115237   -1.213528    1.365385
 H   -4.538428    1.631889    1.103934
 H   -3.848685    0.532512    2.332005
 H   -2.339357    2.418322    2.084461
 H   -1.558032    1.003107    1.371709
 H   -4.397846   -2.112195   -1.266247
 H   -4.563950   -2.554771    1.368692
 H    3.368937    2.727227    0.685579
 H    6.464383   -1.961371   -0.214772
 H    5.946362   -2.296492    1.461425
 H    6.221381   -3.641253    0.325818
 H   -1.320849    4.665459   -1.487141
 H   -0.929209    3.196482   -2.395492
 H    0.360216    4.144676   -1.636610
