48 
3x1k_ligand_dft.xyz
 P    0.352722   -2.513086   -0.685935
 O    0.578453   -1.079495   -0.962838
 O    0.671665   -3.580488   -1.842104
 O    1.150162   -3.095933    0.555476
 P   -2.246854   -1.885273    0.393188
 O   -1.577382   -1.294851    1.563642
 O   -3.573770   -2.734971    0.594493
 N   -1.285229   -2.892939   -0.493036
 P   -3.806080    0.386214   -0.305147
 O   -4.532287    0.751320   -1.669059
 O   -4.712193   -0.121482    0.742132
 O   -2.710990   -0.737783   -0.706136
 O   -2.932435    1.692398   -0.044411
 C   -1.721028    1.579798    0.731938
 C   -1.006006    2.918866    0.778159
 O    0.153401    2.700572    1.600218
 C   -0.473461    3.407419   -0.564673
 O   -0.222251    4.785297   -0.478171
 C    0.846646    2.639886   -0.682845
 O    1.743076    3.363711   -1.477635
 C    1.283663    2.538879    0.799458
 N    1.900635    1.234718    1.054953
 C    1.458343    0.186384    1.807361
 N    2.209811   -0.886240    1.690509
 C    3.187973   -0.523164    0.784160
 C    4.224806   -1.225606    0.146224
 N    4.462877   -2.539288    0.366410
 N    4.981508   -0.582532   -0.755268
 C    4.689104    0.686957   -1.049045
 N    3.715343    1.447777   -0.550017
 C    3.000817    0.785788    0.371215
 H    1.611443   -3.807671   -1.857440
 H    1.449621   -2.360165    1.165288
 H   -4.299637   -2.127583    0.855169
 H   -1.690257   -3.641075   -1.041655
 H   -3.981089    1.277332   -2.264561
 H   -1.964422    1.258223    1.746102
 H   -1.073979    0.826132    0.275796
 H   -1.616839    3.686533    1.257133
 H   -1.163468    3.171624   -1.386095
 H    0.568181    4.941932   -1.018923
 H    0.679629    1.627689   -1.076648
 H    2.606819    2.911001   -1.404673
 H    2.025263    3.309542    1.034488
 H    0.559288    0.250469    2.401908
 H    4.025375   -3.000161    1.148357
 H    5.320736   -2.922923    0.000972
 H    5.323173    1.153188   -1.798245
