50 
3zcw_ligand_dft.xyz
 F   -2.160865   -2.528028   -1.419948
 C   -1.665681   -3.690054   -0.901252
 F   -2.712212   -4.497673   -0.720384
 F   -0.901029   -4.229209   -1.865722
 C   -0.893673   -3.436901    0.365432
 C   -1.369197   -3.977831    1.559138
 C   -0.694195   -3.746746    2.750387
 C    0.459118   -2.970026    2.747962
 C    0.932009   -2.429831    1.558215
 C    0.269114   -2.653799    0.351952
 C    0.848162   -2.036982   -0.916072
 N    1.260587   -0.664923   -0.716262
 C    2.552830   -0.194536   -0.549362
 C    3.792250   -0.821270   -0.604655
 C    4.908516   -0.031419   -0.366520
 C    4.790030    1.341798   -0.095933
 C    6.059594    2.095913    0.150360
 O    6.015528    3.433716   -0.041453
 O    7.087387    1.572568    0.498203
 C    3.535161    1.953113   -0.028058
 C    2.406612    1.173836   -0.253212
 N    1.070579    1.530560   -0.220371
 C    0.427586    0.421169   -0.486566
 N   -0.920040    0.244132   -0.558301
 C   -1.939783    1.182557   -0.317095
 C   -1.690017    2.528995   -0.031164
 C   -2.760202    3.371085    0.187860
 F   -2.523579    4.659453    0.462788
 C   -4.091474    2.941747    0.135088
 O   -5.039101    3.882092    0.370152
 C   -6.384865    3.470155    0.317810
 C   -4.320448    1.598901   -0.151452
 C   -3.255964    0.728467   -0.374087
 H   -2.272025   -4.576912    1.552687
 H   -1.071272   -4.169222    3.675787
 H    0.992800   -2.779986    3.673640
 H    1.827795   -1.815391    1.565056
 H    0.153555   -2.080927   -1.756631
 H    1.730226   -2.601688   -1.230144
 H    3.897586   -1.880722   -0.818139
 H    5.902311   -0.464481   -0.382984
 H    5.185522    3.678911   -0.470729
 H    3.404374    2.997639    0.241852
 H   -1.249241   -0.688840   -0.754466
 H   -0.679865    2.911949    0.023371
 H   -6.650230    3.084499   -0.675537
 H   -6.601426    2.702654    1.072793
 H   -6.979515    4.359489    0.528777
 H   -5.331408    1.211958   -0.204671
 H   -3.461313   -0.315258   -0.594597
