50 
3zcw_ligand_xtb.xyz
 F   -1.997127   -2.930690   -1.332769
 C   -1.270686   -3.988942   -0.889221
 F   -2.141288   -4.986313   -0.729117
 F   -0.475634   -4.338121   -1.916114
 C   -0.508918   -3.649078    0.360897
 C   -0.835616   -4.305285    1.542062
 C   -0.167506   -3.997998    2.712326
 C    0.829342   -3.037266    2.701901
 C    1.155872   -2.388454    1.525542
 C    0.493754   -2.677113    0.337434
 C    0.900544   -1.939864   -0.921737
 N    1.200674   -0.559027   -0.656954
 C    2.450364    0.004276   -0.528094
 C    3.730065   -0.507677   -0.646310
 C    4.777829    0.366465   -0.441640
 C    4.568393    1.718586   -0.135703
 C    5.787703    2.549888    0.061926
 O    5.632656    3.883811   -0.029604
 O    6.871736    2.079387    0.282240
 C    3.280312    2.230518   -0.006843
 C    2.219328    1.362042   -0.201743
 N    0.871056    1.597353   -0.123838
 C    0.295756    0.455662   -0.388657
 N   -1.032712    0.199118   -0.416349
 C   -2.081247    1.095670   -0.229709
 C   -1.871276    2.437684    0.076537
 C   -2.959039    3.263141    0.246486
 F   -2.744234    4.560355    0.540342
 C   -4.279748    2.811666    0.125633
 O   -5.265165    3.727335    0.315910
 C   -6.600540    3.307048    0.188471
 C   -4.465132    1.467846   -0.178513
 C   -3.382706    0.623060   -0.352982
 H   -1.612752   -5.053532    1.538836
 H   -0.426005   -4.508502    3.626293
 H    1.357085   -2.792519    3.610508
 H    1.937739   -1.644051    1.524962
 H    0.135743   -1.997053   -1.701066
 H    1.805845   -2.406034   -1.325521
 H    3.913023   -1.545449   -0.882214
 H    5.798048    0.023788   -0.513687
 H    4.724938    4.132358   -0.249687
 H    3.071474    3.253185    0.272090
 H   -1.317080   -0.738254   -0.656345
 H   -0.869515    2.820692    0.174809
 H   -6.809912    2.933407   -0.819172
 H   -6.851311    2.535324    0.923611
 H   -7.204520    4.192893    0.376444
 H   -5.458952    1.064679   -0.284672
 H   -3.557326   -0.415636   -0.593026
