38 
3zeb_ligand_xtb.xyz
 O   -0.280595    0.394656   -0.395016
 C   -0.354002   -0.762842   -0.077467
 C   -1.603482   -1.625369   -0.190864
 C   -2.842667   -0.788453   -0.248855
 C   -3.693298   -0.862656   -1.343339
 C   -4.828389   -0.083432   -1.433618
 C   -5.153769    0.820922   -0.418676
 N   -6.318722    1.552531   -0.473428
 C   -4.304077    0.907040    0.678923
 C   -3.160463    0.116084    0.777453
 C   -2.328313    0.270875    1.970323
 O   -1.340392   -0.360336    2.258306
 O    0.668492   -1.490775    0.369721
 C    1.909547   -0.816751    0.554553
 C    2.698599   -0.712882   -0.755487
 C    4.021856   -0.049251   -0.504425
 C    4.128033    1.335530   -0.529569
 C    5.337590    1.953425   -0.266928
 C    6.456686    1.193070    0.027462
 C    6.359574   -0.187413    0.057746
 C    5.148679   -0.803558   -0.205031
 H   -1.612857   -2.296096    0.670113
 H   -1.509706   -2.227385   -1.098056
 H   -3.461271   -1.545959   -2.147620
 H   -5.473064   -0.163275   -2.297046
 H   -6.739451    1.664611   -1.381067
 H   -6.371165    2.363865    0.120200
 H   -4.535727    1.602133    1.474235
 H   -2.697511    1.064154    2.652598
 H    2.456417   -1.409534    1.290507
 H    1.716539    0.183563    0.954806
 H    2.110343   -0.128830   -1.465732
 H    2.843126   -1.717059   -1.159429
 H    3.255528    1.929644   -0.759668
 H    5.408148    3.031120   -0.292741
 H    7.401667    1.674744    0.231483
 H    7.229543   -0.785974    0.286226
 H    5.077829   -1.881848   -0.182105
