41 
3zhx_ligand_dft.xyz
 C    0.135109   -1.408048    0.440725
 C    1.501114   -1.671519    0.487182
Cl    2.320128   -1.539680    2.011344
 C    2.186463   -2.016035   -0.677285
Cl    3.895999   -2.327103   -0.669055
 C    1.493212   -2.092795   -1.881892
 C    0.133449   -1.821872   -1.922666
 C   -0.564578   -1.474115   -0.764358
 C   -2.030979   -1.095414   -0.876322
 P   -3.033571   -1.674055    0.522493
 O   -4.526158   -1.347012   -0.002644
 O   -2.887351   -3.276707    0.399798
 O   -2.748821   -1.141003    1.876467
 C   -2.214663    0.419451   -1.139476
 C   -1.721665    1.316686   -0.003278
 N   -1.560104    2.689266   -0.440521
 O   -2.786237    3.351036   -0.505902
 C   -0.512300    3.510554   -0.128490
 O   -0.711638    4.716754    0.010887
 C    0.839995    2.889282   -0.030420
 C    1.701998    3.337531    0.971473
 C    2.970320    2.782890    1.096386
 C    3.395646    1.801840    0.203261
 C    2.551540    1.380108   -0.820263
 C    1.273490    1.914893   -0.933312
 H   -0.376049   -1.148613    1.362874
 H    2.029091   -2.364055   -2.784931
 H   -0.390331   -1.881705   -2.872647
 H   -2.452372   -1.622482   -1.741468
 H   -5.069676   -1.010013    0.723364
 H   -2.823681   -3.677073    1.278149
 H   -3.266808    0.629338   -1.352419
 H   -1.648639    0.664745   -2.045385
 H   -0.751533    0.975952    0.358238
 H   -2.413843    1.303905    0.844745
 H   -2.517469    4.268343   -0.276931
 H    1.364744    4.114958    1.649364
 H    3.631051    3.119087    1.889352
 H    4.385097    1.366209    0.301629
 H    2.888068    0.632924   -1.531443
 H    0.615215    1.584587   -1.731575
