50 
3zi0_ligand_dft.xyz
 C   -2.835306   -0.765111    1.381091
 N   -1.515111   -0.916589    1.026567
 O   -3.151965   -0.235742    2.432853
Cl    6.759511    0.926407    1.050275
 C   -0.508363   -0.819607    2.090021
 N   -3.763022    1.561883   -0.788727
 O   -1.264580   -1.883068    0.055928
Cl    7.026071   -1.235745   -1.309145
 C    0.922349   -0.973310    1.577771
 N   -2.879626    2.478486   -0.343151
 C    1.591820    0.254020    0.915675
 N   -4.975773    3.225781   -0.030121
 C    2.953936   -0.113198    0.360216
 C    4.105715    0.480669    0.868294
 C    5.363286    0.149483    0.370021
 C    5.480325   -0.788473   -0.656772
 C    4.331036   -1.380980   -1.174396
 C    3.081637   -1.049033   -0.671349
 C   -3.868309   -1.330215    0.437484
 C   -4.095068   -0.860146   -0.863312
 C   -5.105184   -1.440402   -1.627902
 C   -5.887546   -2.474123   -1.120888
 C   -5.675292   -2.920298    0.177453
 C   -4.675994   -2.340895    0.953318
 C   -3.330941    0.314966   -1.420812
 C   -3.652610    3.453419    0.106115
 C   -5.004686    2.029688   -0.591705
 P    0.580157    1.038203   -0.382812
 O   -0.382066    1.959970    0.448207
 O    1.550686    2.100256   -1.114959
 O   -0.013348    0.062786   -1.355807
 H   -0.698430   -1.605112    2.833087
 H   -0.665014    0.142404    2.581235
 H   -0.820820   -1.357549   -0.649355
 H    0.956488   -1.826912    0.896031
 H    1.548810   -1.242554    2.434997
 H    1.717340    1.036744    1.673060
 H    4.038051    1.217757    1.661924
 H    4.426795   -2.107308   -1.973975
 H    2.196481   -1.512069   -1.097368
 H   -5.283163   -1.074166   -2.636272
 H   -6.664411   -2.918031   -1.735491
 H   -6.287645   -3.715489    0.590962
 H   -4.512453   -2.674834    1.972988
 H   -2.254721    0.238444   -1.258088
 H   -3.491801    0.400875   -2.499461
 H   -3.236598    4.346889    0.548801
 H   -5.887763    1.466870   -0.858460
 H   -1.292416    2.144635    0.057467
 H    2.034081    1.685824   -1.842790
