78 
3zim_ligand_xtb.xyz
 C  -10.689576   -2.045927    0.344182
 C  -10.222277   -1.780892   -1.082838
 C   -9.038442   -2.675168   -1.442444
 C   -9.871769   -0.290610   -1.290938
 C   -8.634040    0.120872   -0.534639
 O   -8.574688    0.170688    0.671991
 C   -7.441669    0.459859   -1.407062
 C   -6.262345    0.982173   -0.588363
 C   -4.967551    0.307765   -0.982091
 O   -4.898111   -0.586464   -1.794415
 N   -3.831485    0.773050   -0.369672
 C   -3.747925    1.705690    0.723352
 C   -3.149506    1.012758    1.954710
 N   -1.827561    0.462003    1.608803
 C   -1.950533   -0.510272    0.500755
 C   -2.552832    0.187899   -0.713580
 C   -1.026744   -0.092888    2.767747
 C    0.388140   -0.114987    2.340440
 C    1.232634   -1.157658    2.109400
 C    2.459289   -0.756061    1.511452
 N    3.433179   -1.591143    1.189719
 C    4.494413   -1.063938    0.572249
 N    4.632031    0.243113    0.309914
 C    3.700906    1.123159    0.649847
 C    2.525640    0.633162    1.248823
 S    1.062675    1.430604    1.798718
 N    4.007863    2.439412    0.459613
 C    3.029934    3.486751    0.299274
 C    2.764115    3.710606   -1.197650
 O    3.949095    4.044000   -1.872037
 C    4.928051    3.030271   -1.719380
 C    5.234659    2.773728   -0.241866
 C    5.550730   -1.955844    0.163701
 C    5.625029   -3.232169    0.716216
 C    6.640591   -4.124364    0.383265
 C    7.621347   -3.795035   -0.531571
 C    7.569423   -2.539092   -1.125099
 N    8.366936   -1.981139   -2.057642
 N    7.913127   -0.792828   -2.336096
 C    6.829228   -0.508000   -1.613251
 C    6.531866   -1.593947   -0.782495
 H   -9.922016   -1.756411    1.056809
 H  -11.591685   -1.479519    0.563986
 H  -10.906695   -3.102999    0.478006
 H  -11.047459   -2.008875   -1.767198
 H   -8.682260   -2.464459   -2.448702
 H   -8.218874   -2.526126   -0.742626
 H   -9.333817   -3.720739   -1.400180
 H  -10.708559    0.308425   -0.925142
 H   -9.738106   -0.099167   -2.355824
 H   -7.748369    1.173276   -2.171877
 H   -7.138388   -0.455415   -1.925410
 H   -6.477098    0.760100    0.463865
 H   -6.162061    2.062345   -0.698857
 H   -4.729811    2.098474    0.977264
 H   -3.103289    2.547808    0.435804
 H   -3.793594    0.192401    2.279902
 H   -3.039669    1.727949    2.771655
 H   -1.221034    1.232019    1.266505
 H   -2.595779   -1.327945    0.828920
 H   -0.959370   -0.905932    0.270672
 H   -1.873576    0.969158   -1.074887
 H   -2.725653   -0.531896   -1.516837
 H   -1.392205   -1.088871    3.019985
 H   -1.187637    0.582964    3.612535
 H    1.022150   -2.180580    2.358428
 H    3.444992    4.405559    0.728466
 H    2.100830    3.254102    0.816796
 H    2.075596    4.544467   -1.351233
 H    2.327908    2.792174   -1.626751
 H    5.814309    3.381318   -2.247543
 H    4.572340    2.098582   -2.183085
 H    5.931741    1.944508   -0.133614
 H    5.646159    3.679053    0.214837
 H    4.877049   -3.517889    1.441408
 H    6.656750   -5.096980    0.857330
 H    8.407016   -4.490407   -0.789318
 H    6.323652    0.429747   -1.733254
