71 
3zk6_ligand_xtb.xyz
 C  -10.970837    1.392509   -2.199472
 C  -10.064781    2.447963   -2.161819
 C   -8.773791    2.259741   -1.703136
 C   -8.405882    0.995600   -1.282616
 C   -9.316926   -0.084271   -1.316678
 C  -10.610181    0.127792   -1.781669
 N   -8.812497   -1.273758   -0.871134
 C   -7.586889   -1.148878   -0.507553
 S   -6.864594    0.458040   -0.659844
 N   -6.838060   -2.165239   -0.025666
 N   -5.574970   -1.942679    0.331592
 C   -4.819783   -2.875441    0.787575
 C   -5.248896   -4.307300    0.972035
 C   -3.478439   -2.482132    1.136307
 C   -2.401778   -3.192737    1.630965
 C   -1.352787   -2.273184    1.775933
 C   -1.844800   -1.052895    1.362907
 O   -3.129362   -1.190142    0.978344
 C   -1.228570    0.252900    1.283711
 C   -1.953469    1.339847    0.780896
 C   -1.381019    2.594702    0.690942
 C   -0.068977    2.792384    1.095445
 C    0.636238    1.712980    1.590204
 C    0.089707    0.455969    1.698003
 S    2.326042    1.958345    2.083063
 O    2.529748    3.295254    2.554835
 O    2.803367    0.873791    2.878660
 N    3.167932    1.949701    0.586057
 C    3.159090    0.859928   -0.231953
 O    2.366672   -0.036102   -0.067606
 C    4.215231    0.868769   -1.315925
 C    5.559782    0.448138   -0.710172
 C    6.662100    0.393441   -1.765473
 C    7.992121   -0.055596   -1.166330
 C    9.097111   -0.140097   -2.225750
 C   10.382482   -0.608520   -1.606461
 C   11.302081    0.302552   -1.103780
 C   12.468006   -0.131368   -0.498252
 C   12.728596   -1.486038   -0.384470
 C   11.817117   -2.402887   -0.879464
 C   10.652609   -1.965592   -1.484546
 H  -11.972736    1.567488   -2.562179
 H  -10.372173    3.427770   -2.494838
 H   -8.067647    3.074712   -1.672167
 H  -11.304142   -0.696979   -1.806970
 H   -7.284957   -3.078045    0.043857
 H   -6.080524   -4.363238    1.675678
 H   -5.574564   -4.728591    0.020100
 H   -4.433498   -4.909122    1.354259
 H   -2.360660   -4.237564    1.861267
 H   -0.364615   -2.481167    2.129828
 H   -2.972647    1.180509    0.462560
 H   -1.956040    3.421603    0.302897
 H    0.408572    3.757583    1.048368
 H    0.699555   -0.341384    2.085976
 H    3.837940    2.689984    0.456261
 H    4.295701    1.862788   -1.759301
 H    3.920166    0.155628   -2.086421
 H    5.446121   -0.535398   -0.250622
 H    5.843252    1.149101    0.078455
 H    6.782350    1.380238   -2.219412
 H    6.369766   -0.300844   -2.556371
 H    7.868943   -1.035787   -0.700893
 H    8.298213    0.643266   -0.384679
 H    9.237437    0.843773   -2.678518
 H    8.787482   -0.835039   -3.009391
 H   11.104383    1.361787   -1.191497
 H   13.175670    0.589412   -0.114822
 H   13.638982   -1.826011    0.086842
 H   12.014796   -3.461604   -0.794693
 H    9.944654   -2.685285   -1.871314
