70 
3zlr_ligand_xtb.xyz
 O    2.199270   31.100022  -47.934007
 C    1.834239   29.857088  -48.261814
 O    0.712530   29.589863  -48.629301
 C    2.928486   28.890925  -48.123180
 N    4.170442   29.317942  -47.789235
 C    2.800451   27.525855  -48.290903
 C    1.591903   26.757111  -48.674188
 C    1.427401   26.721541  -50.199932
 C    0.155189   25.979153  -50.590415
 O    0.283056   24.636425  -50.171388
 C   -0.759820   23.783279  -50.373436
 C   -0.577265   22.480339  -49.909172
 C   -1.572120   21.537904  -50.060281
 C   -2.771585   21.863247  -50.682205
 C   -3.858666   20.836404  -50.863493
 N   -5.174389   21.446816  -50.728392
 C   -2.947088   23.158290  -51.144083
 C   -1.959015   24.115919  -50.993296
 S    4.322668   26.767649  -48.026092
 C    5.021774   28.361790  -47.696418
 C    6.413484   28.526231  -47.348273
 C    6.899124   29.805140  -47.054941
 C    8.223601   29.972473  -46.711821
 C    9.095283   28.892025  -46.647263
 C   10.532079   29.084722  -46.265093
 C   11.405052   28.064596  -46.986270
 C   10.965719   26.653447  -46.613336
 C    7.277229   27.441793  -47.291434
 C    8.615907   27.609036  -46.941609
 C    9.493256   26.444674  -46.867085
 N    8.932096   25.302879  -47.000414
 N    9.590083   24.146144  -46.926108
 C    8.912241   22.990823  -47.107676
 S    7.173633   23.059064  -47.428327
 C    7.208560   21.314313  -47.503702
 C    6.164639   20.440185  -47.739685
 C    6.436486   19.084243  -47.754361
 N    9.451443   21.826822  -47.062525
 C    8.523343   20.846893  -47.281347
 C    8.773802   19.479376  -47.300396
 C    7.727019   18.611807  -47.537005
 H    1.446228   31.701604  -48.043460
 H    1.659969   25.733842  -48.303578
 H    0.715008   27.244297  -48.243114
 H    1.366467   27.741410  -50.580569
 H    2.286990   26.221853  -50.649682
 H   -0.710045   26.450826  -50.105697
 H    0.018864   26.024456  -51.680079
 H    0.356352   22.232811  -49.428722
 H   -2.135063   25.113254  -51.364620
 H   -1.413434   20.534441  -49.690751
 H   -3.797523   20.424649  -51.878555
 H   -3.687961   20.003967  -50.158763
 H   -3.878594   23.416142  -51.623592
 H   -5.900222   20.748566  -50.846533
 H   -5.275340   21.850582  -49.802681
 H    6.221032   30.641692  -47.104337
 H    6.926061   26.445705  -47.513018
 H    8.596533   30.961341  -46.486286
 H   10.849839   30.100763  -46.505688
 H   10.637927   28.952971  -45.182764
 H   11.304135   28.203525  -48.065222
 H   12.454820   28.207598  -46.722612
 H   11.547863   25.926367  -47.188978
 H   11.167406   26.474866  -45.550381
 H   10.590764   24.074594  -46.751567
 H    5.166073   20.812015  -47.908131
 H    5.635222   18.384471  -47.937598
 H    7.911571   17.548031  -47.554137
 H    9.777518   19.124116  -47.130981
