31 
3zlw_ligand_xtb.xyz
 C    2.047975   -0.633062   -0.100626
 O    3.053061   -0.405583   -1.076290
 C    1.277911   -1.923090   -0.422856
 C    0.029323   -2.030730    0.437375
 C    2.793958   -0.746948    1.233304
 N   -0.859651   -0.918935    0.159903
 C   -2.171748   -1.181280   -0.110610
 O   -2.623185   -2.307119   -0.061934
 C   -2.999464    0.023500   -0.504020
 C   -2.609461    1.238344    0.326075
 C   -1.137887    1.478893    0.165001
 C   -0.599266    2.750453    0.096710
 C    0.766062    2.929409   -0.048826
 C    1.592696    1.825487   -0.114689
 C   -0.300287    0.360002    0.088609
 C    1.079611    0.536845   -0.040510
 H    2.636136   -0.281124   -1.936000
 H    0.984544   -1.908732   -1.477015
 H    1.922617   -2.787512   -0.263422
 H   -0.524739   -2.946038    0.217007
 H    0.291473   -2.031164    1.500457
 H    3.375683    0.155887    1.394616
 H    2.100613   -0.869735    2.059374
 H    3.473854   -1.593822    1.196402
 H   -4.052289   -0.231616   -0.383586
 H   -2.816222    0.222681   -1.564598
 H   -2.834616    1.047712    1.381070
 H   -3.178526    2.116033    0.016564
 H   -1.256535    3.605257    0.159729
 H    1.181185    3.923578   -0.108014
 H    2.658837    1.945816   -0.235729
