18 
3zly_ligand_dft.xyz
 C  -18.590716   26.517668   -3.154915
 N  -18.481801   25.378692   -3.345144
 C  -18.768888   27.926540   -2.949209
 C  -17.674686   28.770963   -2.829505
 C  -17.859954   30.156897   -2.659443
 C  -19.117689   30.724459   -2.612068
 C  -20.221066   29.865120   -2.734187
 N  -21.555688   30.092057   -2.732831
 N  -22.282899   28.945693   -2.885537
 C  -21.407082   27.967784   -2.975901
 C  -20.065314   28.474352   -2.894608
 N  -21.792434   26.645339   -3.052265
 H  -16.672727   28.358913   -2.870976
 H  -16.985644   30.793185   -2.568230
 H  -19.246375   31.794592   -2.486260
 H  -22.045975   30.963478   -2.631981
 H  -22.757765   26.520521   -3.323891
 H  -21.158297   26.029748   -3.542047
