67 
3zm6_ligand_xtb.xyz
 O   -5.933111   -2.205709    1.752765
 S   -6.693010   -1.029246    1.456013
 O   -7.545841   -0.484684    2.464807
 N   -7.575317   -1.212081    0.048814
 C   -9.005081   -1.421491    0.163910
 C   -9.619873   -1.177281   -1.215479
 O   -9.051227   -2.036794   -2.177110
 C   -7.660320   -1.853355   -2.272145
 C   -6.972592   -2.096704   -0.925147
 C   -5.539648    0.235206    0.896449
 C   -4.204679   -0.055061    0.799333
 C   -6.004551    1.497418    0.536295
Cl   -7.667659    1.847643    0.607616
 C   -5.096349    2.461115    0.112228
 C   -3.747270    2.165722    0.021600
Cl   -2.742652    3.469015   -0.524947
 C   -3.257398    0.884167    0.348802
 C   -1.889861    0.376094    0.253446
 O   -1.612002   -0.804743    0.481484
 N   -0.870555    1.215061   -0.114359
 C    0.386055    0.708427   -0.247210
 C    1.522640    1.393779   -0.638526
 C    1.530784    2.757446   -0.955354
 N    1.530068    3.874354   -1.221760
 S    0.667705   -0.966056    0.068512
 C    2.356319   -0.736394   -0.345097
 C    3.347721   -1.851825   -0.331852
 N    4.725709   -1.306476   -0.353471
 C    4.868431   -0.287054   -1.422550
 C    4.048262    0.952269   -1.081501
 C    2.660911    0.539151   -0.696427
 C    5.765386   -2.380892   -0.457271
 C    7.121759   -1.793589   -0.206951
 C    8.026412   -1.599676   -1.248617
 C    9.243546   -1.000384   -1.011865
 C    9.577792   -0.568810    0.275191
 C    8.672377   -0.770596    1.322387
 C    7.460208   -1.375161    1.080657
 C   10.832147    0.077787    0.518336
 N   11.772550    0.327540   -0.415416
 N   11.250447    0.542697    1.712981
 N   12.417750    1.056005    1.488623
 N   12.729598    0.927407    0.216803
 H   -9.387703   -0.719829    0.903917
 H   -9.226175   -2.447519    0.489385
 H   -9.455177   -0.129165   -1.506051
 H  -10.688703   -1.393444   -1.206842
 H   -7.439359   -0.827795   -2.606128
 H   -7.308013   -2.566385   -3.018870
 H   -7.093391   -3.145924   -0.623784
 H   -5.908407   -1.865674   -0.983333
 H   -3.863868   -1.041530    1.077637
 H   -5.453094    3.444150   -0.152728
 H   -1.042132    2.196156   -0.315139
 H    3.224512   -2.495022   -1.210955
 H    3.214552   -2.472795    0.558227
 H    4.896407   -0.821001    0.535810
 H    4.517473   -0.732796   -2.355479
 H    5.927480   -0.038203   -1.519672
 H    4.019769    1.623430   -1.941470
 H    4.515845    1.507162   -0.261546
 H    5.698700   -2.821244   -1.453654
 H    5.522360   -3.142686    0.287821
 H    7.772383   -1.933178   -2.245811
 H    9.955976   -0.848395   -1.806952
 H    8.948712   -0.443913    2.312318
 H    6.768958   -1.540711    1.898625
