107 
3zmt_ligand_dft.xyz
 N    5.251104   -0.201654   -1.428919
 C    4.379082   -1.257896   -0.781982
 C    4.303558   -1.108163    0.738599
 O    4.626938   -2.015143    1.488486
 C    4.951784   -2.572709   -1.281801
 C    5.336933   -2.237262   -2.724830
 C    5.921876   -0.823521   -2.629115
 N    3.866596    0.112886    1.154625
 C    3.434905    0.336103    2.535603
 C    2.006913   -0.221844    2.636366
 O    1.024910    0.506975    2.529261
 C    3.585797    1.802903    2.954879
 C    2.763747    2.913913    2.273147
 C    2.987152    3.136382    0.771631
 N    2.173415    2.248773   -0.044488
 C    2.548575    1.728430   -1.245689
 N    1.710571    0.783454   -1.746681
 N    3.698096    1.939497   -1.849768
 N    1.940457   -1.570887    2.784782
 C    0.802160   -2.350868    2.328427
 C    0.771551   -2.348590    0.784930
 O    1.632070   -1.775233    0.128575
 C   -0.562742   -1.910148    2.905841
 O   -1.202519   -0.918586    2.144407
 N   -0.244858   -3.023831    0.210087
 C   -0.466449   -2.965813   -1.221151
 C   -1.099274   -1.649541   -1.700518
 O   -1.096977   -1.387291   -2.897441
 C   -1.331139   -4.158663   -1.679065
 C   -2.694606   -4.169818   -1.030014
 C   -2.907067   -4.817286    0.191156
 C   -3.759099   -3.479296   -1.615476
 C   -4.144369   -4.751209    0.829205
 C   -5.000242   -3.430286   -0.991388
 C   -5.193478   -4.053792    0.239552
 N   -1.688032   -0.879699   -0.757615
 C   -2.416189    0.312725   -1.112376
 C   -1.685692    1.548676   -0.573571
 O   -0.571504    1.458474   -0.048384
 C   -3.908780    0.201531   -0.736541
 C   -4.240740   -0.088111    0.734869
 C   -3.776774    1.012442    1.692830
 C   -5.750654   -0.300438    0.876270
 N   -2.304560    2.725445   -0.772095
 C   -1.825590    3.986870   -0.248351
 C   -3.003040    4.671224    0.427506
 O   -2.612945    5.698698    1.186455
 C   -1.224241    4.906222   -1.344047
 C    0.070973    4.311023   -1.894095
 C   -2.229827    5.176509   -2.465865
 O   -4.158359    4.352989    0.267416
 H    4.639158    0.672541   -1.707722
 H    5.947131    0.134961   -0.762749
 H    3.369847   -1.103639   -1.174353
 H    4.211643   -3.370401   -1.205467
 H    5.820847   -2.861454   -0.681743
 H    4.449908   -2.236866   -3.366082
 H    6.057987   -2.938156   -3.149639
 H    5.717556   -0.196801   -3.498203
 H    6.997747   -0.839646   -2.447364
 H    3.294688    0.623943    0.492178
 H    4.098306   -0.261751    3.166954
 H    4.652172    2.040356    2.853602
 H    3.362737    1.848740    4.026741
 H    1.699443    2.761344    2.464473
 H    3.043434    3.845998    2.776408
 H    2.767592    4.182274    0.520765
 H    4.041880    2.963759    0.528484
 H    1.195209    2.126631    0.217139
 H    1.741001    0.617042   -2.739999
 H    0.841556    0.586037   -1.260478
 H    4.156098    2.773584   -1.494906
 H    2.834201   -2.046448    2.701485
 H    0.986481   -3.377566    2.663158
 H   -0.414781   -1.596414    3.946036
 H   -1.237959   -2.771530    2.918394
 H   -0.605528   -0.142288    2.165033
 H   -1.009148   -3.363537    0.780034
 H    0.506305   -3.026051   -1.712923
 H   -1.424241   -4.087781   -2.765937
 H   -0.786821   -5.080695   -1.449290
 H   -2.104344   -5.404721    0.634877
 H   -3.608531   -2.979894   -2.569465
 H   -4.292474   -5.260207    1.776740
 H   -5.823128   -2.906966   -1.469681
 H   -6.161644   -4.007489    0.727944
 H   -1.558145   -1.080042    0.232942
 H   -2.349431    0.383440   -2.205268
 H   -4.445547    1.105651   -1.056356
 H   -4.310088   -0.611758   -1.350390
 H   -3.741683   -1.024769    1.015017
 H   -2.689939    1.132935    1.696191
 H   -4.234362    1.974380    1.433030
 H   -4.067729    0.765495    2.718728
 H   -6.008544   -0.577926    1.903465
 H   -6.297373    0.618574    0.631536
 H   -6.108014   -1.094376    0.213020
 H   -3.277421    2.723190   -1.049029
 H   -1.061525    3.774825    0.505277
 H   -3.414011    6.111477    1.550171
 H   -0.986916    5.854744   -0.847863
 H   -0.101149    3.321510   -2.332847
 H    0.826632    4.206928   -1.109370
 H    0.481997    4.956589   -2.676296
 H   -1.807759    5.879373   -3.190001
 H   -3.164800    5.607023   -2.092166
 H   -2.471028    4.252669   -3.003527
