107 
3zmt_ligand_xtb.xyz
 N    5.474763    0.648574   -1.093510
 C    4.900806   -0.532984   -0.422521
 C    4.512844   -0.251256    1.028962
 O    5.045782   -0.798840    1.974264
 C    5.939330   -1.671745   -0.543770
 C    7.039532   -1.111917   -1.455076
 C    6.360424    0.089221   -2.117811
 N    3.525782    0.667632    1.176115
 C    2.856577    0.828765    2.462643
 C    1.714003   -0.196083    2.482909
 O    0.534949    0.100442    2.423997
 C    2.415419    2.269818    2.736540
 C    1.329027    2.873806    1.837248
 C    1.805880    3.347922    0.457393
 N    1.473534    2.391633   -0.581286
 C    2.283182    1.908168   -1.510884
 N    1.869539    0.914093   -2.288813
 N    3.512654    2.417167   -1.730297
 N    2.157060   -1.473740    2.538408
 C    1.396194   -2.542892    1.917291
 C    1.210028   -2.164345    0.432803
 O    1.833402   -1.246446   -0.072621
 C    0.029994   -2.794307    2.603198
 O   -1.010949   -2.049728    2.036224
 N    0.341451   -2.916182   -0.251085
 C   -0.005110   -2.564601   -1.609295
 C   -0.848735   -1.284553   -1.669028
 O   -0.627882   -0.426589   -2.513908
 C   -0.735391   -3.731431   -2.301133
 C   -2.022253   -4.093891   -1.613670
 C   -2.029511   -4.965218   -0.529077
 C   -3.227346   -3.548238   -2.039902
 C   -3.209059   -5.257169    0.134742
 C   -4.409421   -3.852777   -1.388036
 C   -4.400809   -4.696311   -0.289545
 N   -1.860846   -1.217604   -0.799470
 C   -2.798437   -0.117244   -0.848414
 C   -2.102049    1.185104   -0.447039
 O   -0.930406    1.211250   -0.100759
 C   -4.081151   -0.446110   -0.076647
 C   -3.935073   -0.705019    1.428217
 C   -3.517015    0.547154    2.194463
 C   -5.272585   -1.220900    1.958832
 N   -2.844727    2.284222   -0.617792
 C   -2.415805    3.611800   -0.249503
 C   -3.435756    4.192991    0.720917
 O   -2.992467    5.297181    1.308788
 C   -2.271517    4.536501   -1.483752
 C   -1.124237    4.057883   -2.369322
 C   -3.573371    4.596473   -2.280215
 O   -4.517370    3.709593    0.918722
 H    4.296345    1.745117   -1.830378
 H    6.050787    1.149142   -0.418132
 H    3.977275   -0.799453   -0.950835
 H    5.478762   -2.559278   -0.973354
 H    6.324403   -1.928490    0.442326
 H    7.388718   -1.840077   -2.182229
 H    7.893880   -0.776991   -0.866296
 H    5.736595   -0.241969   -2.953307
 H    7.059111    0.844199   -2.475166
 H    2.930619    0.815077    0.376143
 H    3.591402    0.545499    3.226246
 H    3.303462    2.905660    2.715999
 H    2.031700    2.277502    3.758164
 H    0.522417    2.152647    1.715209
 H    0.924961    3.735393    2.369755
 H    1.321853    4.300394    0.212972
 H    2.883805    3.522162    0.488823
 H    0.546003    1.958830   -0.481467
 H    2.458789    0.614317   -3.045742
 H    0.934725    0.510569   -2.234195
 H    3.772507    3.212635   -1.168122
 H    3.159196   -1.608432    2.581222
 H    2.000616   -3.451733    1.979220
 H    0.139130   -2.571171    3.671684
 H   -0.247603   -3.846915    2.501859
 H   -0.760796   -1.105969    2.151759
 H   -0.261234   -3.573074    0.222909
 H    0.925451   -2.351400   -2.149504
 H   -0.931721   -3.438634   -3.333307
 H   -0.061348   -4.590459   -2.310355
 H   -1.114460   -5.455912   -0.223047
 H   -3.238636   -2.891160   -2.897542
 H   -3.199164   -5.934167    0.975350
 H   -5.342124   -3.441046   -1.744696
 H   -5.321554   -4.931761    0.221536
 H   -1.874286   -1.805642    0.023553
 H   -3.058505    0.018571   -1.909579
 H   -4.797542    0.365819   -0.219515
 H   -4.504874   -1.341005   -0.537568
 H   -3.185021   -1.482197    1.597937
 H   -2.505550    0.849381    1.937397
 H   -4.197127    1.371575    1.988836
 H   -3.537930    0.347996    3.262741
 H   -5.196643   -1.444891    3.019083
 H   -6.050892   -0.473468    1.822743
 H   -5.569279   -2.129107    1.439354
 H   -3.835135    2.195721   -0.793652
 H   -1.450685    3.533529    0.261225
 H   -3.660216    5.669220    1.908740
 H   -2.039200    5.535925   -1.103617
 H   -1.274580    3.022615   -2.666577
 H   -0.172642    4.135222   -1.850469
 H   -1.074173    4.667382   -3.267282
 H   -3.498600    5.358856   -3.050941
 H   -4.417619    4.843764   -1.641062
 H   -3.769969    3.644542   -2.767517
