45 
3znc_ligand_dft.xyz
 C    4.212337   -0.182721    0.459239
 C   -0.435674    0.243150   -0.976244
 C   -0.382097   -0.958157   -0.311776
 C    0.764344    0.870800   -1.631770
 C    1.826576   -0.177689   -1.971514
 S   -4.240947    0.559462    0.289160
 C    3.508789   -0.018866    1.799813
 C    2.741075    3.805900   -0.055280
 C    2.347077    2.835634   -1.156262
 S   -1.862007   -1.377876    0.448373
 N   -5.168871   -0.456562   -0.627487
 O   -4.431841    0.197455    1.676954
 O   -4.367024    1.911624   -0.215970
 C   -2.574533    0.080527   -0.126932
 C   -1.717175    0.848618   -0.860094
 S    1.022185   -2.046412   -0.297191
 O    1.327623   -2.433065    1.066385
 O    0.811761   -3.052280   -1.318293
 N    2.163801   -0.913141   -0.760223
 N    1.330423    1.863386   -0.642048
 C    3.571070   -1.226253   -0.455346
 O    2.375811    0.839048    1.652039
 C    1.451982    0.732133    2.727601
 H    4.277847    0.794465   -0.038341
 H    5.246752   -0.493497    0.643309
 H    0.476731    1.434082   -2.524524
 H    1.438752   -0.830475   -2.764497
 H    2.735996    0.289027   -2.356895
 H    3.174741   -0.993573    2.175776
 H    4.184322    0.427372    2.540045
 H    3.521747    4.475300   -0.423645
 H    3.124949    3.270596    0.817671
 H    1.893665    4.425821    0.255400
 H    3.206415    2.255617   -1.496825
 H    1.908788    3.343614   -2.019211
 H   -5.627282    0.017929   -1.398760
 H   -5.803637   -1.007242   -0.057488
 H   -2.011673    1.797970   -1.294442
 H    1.741709    1.329955    0.177046
 H    0.550137    2.396757   -0.247687
 H    3.610084   -2.201823    0.035790
 H    4.127641   -1.323526   -1.393584
 H    1.938047    0.975572    3.678952
 H    0.654119    1.455591    2.542934
 H    1.031708   -0.278822    2.774267
