40 
3zo1_ligand_dft.xyz
 C  -32.230790  -10.227972   -1.000225
 N  -31.096135  -10.436538   -1.606106
 N  -33.252002   -9.908077   -1.857125
 C  -32.723121   -9.912628   -3.122626
 N  -33.368585   -9.656867   -4.264427
 C  -32.540808   -9.754262   -5.298301
 C  -31.377125  -10.243144   -2.951488
 C  -30.605415  -10.313430   -4.143969
 N  -31.239701  -10.052812   -5.302566
 N  -29.291204  -10.647691   -4.202616
 C  -28.423096  -10.653162   -3.030938
 C  -27.610559   -9.357524   -2.957570
 C  -26.804217   -9.071716   -4.242783
 C  -27.756696   -9.200768   -5.445192
 C  -28.550940  -10.507513   -5.450944
 N  -26.357101   -7.668679   -4.211707
 C  -25.281597   -7.390904   -3.261910
 C  -24.060518   -8.302409   -3.422033
 C  -24.487675   -9.770731   -3.381087
 C  -25.604062  -10.038036   -4.396210
 H  -32.384681  -10.291943    0.068356
 H  -34.211695   -9.705789   -1.625754
 H  -32.974671   -9.561781   -6.277170
 H  -29.020588  -10.779142   -2.129932
 H  -27.760299  -11.524050   -3.114758
 H  -27.883943  -11.373759   -5.542698
 H  -29.256070  -10.527964   -6.279362
 H  -28.295709   -8.516396   -2.800066
 H  -26.956962   -9.405937   -2.079793
 H  -28.462890   -8.362430   -5.414059
 H  -27.186535   -9.115355   -6.380512
 H  -26.031940   -7.422244   -5.145176
 H  -25.925592  -11.084005   -4.328028
 H  -25.195480   -9.907217   -5.409127
 H  -24.998720   -6.339028   -3.377052
 H  -25.684958   -7.492368   -2.246488
 H  -23.579712   -8.090928   -4.388212
 H  -23.319749   -8.089169   -2.641980
 H  -23.634599  -10.426306   -3.589714
 H  -24.829859  -10.023326   -2.368651
