40 
3zo2_ligand_dft.xyz
 C  -32.381504  -10.037006   -0.922256
 N  -31.202326  -10.230917   -1.441669
 N  -33.350483   -9.781861   -1.858122
 C  -32.736005   -9.816883   -3.083841
 N  -33.309552   -9.625223   -4.275800
 C  -32.410280   -9.735486   -5.246811
 C  -31.395753  -10.097215   -2.809488
 C  -30.541933  -10.189440   -3.943889
 N  -31.103874   -9.992188   -5.152236
 N  -29.218842  -10.484109   -3.900753
 C  -28.430368  -10.412752   -2.673541
 C  -27.662446   -9.090534   -2.614043
 C  -26.777211   -8.850427   -3.855386
 C  -27.637093   -9.059326   -5.117322
 C  -28.402300  -10.384756   -5.105501
 C  -26.252607   -7.405195   -3.850368
 N  -25.359799   -7.178237   -2.722152
 C  -24.148040   -7.980116   -2.830662
 C  -24.520923   -9.459805   -2.792228
 C  -25.547804   -9.788038   -3.881208
 H  -32.606320  -10.066009    0.135221
 H  -34.330024   -9.605474   -1.700594
 H  -32.781823   -9.594236   -6.259575
 H  -29.084453  -10.517549   -1.809872
 H  -27.740879  -11.266622   -2.674263
 H  -27.710232  -11.235906   -5.109218
 H  -29.051909  -10.466981   -5.974615
 H  -28.398620   -8.278105   -2.543384
 H  -27.065649   -9.043660   -1.699045
 H  -28.374717   -8.248526   -5.193569
 H  -27.007829   -9.006913   -6.015267
 H  -25.755177   -7.214206   -4.823776
 H  -27.096876   -6.709739   -3.774027
 H  -25.847831  -10.839012   -3.802115
 H  -25.062721   -9.680696   -4.862549
 H  -25.121141   -6.193705   -2.667711
 H  -23.593780   -7.776676   -3.769186
 H  -23.484434   -7.731366   -1.995819
 H  -23.623525  -10.073405   -2.931793
 H  -24.923915   -9.698699   -1.801564
