68 
3zos_ligand_xtb.xyz
 N   -9.510784   -1.297992    0.738257
 N    6.296827   -0.389261    0.669725
 C   -5.363740    1.142278    0.465336
 C   -4.224921    1.970114    0.449821
 C   -4.295677    3.292213    0.920343
 C   -3.148452    4.068915    0.881332
 C   -1.947817    3.562759    0.413289
 C   -3.022605    1.465036   -0.038236
 C    1.824712    1.678522   -0.166895
 C    4.114327    1.732821    0.567993
 C    3.530643    0.478846   -1.370168
 C    5.951644    0.418441   -0.483865
 C    9.877123    0.376945    0.146394
 C    9.658016   -0.119281    1.346338
 C    5.591052   -1.651520    0.755629
 C   -8.931488   -3.553104   -0.133801
 C   -7.869459   -4.262579   -0.631748
 C   -6.613702   -3.627756   -0.744497
 N   -6.387718   -2.393218   -0.404378
 N   -7.416174   -1.716700    0.071431
 C   -8.706961   -2.223261    0.236609
 C   -8.760077   -0.204170    0.898080
 C   -7.443907   -0.419788    0.494080
 C   -6.336446    0.424422    0.483055
 C   -1.876470    2.248751   -0.043950
 C   -5.590815    3.831998    1.436091
 C   -0.629607    1.635555   -0.581124
 O   -0.640497    0.807427   -1.464398
 N    0.509915    2.079450    0.044478
 C    2.803689    2.126707    0.720787
 C    4.512635    0.890605   -0.467499
 C    2.203070    0.861763   -1.226903
 C    3.890612   -0.377963   -2.553732
 F    4.853726    0.179393   -3.317236
 F    2.861777   -0.604899   -3.377125
 F    4.356207   -1.595083   -2.206301
 C    5.974980   -2.393100    2.031860
 C    7.805130   -3.400479    3.242389
 N    7.407136   -2.590958    2.111944
 H    6.164903    0.136834    1.527217
 H   -3.193958    5.093237    1.223101
 H   -1.083628    4.211017    0.371757
 H   -2.972542    0.453629   -0.412295
 H    4.858688    2.085404    1.267444
 H    6.174359   -0.170342   -1.373478
 H    6.613068    1.290262   -0.479869
 H   10.756496    0.955934   -0.090346
 H    9.180030    0.223247   -0.660673
 H   10.356170    0.031792    2.155306
 H    8.776377   -0.698311    1.568607
 H    5.874206   -2.247663   -0.117379
 H    4.492322   -1.535089    0.738542
 H   -9.917321   -3.972991   -0.018484
 H   -7.976278   -5.290636   -0.936460
 H   -5.754418   -4.154568   -1.130484
 H   -9.177007    0.701107    1.294263
 H   -6.349408    3.800155    0.654457
 H   -5.952137    3.220297    2.262312
 H   -5.478636    4.857975    1.777155
 H    0.380488    2.709886    0.823838
 H    2.529314    2.782245    1.535573
 H    1.457540    0.522512   -1.927059
 H    5.412539   -3.345070    2.066092
 H    5.675531   -1.802120    2.905760
 H    8.885703   -3.527420    3.224014
 H    7.531661   -2.878657    4.160623
 H    7.330857   -4.394773    3.260548
 H    7.736339   -3.013418    1.248825
