51 
3zov_ligand_dft.xyz
 F   -8.961171    0.110068    1.144866
 C   -8.700325   -0.435304   -0.045965
 F   -8.965139    0.473653   -0.988035
 F   -9.529404   -1.476456   -0.222075
 C   -7.269220   -0.932673   -0.133511
 O   -6.428962    0.174336    0.059193
 C   -5.091423   -0.027216    0.006748
 C   -4.297768    1.113195    0.198755
 N   -2.976076    1.076899    0.173627
 C   -4.465094   -1.249382   -0.217394
 C   -3.074344   -1.278803   -0.243605
 C   -2.371799   -0.099211   -0.045143
 C   -0.864977   -0.126983   -0.077092
 O   -0.260963   -1.169982   -0.281739
 N   -0.307901    1.095904    0.139128
 C    1.049273    1.452392    0.184881
 C    2.077520    0.534925   -0.048779
 C    1.356958    2.785238    0.469791
 C    2.683482    3.187197    0.525653
 C    3.709263    2.276550    0.298472
 C    3.409474    0.944571    0.003718
 C    4.543049   -0.063652   -0.199748
 C    5.045106   -0.530210    1.173038
 C    6.352817   -1.285445    1.105565
 O    6.651542   -2.130643    1.926246
 C    4.117645   -1.265850   -1.061361
 N    5.676742    0.635473   -0.801096
 C    6.914498    0.035715   -0.913055
 N    7.694935    0.404266   -1.855091
 N    7.212405   -0.933782    0.069883
 C    8.497914   -1.610003   -0.006556
 H   -7.123869   -1.386691   -1.121124
 H   -7.122238   -1.694492    0.641641
 H   -4.779769    2.071027    0.374955
 H   -5.028559   -2.163305   -0.369886
 H   -2.527237   -2.198438   -0.414891
 H   -0.989239    1.831704    0.291558
 H    1.808093   -0.486802   -0.270365
 H    0.559282    3.502362    0.646592
 H    2.919055    4.223695    0.747229
 H    4.744761    2.596631    0.344983
 H    4.316235   -1.172693    1.670785
 H    5.208383    0.345663    1.812007
 H    3.703634   -0.925788   -2.015400
 H    4.983573   -1.901160   -1.271707
 H    3.368140   -1.884584   -0.560462
 H    5.472537    1.173317   -1.634220
 H    8.610569   -0.029068   -1.797884
 H    9.318054   -0.899796    0.141257
 H    8.520894   -2.354105    0.786968
 H    8.613166   -2.104185   -0.976043
