44 
3zqt_ligand_dft.xyz
 O    3.585816   -2.080239   -1.822449
 C    3.294527   -1.359660   -0.709682
 C    3.058178    0.002565   -0.802623
 C    3.230141   -1.990061    0.541111
 O    3.474348   -3.340461    0.521952
 C    2.937113   -1.252761    1.675205
 C    2.700656    0.119113    1.569484
 C    2.754938    0.760498    0.335150
 C    2.447423    2.233000    0.199706
 C    1.130365    2.523734   -0.552212
 C    0.929350    4.035489   -0.685600
 C   -0.077286    1.786228    0.066111
 C   -0.429497    2.244440    1.482991
 C   -1.314040    1.854767   -0.854056
 C   -2.367516    0.832569   -0.498985
 C   -3.566131    1.189521    0.112106
 C   -2.130542   -0.524414   -0.753237
 C   -3.066419   -1.482821   -0.404796
 O   -2.915131   -2.828692   -0.619131
 C   -4.270980   -1.113024    0.210128
 C   -4.513076    0.227382    0.464996
 O   -5.187673   -2.056108    0.549655
 H    3.752532   -2.991705   -1.542701
 H    3.119320    0.468281   -1.782277
 H    3.485962   -3.681606    1.423098
 H    2.887445   -1.744170    2.644463
 H    2.466868    0.687617    2.465007
 H    3.264154    2.731384   -0.338874
 H    2.411893    2.694702    1.193898
 H    1.250331    2.115073   -1.566959
 H    0.026012    4.276371   -1.255412
 H    1.779649    4.493033   -1.203359
 H    0.845904    4.515865    0.295928
 H    0.208915    0.728102    0.128577
 H   -0.751109    3.292660    1.498465
 H   -1.250968    1.641442    1.882408
 H    0.418916    2.141381    2.167273
 H   -0.991907    1.698621   -1.892623
 H   -1.755786    2.857905   -0.811187
 H   -3.768684    2.236766    0.319632
 H   -1.198693   -0.830229   -1.228025
 H   -2.062857   -2.995781   -1.037023
 H   -5.447958    0.504703    0.940890
 H   -4.832039   -2.915794    0.283804
