24 
3zrl_ligand_xtb.xyz
 C   -3.246620    1.010939    0.020055
 C   -2.403292   -0.053712   -0.000934
 C   -1.012923    0.195960   -0.004790
 C   -0.521554    1.498983    0.009207
 C   -1.414273    2.640768    0.030531
 O   -1.098361    3.811379    0.044621
 C    1.464487    0.298462   -0.009180
 C    2.870752   -0.045362   -0.007041
 C    3.864263    0.932665   -0.114549
 C    5.190039    0.537311   -0.097113
 C    0.888552    1.538253    0.004642
 N    5.581114   -0.720861    0.014623
 C    4.645670   -1.650081    0.112587
 N   -2.761046    2.279402    0.035481
 C    3.290407   -1.373242    0.106751
 S    0.254384   -0.966973   -0.019892
Br   -3.073710   -1.826667   -0.022597
 H   -4.318498    0.891330    0.025727
 H    3.609780    1.975006   -0.213925
 H    5.984800    1.267222   -0.177369
 H    1.427802    2.466906    0.019848
 H    5.003671   -2.667210    0.201221
 H   -3.411212    3.055650    0.052721
 H    2.566745   -2.170453    0.192239
