24 
3zrl_ligand_dft.xyz
 C   -3.263479    1.010332    0.040404
 C   -2.433079   -0.058353   -0.009768
 C   -1.030772    0.191139    0.006969
 C   -0.525215    1.480508    0.067806
 C   -1.406271    2.637629    0.124244
 O   -1.065283    3.806851    0.182478
 C    1.456993    0.273792    0.015320
 C    2.884591   -0.070120    0.005401
 C    3.829916    0.826965   -0.502174
 C    5.173527    0.475833   -0.479428
 C    0.896914    1.516321    0.072601
 N    5.635799   -0.685608   -0.009919
 C    4.728517   -1.540893    0.464520
 N   -2.760817    2.282726    0.104584
 C    3.362174   -1.287371    0.498919
 S    0.233551   -0.980039   -0.049516
Br   -3.095618   -1.815529   -0.098589
 H   -4.341964    0.915154    0.032786
 H    3.523154    1.777302   -0.926417
 H    5.920406    1.164049   -0.868988
 H    1.458347    2.439869    0.142589
 H    5.114377   -2.483640    0.846042
 H   -3.397982    3.067280    0.141895
 H    2.687992   -2.025189    0.923616
