74 
3zsq_ligand_xtb.xyz
 C   -0.900661    5.232400   -0.466848
 C   -0.082490    5.107006   -1.576372
 C   -1.388312    4.098836    0.157086
 C    0.253702    3.848865   -2.044694
 C    2.509461    0.537950    1.652428
 C   -3.136467   -1.875808    1.053284
 C   -3.793694   -0.559485   -0.827841
 C    3.154106   -0.094377    2.714987
 C   -3.074493   -3.005694    0.255712
 C   -3.728315   -1.673825   -1.634109
 C   -1.059378    2.827922   -0.309608
 C    4.239434   -0.124649    0.075799
 C   -3.494230   -0.644585    0.528671
 C   -0.216363    2.698442   -1.422345
 C    3.016746    0.531567    0.364982
 C    4.343135   -0.719279    2.437510
 C    4.886085   -0.729603    1.142565
 C   -3.365695   -2.913822   -1.101482
 C   -0.355412   -2.197387   -2.862140
 C   -0.054156   -1.550310   -1.751894
 C   -1.594433    1.640797    0.421268
 C    4.822602   -0.201792   -1.285502
 C    6.250480   -1.846985    2.485222
 C   -7.177657    0.347235    2.807806
 C   -3.003402   -5.233164   -1.508431
 C    0.161858    1.351868   -1.985407
 C    2.246081    1.263890   -0.702318
 C    1.229658   -0.804570   -1.550266
 C   -5.743010   -0.073255    2.516109
 C   -5.003970    0.992857    1.709542
 C   -3.561781    0.584251    1.405691
 N   -2.880665    1.696582    0.747985
 N    0.985444    0.562580   -1.039912
 O    6.121487   -0.453017   -1.270755
 O   -0.883914    0.674184    0.730526
 O    4.193886   -0.063377   -2.312559
 O    5.163815   -1.402024    3.271767
 O    6.040896   -1.425486    1.149914
 O   -3.306198   -3.941055   -1.985249
 H   -1.160531    6.208267   -0.088784
 H    0.296808    5.985018   -2.074309
 H   -2.010799    4.199106    1.033843
 H    0.890666    3.757070   -2.911450
 H    1.578032    1.046528    1.848935
 H   -2.899874   -1.960448    2.103326
 H   -4.080587    0.388290   -1.261462
 H    2.744496   -0.089553    3.709985
 H   -2.796355   -3.946765    0.701697
 H   -3.961188   -1.614646   -2.685268
 H   -1.271312   -2.750800   -2.967033
 H    0.312126   -2.211280   -3.708171
 H   -0.725649   -1.551607   -0.902637
 H    6.311376   -2.944702    2.521236
 H    7.187908   -1.414135    2.865156
 H   -7.686762   -0.420667    3.383376
 H   -7.727474    0.500999    1.882249
 H   -7.199311    1.272766    3.378665
 H   -3.051468   -5.885353   -2.378419
 H   -1.997271   -5.274813   -1.079270
 H   -3.733530   -5.567114   -0.766207
 H    0.724046    1.480130   -2.913834
 H   -0.736330    0.764232   -2.200324
 H    1.982200    2.260231   -0.338142
 H    2.839268    1.355997   -1.612792
 H    1.837469   -1.323094   -0.803430
 H    1.806160   -0.741345   -2.476438
 H   -5.743702   -1.010832    1.957203
 H   -5.215723   -0.244527    3.456815
 H   -4.999174    1.928951    2.273969
 H   -5.533908    1.160510    0.768786
 H   -3.029100    0.376532    2.341929
 H   -3.442839    2.479179    0.449528
 H    0.366612    0.494605   -0.158935
 H    6.475903   -0.526426   -2.171891
