56 
3zsz_ligand_xtb.xyz
 C   -4.542268   -1.778152   -1.490332
 C   -3.826549   -2.959427   -1.582050
 C   -3.950728   -0.658070   -0.934961
 C   -2.527818   -3.016560   -1.106238
 C    1.448131    0.684687    1.765267
 C    2.028246    1.848453    1.262579
 C   -2.644118   -0.705244   -0.454662
 C    2.668687   -0.720277    0.199922
 C   -1.923334   -1.905329   -0.532171
 C    1.731593   -0.569694    1.253403
 C    2.926281    1.702939    0.235836
 C    3.257599    0.439753   -0.278847
 C   -2.067069    0.519967    0.173702
 C    3.037986   -2.034065   -0.382697
 C    4.422469    1.973047   -1.377457
 C   -4.008988    3.592892    0.932843
 C   -0.608657    3.394468   -0.950028
 C   -1.101814   -2.900076    2.126479
 C   -0.496103   -2.003400   -0.059020
 C    1.027786   -1.756247    1.860186
 C   -2.907165    3.959890   -0.054024
 C   -1.758737    2.948926   -0.049632
 N   -2.244606    1.651872   -0.495773
 N   -0.385727   -1.840769    1.411603
 O    4.223425   -2.014886   -0.968028
 O   -1.472249    0.481475    1.261368
 O    2.341291   -3.024906   -0.340942
 O    3.615239    2.655939   -0.439003
 O    4.149803    0.587269   -1.280385
 H   -5.557135   -1.726686   -1.851228
 H   -4.277426   -3.835293   -2.020641
 H   -4.518613    0.256476   -0.849065
 H   -1.970162   -3.937380   -1.186201
 H    0.747297    0.775217    2.579623
 H    1.791286    2.818112    1.664557
 H    5.485170    2.155895   -1.158539
 H    4.190801    2.325304   -2.393110
 H   -4.793794    4.343622    0.914259
 H   -3.612459    3.537779    1.943714
 H   -4.453318    2.630288    0.688216
 H   -0.954722    3.529995   -1.972476
 H   -0.205002    4.338353   -0.597000
 H    0.189536    2.655073   -0.942888
 H   -2.137889   -2.934285    1.795033
 H   -0.633684   -3.864687    1.930662
 H   -1.081752   -2.706089    3.196750
 H    0.101283   -1.210859   -0.517541
 H   -0.059190   -2.963379   -0.341585
 H    1.528477   -2.686936    1.590201
 H    1.018584   -1.650231    2.947169
 H   -2.501242    4.937564    0.205903
 H   -3.319360    4.030688   -1.063542
 H   -1.395351    2.802424    0.972069
 H   -2.720985    1.632268   -1.386144
 H   -0.861406   -0.882298    1.583424
 H    4.440739   -2.878650   -1.355100
