27 
3zvt_ligand_dft.xyz
 B   -3.944680   -0.687922    0.323950
 C   -3.057290   -1.660218   -0.556011
 N   -1.831099   -0.890744   -0.761585
 O   -0.703439   -1.918796    0.915700
 C   -0.767379   -1.023841    0.088364
 C    0.321311   -0.001402   -0.091325
 C    0.055368    1.375531    0.019913
 O   -1.250946    1.709910    0.187507
 C   -1.580981    3.054174    0.466810
 C    1.092952    2.304327   -0.041676
 C    2.397620    1.856949   -0.238407
 C    2.678268    0.506289   -0.374306
 C    1.638062   -0.419945   -0.296284
 O    1.900392   -1.745211   -0.485352
 C    2.376286   -2.422524    0.672411
 H   -3.497314   -1.957332   -1.516456
 H   -2.787753   -2.569461   -0.003667
 H   -1.885950   -0.036064   -1.295622
 H   -1.062820    3.410873    1.364782
 H   -1.341481    3.710906   -0.378867
 H   -2.657149    3.060684    0.640693
 H    0.897432    3.365482    0.054271
 H    3.202312    2.583628   -0.296712
 H    3.687003    0.150465   -0.554599
 H    3.299311   -1.960218    1.046336
 H    1.608811   -2.420666    1.451576
 H    2.585335   -3.446743    0.359827
