90 
3zvy_ligand_xtb.xyz
 N   -8.405875   -2.122145   -0.025168
 C   -7.167076   -2.239602    0.729332
 C   -6.161678   -1.277013    0.117083
 O   -6.285691   -0.842790   -1.028114
 C   -6.558533   -3.652343    0.736285
 N   -5.151185   -0.902314    0.900980
 C   -4.094683   -0.020623    0.462271
 C   -2.806155   -0.518072    1.136891
 O   -2.853373   -1.264267    2.092642
 C   -4.354216    1.434380    0.907161
 C   -5.733589    1.974592    0.522540
 C   -5.927062    2.138739   -0.989704
 N   -7.230694    2.700735   -1.298148
 C   -8.373372    2.028851   -1.446376
 N   -8.426269    0.713293   -1.475371
 N   -9.504306    2.737896   -1.588485
 N   -1.668724   -0.052610    0.605743
 C   -0.369565   -0.323853    1.167574
 C    0.581725    0.753182    0.648555
 O    0.288371    1.470332   -0.286072
 C    0.151608   -1.724434    0.742972
 O    1.441761   -1.893115    1.307117
 C    0.178727   -1.875239   -0.774844
 N    1.752870    0.801124    1.308565
 C    2.893631    1.536692    0.818791
 C    3.742256    0.717576   -0.158543
 O    4.391754    1.261923   -1.048169
 C    3.766827    1.968028    2.015775
 C    5.175841    2.444501    1.655803
 C    5.180195    3.721004    0.807954
 C    6.462262    3.870743   -0.001057
 N    6.530066    2.806660   -1.039378
 N    3.800491   -0.593710    0.077118
 C    4.774123   -1.439058   -0.575544
 C    4.148595   -2.754003   -1.009838
 O    3.157492   -3.225191   -0.516032
 C    5.939062   -1.754265    0.397119
 C    7.258419   -2.001178   -0.328449
 C    7.913074   -0.708806   -0.777481
 O    7.519428    0.395982   -0.422257
 N    8.961783   -0.865142   -1.591451
 O    4.856063   -3.344855   -1.958998
 H   -8.242175   -2.425318   -0.981310
 H   -9.110420   -2.734340    0.371623
 H   -9.313184    0.248077   -1.570785
 H   -7.372790   -1.926960    1.759374
 H   -5.645191   -3.681886    1.324571
 H   -7.267481   -4.357221    1.164770
 H   -6.329434   -3.965614   -0.280959
 H   -4.974905   -1.340490    1.799080
 H   -4.015221   -0.083090   -0.627146
 H   -4.268030    1.474120    1.994896
 H   -3.576846    2.071703    0.483799
 H   -6.506427    1.309077    0.910832
 H   -5.859602    2.946349    1.004074
 H   -5.175248    2.820095   -1.392000
 H   -5.828948    1.174992   -1.488997
 H   -7.302987    3.704302   -1.217640
 H   -7.611712    0.093243   -1.339961
 H   -9.496980    3.741689   -1.636976
 H  -10.376933    2.275502   -1.777809
 H   -1.646803    0.589416   -0.178596
 H   -0.429773   -0.302243    2.261438
 H   -0.532797   -2.468046    1.174861
 H    1.807123   -2.717808    0.948947
 H    0.628050   -2.829527   -1.039925
 H    0.760450   -1.077638   -1.232805
 H   -0.831095   -1.846881   -1.172683
 H    1.902616    0.126183    2.044676
 H    2.505383    2.403782    0.274271
 H    3.239553    2.754397    2.556916
 H    3.860441    1.108684    2.683789
 H    5.702243    1.644575    1.134747
 H    5.716279    2.630949    2.584582
 H    4.339019    3.716085    0.114904
 H    5.064538    4.590748    1.453887
 H    6.470254    4.845850   -0.488889
 H    7.336606    3.801276    0.646827
 H    6.869848    3.160226   -1.932639
 H    7.114977    1.985421   -0.753535
 H    5.574062    2.373321   -1.165641
 H    3.118255   -1.045169    0.683870
 H    5.156278   -0.902592   -1.449657
 H    6.064778   -0.896130    1.060019
 H    5.677829   -2.618100    1.009295
 H    7.109245   -2.650881   -1.191954
 H    7.955567   -2.499354    0.349265
 H    9.502623   -0.068035   -1.888847
 H    9.304153   -1.776765   -1.843110
 H    4.478804   -4.205417   -2.210866
