61 
3zxe_ligand_xtb.xyz
 O    2.454052    0.358346    2.173264
 C    2.624933    0.554635    0.971525
 C    3.758189   -0.035737    0.224290
 C    4.323829    0.579806   -0.888950
 C    5.385877   -0.012421   -1.544923
 C    5.902407   -1.230525   -1.118498
 C    7.031651   -1.886196   -1.850759
 C    5.336659   -1.837224   -0.002355
 C    4.284815   -1.246053    0.667655
 N    1.809364    1.353400    0.258292
 C    0.603374    1.930934    0.788726
 C    0.355943    3.265804    0.065896
 O    0.396469    3.015705   -1.315644
 C   -0.997674    3.840987    0.513092
 C   -1.346160    5.151452   -0.210144
 O   -1.550653    4.941331   -1.585482
 O   -2.032193    2.928734    0.196797
 C   -1.914199    1.709046    0.876733
 S   -3.373150    0.719213    0.450658
 C   -3.078842    0.429795   -1.316635
 C   -0.599130    0.984523    0.578542
 O   -0.520527   -0.101909    1.466683
 P    0.209919   -1.468736    1.010579
 O    1.061040   -1.854962    2.268088
 O    0.850005   -1.366616   -0.307439
 O   -0.909995   -2.590223    1.116739
 C   -1.316438   -3.291800   -0.046229
 C   -2.742404   -2.994162   -0.427853
 C   -3.154391   -3.143929   -1.746990
 C   -4.471120   -2.905417   -2.098578
 C   -5.386224   -2.509010   -1.136964
 C   -3.664602   -2.600432    0.531338
 C   -4.979670   -2.354528    0.176903
 H    3.958343    1.537387   -1.230430
 H    5.822520    0.478837   -2.402942
 H    7.595799   -1.160128   -2.430885
 H    7.703845   -2.386260   -1.157025
 H    6.639568   -2.637865   -2.536453
 H    5.729081   -2.782139    0.344507
 H    3.850585   -1.719639    1.534590
 H    1.864130    1.347748   -0.749729
 H    0.744671    2.082986    1.864451
 H    1.153647    3.975571    0.345223
 H   -0.090817    3.728519   -1.765457
 H   -0.966717    4.017892    1.599604
 H   -0.520430    5.859891   -0.118768
 H   -2.242632    5.583106    0.250273
 H   -2.282458    4.315830   -1.671186
 H   -1.982947    1.861311    1.964506
 H   -4.026728    0.106759   -1.733442
 H   -2.758531    1.358746   -1.776210
 H   -2.339504   -0.355312   -1.448239
 H   -0.565104    0.636711   -0.460000
 H    1.657081   -1.118396    2.505694
 H   -1.216277   -4.360790    0.182669
 H   -0.636980   -3.050016   -0.871114
 H   -2.439335   -3.448634   -2.497944
 H   -4.782500   -3.025580   -3.126131
 H   -6.413164   -2.319786   -1.413230
 H   -3.339251   -2.477726    1.552131
 H   -5.686346   -2.039742    0.929320
