61 
3zxe_ligand_dft.xyz
 O   -2.539067    0.040529   -2.157011
 C   -2.753655    0.301409   -0.966158
 C   -3.892570   -0.317033   -0.226542
 C   -4.499058    0.286500    0.875703
 C   -5.557159   -0.341570    1.522535
 C   -6.030879   -1.580743    1.089378
 C   -7.185396   -2.259023    1.781229
 C   -5.419458   -2.173994   -0.019993
 C   -4.370047   -1.549570   -0.676078
 N   -1.974053    1.148626   -0.262369
 C   -0.826742    1.849781   -0.797740
 C   -0.760279    3.220455   -0.117373
 O   -0.854353    2.984558    1.271645
 C    0.533281    3.936389   -0.511313
 C    0.742545    5.261486    0.213962
 O    0.921960    5.054352    1.607587
 O    1.664281    3.152222   -0.180201
 C    1.718450    1.920262   -0.875914
 S    3.282723    1.096796   -0.511706
 C    3.002004    0.552740    1.196674
 C    0.479843    1.066949   -0.560989
 O    0.522929   -0.047308   -1.439788
 P    0.140321   -1.533653   -0.950422
 O   -0.791810   -2.022761   -2.135586
 O   -0.363046   -1.584080    0.438444
 O    1.449844   -2.407776   -1.217113
 C    1.942354   -3.304493   -0.211417
 C    3.267167   -2.843265    0.342184
 C    3.551881   -3.012327    1.696805
 C    4.790955   -2.638783    2.211540
 C    5.753530   -2.084267    1.372658
 C    4.235266   -2.285176   -0.493918
 C    5.470563   -1.904447    0.019711
 H   -4.170675    1.262779    1.222453
 H   -6.024118    0.141980    2.376510
 H   -7.394442   -1.801302    2.752314
 H   -8.097504   -2.190899    1.176748
 H   -6.980068   -3.322075    1.943372
 H   -5.772330   -3.140094   -0.372106
 H   -3.900186   -2.013941   -1.536270
 H   -2.060360    1.180250    0.744393
 H   -0.974902    1.962420   -1.875982
 H   -1.613036    3.825987   -0.465761
 H   -0.416168    3.722469    1.730725
 H    0.503754    4.125304   -1.598199
 H   -0.134912    5.903544    0.100354
 H    1.611208    5.776407   -0.214418
 H    1.688430    4.467323    1.688794
 H    1.745207    2.105648   -1.960926
 H    3.961618    0.178547    1.559923
 H    2.677677    1.387528    1.822270
 H    2.279537   -0.265054    1.250597
 H    0.498223    0.742843    0.481923
 H   -1.472185   -1.334847   -2.335395
 H    2.053127   -4.272373   -0.710451
 H    1.204979   -3.406550    0.589217
 H    2.796476   -3.430719    2.357610
 H    4.999411   -2.775028    3.268600
 H    6.719506   -1.789070    1.771926
 H    4.006775   -2.126949   -1.542865
 H    6.213482   -1.464019   -0.638619
