45 
3zxr_ligand_dft.xyz
 C   17.247512   91.303722   20.556602
 C   17.563766   92.493180   21.480906
 C   18.776547   92.151925   22.362928
 C   16.347982   92.797931   22.365647
 C   17.920939   93.680885   20.617950
 N   18.953325   93.734229   19.806448
 N   17.205984   94.836098   20.559668
 C   17.835453   95.693712   19.678737
 C   17.336262   97.051541   19.453269
 C   15.964716   97.324368   19.423312
 C   15.537827   98.634837   19.238065
 N   16.360701   99.671399   19.074606
 C   17.670155   99.404141   19.101142
 C   18.204254   98.136866   19.291629
 C   18.916348   94.970974   19.209505
 C   19.923444   95.334117   18.203271
 C   21.240184   94.799085   18.320366
 N   22.222256   95.048140   17.492256
 C   21.971679   95.875989   16.436113
 C   23.027723   96.162227   15.535438
 C   19.661847   96.146587   17.127105
 C   20.693864   96.451933   16.209079
 C   20.502192   97.295442   15.085096
 C   21.541463   97.556371   14.229781
 C   22.816071   96.984223   14.458070
 H   16.379336   91.517623   19.923441
 H   18.099772   91.091261   19.905590
 H   17.026966   90.410522   21.152175
 H   19.010942   92.976133   23.045494
 H   18.567958   91.258070   22.961586
 H   19.656736   91.962915   21.742846
 H   16.539976   93.637388   23.045254
 H   15.455495   93.021065   21.767854
 H   16.113557   91.925767   22.983723
 H   16.419058   95.079205   21.141077
 H   15.233906   96.525721   19.514284
 H   19.278870   97.992820   19.319188
 H   14.473763   98.860682   19.211187
 H   18.332638  100.257186   18.972005
 H   21.452888   94.131905   19.152862
 H   18.668046   96.555967   16.964911
 H   23.994243   95.709649   15.731504
 H   23.628884   97.200053   13.771051
 H   19.520895   97.731748   14.916284
 H   21.390577   98.204398   13.371693
