43 
3zy2_ligand_xtb.xyz
 P    3.039762    0.024248   -0.507171
 O    2.559296    1.160064   -1.294288
 O    4.367909    0.258266    0.295755
 O    3.291041   -1.344663   -1.185353
 O    1.933459   -0.325322    0.676314
 P    1.489079    0.961736    1.512851
 O    0.746272    0.303714    2.745548
 O    2.607951    1.852598    1.823833
 O    0.239559    1.571181    0.770755
 C    0.315666    2.770078   -0.004875
 C   -1.046939    3.003745   -0.668352
 O   -1.264844    2.113974   -1.754571
 C   -2.235289    2.765050    0.280665
 O   -3.340026    3.518724   -0.128466
 C   -2.470661    1.254553    0.114352
 O   -3.818032    0.911208    0.272809
 C   -1.946095    0.981001   -1.321495
 N   -1.085905   -0.185022   -1.329045
 C    0.104872   -0.342321   -1.972112
 N    0.661853   -1.493712   -1.734362
 C   -0.194954   -2.148136   -0.888483
 C   -0.099306   -3.434335   -0.266217
 O    0.754242   -4.285617   -0.322236
 N   -1.252361   -3.661830    0.530229
 C   -2.299853   -2.809754    0.700161
 N   -3.291089   -3.197095    1.538331
 N   -2.376887   -1.636798    0.130893
 C   -1.296103   -1.334064   -0.633054
 H    4.272399    1.065758    0.816468
 H    2.453350   -1.675813   -1.580956
 H    1.357829    0.139328    3.462486
 H    0.572957    3.604173    0.651572
 H    1.084195    2.655659   -0.773961
 H   -1.077037    4.013566   -1.085270
 H   -1.970094    3.010746    1.317305
 H   -4.125253    2.966362   -0.007110
 H   -1.847041    0.717577    0.834803
 H   -3.840845   -0.058260    0.274301
 H   -2.789341    0.795504   -2.007901
 H    0.519949    0.421410   -2.596284
 H   -1.247811   -4.545395    1.026128
 H   -4.118207   -2.628011    1.570797
 H   -3.369573   -4.159101    1.815755
