36 
3zyf_ligand_xtb.xyz
 C   -1.115842   -0.608269   -0.262992
 C   -2.375094   -1.451899   -0.011128
 O   -2.253700   -2.745839   -0.543805
 C   -3.565348   -0.767146   -0.691013
 O   -4.766482   -1.432039   -0.397086
 C   -3.686335    0.673907   -0.167885
 O   -4.063478    0.669888    1.180456
 C   -2.343643    1.399633   -0.328888
 C   -2.356379    2.772702    0.356203
 O   -1.147951    3.452219    0.165999
 O   -1.269982    0.679301    0.256069
 O   -0.063755   -1.254059    0.390048
 C    1.211035   -0.806748    0.226118
 C    1.570720    0.324140   -0.504370
 C    2.902342    0.667421   -0.623675
 C    3.876708   -0.112486   -0.014315
 C    3.525096   -1.236769    0.728405
 C    2.199119   -1.580380    0.845458
 N    5.262063    0.244157   -0.150779
 O    5.529365    1.224882   -0.812885
 O    6.081777   -0.459501    0.401592
 H   -0.921375   -0.563985   -1.356690
 H   -2.545413   -1.482416    1.075494
 H   -1.460834   -3.152772   -0.175241
 H   -3.387299   -0.758287   -1.778028
 H   -4.629395   -2.370564   -0.575939
 H   -4.442269    1.201854   -0.771500
 H   -4.787779    0.033034    1.262899
 H   -2.142621    1.520277   -1.406908
 H   -3.139124    3.390839   -0.085522
 H   -2.570963    2.617905    1.419160
 H   -0.447037    2.914862    0.554230
 H    0.821310    0.945562   -0.965424
 H    3.200946    1.539128   -1.185730
 H    4.300590   -1.822606    1.197277
 H    1.896205   -2.445382    1.412761
