52 
3zyu_ligand_dft.xyz
 O   -4.948663    1.726035   -0.308316
 C   -3.744545    1.904818   -0.242194
 N   -2.724565    0.974768   -0.468675
 C   -2.937614   -0.337567   -1.091253
 C   -3.221416   -1.414816   -0.059253
 N   -2.419182   -2.482688   -0.099488
 C   -2.644344   -3.465842    0.777882
 C   -3.660388   -3.431961    1.723627
 C   -4.491875   -2.315661    1.756089
 C   -4.274704   -1.288714    0.848633
 C   -3.996780   -0.309923   -2.197622
 N   -3.099557    3.077629    0.090678
 C   -1.729691    2.885668    0.137413
 C   -1.490665    1.559711   -0.186558
 C   -0.678704    3.767726    0.417106
 N    0.571533    3.366732    0.393508
 C    0.829402    2.055084    0.133689
 C   -0.162905    1.065757   -0.139069
 C    0.235491   -0.290696   -0.288579
 C    2.191248    1.654246    0.152838
 C    2.580117    0.353206   -0.032916
 C    1.564638   -0.635735   -0.230579
 O    2.018165   -1.906613   -0.325974
 C    1.067490   -2.941847   -0.474248
 C    4.000748   -0.027599    0.025525
 C    4.880468    0.200596    1.040108
 C    4.740805    0.819431    2.384984
 O    6.090904   -0.265248    0.702985
 N    6.038880   -0.814039   -0.568000
 C    4.801271   -0.678195   -0.968017
 C    4.385123   -1.145874   -2.322956
 H   -1.992240   -0.593515   -1.569244
 H   -1.971730   -4.318966    0.718173
 H   -3.793134   -4.256218    2.416258
 H   -5.298920   -2.248277    2.479337
 H   -4.899992   -0.401032    0.828101
 H   -3.989964   -1.283414   -2.696404
 H   -3.752864    0.460848   -2.934782
 H   -4.993344   -0.113403   -1.804023
 H   -3.608772    3.909494    0.339281
 H   -0.869876    4.813852    0.648582
 H   -0.511103   -1.068013   -0.379559
 H    2.931871    2.429673    0.320644
 H    1.642007   -3.867135   -0.526822
 H    0.382864   -2.976584    0.381050
 H    0.476873   -2.818772   -1.389767
 H    5.295891    1.761354    2.444316
 H    3.687522    1.024097    2.589553
 H    5.130715    0.149208    3.157020
 H    3.650315   -1.950662   -2.235433
 H    3.918351   -0.327719   -2.881288
 H    5.253489   -1.505879   -2.878630
