33 
4a4g_ligand_xtb.xyz
 C    2.471254   -0.746236    1.840757
 C    2.783892   -1.899165   -0.328688
 N   -0.862429   -1.197029   -1.336637
 C   -1.293166   -0.312949   -0.258138
 C   -1.472006    1.135897   -0.765563
 C   -0.858874    2.211501    0.137855
 C    0.633455    2.492412   -0.091578
 N    1.514575    1.434669    0.379918
 C    1.761904    0.282338   -0.251490
 N    1.530342    0.147928   -1.569479
 N    2.308005   -0.740965    0.401302
 C   -2.603067   -0.792112    0.376016
 O   -2.892592   -0.113207    1.484076
 O   -3.272128   -1.677486   -0.074725
 H    2.584881   -1.775064    2.173925
 H    1.591876   -0.334608    2.338148
 H    3.358425   -0.187245    2.148539
 H    3.610772   -2.348011    0.216650
 H    3.141373   -1.599081   -1.311618
 H    1.993740   -2.643720   -0.446035
 H    1.041624   -0.700488   -1.857137
 H   -0.912420   -2.161137   -1.014634
 H   -1.534540   -1.138233   -2.098277
 H   -0.537201   -0.351164    0.534494
 H   -1.054208    1.207304   -1.770879
 H   -2.540160    1.338926   -0.858025
 H   -1.034244    1.951325    1.182468
 H   -1.378460    3.150904   -0.052528
 H    0.907899    3.393705    0.458029
 H    0.817242    2.693792   -1.149473
 H    1.826468    1.524861    1.333809
 H    1.196946    0.970105   -2.048556
 H   -3.736059   -0.408967    1.865536
