50 
4a51_ligand_dft.xyz
 C    5.198249    0.850050   -1.450079
 C    4.040005    0.445314   -0.586232
 O    4.196927   -0.374023    0.321208
 C    2.698707    1.045859   -0.813341
 C    1.591186    0.327800   -0.367411
 C    2.509185    2.300905   -1.401427
 C    1.221978    2.811250   -1.495640
 C    0.129430    2.097682   -1.000110
 C    0.298489    0.842065   -0.410886
 C   -0.868342    0.021109    0.158083
 C   -1.087769   -1.287891   -0.603931
 C   -0.503796   -1.521701   -1.849589
 C   -0.762566   -2.702624   -2.546101
 C   -1.609526   -3.662505   -2.009530
 C   -2.210806   -3.432001   -0.772392
 C   -1.955146   -2.257425   -0.079979
 S   -0.510934   -0.387841    1.988454
 C    0.560497   -1.872393    1.962118
 C    1.794578   -1.690780    2.848212
 N    2.537242   -0.431115    2.519442
 C   -2.147517    0.865578    0.229773
 C   -3.207575    0.646163   -0.650604
 C   -4.338646    1.458678   -0.611585
 C   -4.426969    2.498898    0.305488
 C   -3.369108    2.733540    1.180507
 C   -2.237609    1.929143    1.136900
 H    5.481328    1.885703   -1.226106
 H    6.051704    0.202398   -1.248193
 H    4.929572    0.808224   -2.509825
 H    1.757405   -0.682869   -0.019092
 H    3.351029    2.880242   -1.766981
 H    1.059085    3.782904   -1.949864
 H   -0.861459    2.529211   -1.080505
 H    0.144012   -0.779056   -2.301661
 H   -0.300433   -2.862143   -3.515168
 H   -1.809476   -4.581166   -2.551581
 H   -2.887160   -4.167947   -0.349178
 H   -2.443704   -2.078634    0.873600
 H    0.823654   -2.137041    0.936495
 H   -0.004918   -2.719700    2.358262
 H    2.487961   -2.526166    2.733862
 H    1.502518   -1.617958    3.897895
 H    3.163222   -0.155920    3.278722
 H    3.117096   -0.490143    1.637951
 H    1.834082    0.314151    2.380889
 H   -3.158675   -0.158857   -1.375000
 H   -5.153352    1.270816   -1.303619
 H   -5.311665    3.126587    0.337607
 H   -3.422573    3.547180    1.896859
 H   -1.411997    2.145354    1.810123
