40 
4a6s_ligand_xtb.xyz
 C   -1.436460   -0.820067   -0.066263
 O   -1.048503    0.479034    0.253582
 S   -0.529283   -1.953371    1.048334
 C   -2.941722   -1.014073    0.120443
 O   -3.376304   -2.300792   -0.240062
 C   -3.667879   -0.014036   -0.789961
 O   -5.055185   -0.048562   -0.568052
 C   -3.180400    1.413008   -0.490777
 O   -3.601746    1.815406    0.783037
 C   -1.648895    1.462996   -0.570654
 C    1.767869   -2.325563   -0.436438
 O    0.296813    2.879769   -0.270039
 C   -1.090933    2.807268   -0.092684
 C    2.995451   -1.955676   -0.907666
 C    1.111796   -1.509271    0.497704
 C    1.680509   -0.356145    0.960517
 C    2.937699    0.056290    0.473328
 C    3.607920   -0.759137   -0.477369
 C    4.864742   -0.343813   -0.963703
 C    5.428817    0.823890   -0.531845
 C    4.763943    1.630382    0.405430
 C    3.545694    1.256306    0.898658
 H   -1.152401   -1.073674   -1.103197
 H   -3.191837   -0.789372    1.169168
 H   -2.872625   -2.951463    0.264862
 H   -3.440588   -0.273230   -1.836260
 H   -5.324664   -0.975207   -0.588671
 H   -3.594316    2.089362   -1.256826
 H   -4.528691    1.548499    0.862882
 H   -1.348452    1.283177   -1.617126
 H    1.289761   -3.234910   -0.767334
 H    0.685506    2.104673    0.154709
 H   -1.527725    3.616482   -0.679380
 H   -1.369113    2.931909    0.960383
 H    3.512250   -2.575277   -1.626251
 H    1.164563    0.244607    1.694630
 H    5.372310   -0.966501   -1.686353
 H    6.390974    1.136000   -0.910197
 H    5.223538    2.551048    0.732246
 H    3.030537    1.874818    1.619332
