23 
4a6w_ligand_xtb.xyz
 C    1.801431   -0.929072   -0.053110
 O    4.327341    1.678659    0.298008
 C    0.160678   -2.241622   -0.252412
 C   -0.350255   -0.975340   -0.055894
 C    3.139865   -0.326394    0.034591
 C   -1.715157   -0.497838    0.023625
 C   -2.068706    0.853368   -0.066551
 C   -3.395052    1.248531    0.011803
 C   -4.392621    0.306926    0.180667
 N    1.508772   -2.181150   -0.247430
 C   -4.063603   -1.036947    0.270953
 C   -2.744370   -1.430787    0.194219
 N    3.110195    1.008235    0.224924
 O    0.709043   -0.144562    0.068731
 O    4.197814   -0.924942   -0.036948
Cl   -0.882333    2.085154   -0.300915
 H    4.982071    0.952564    0.207278
 H   -0.344729   -3.171104   -0.408919
 H   -3.636702    2.297422   -0.061418
 H   -5.422303    0.622925    0.241970
 H   -4.837355   -1.776726    0.404688
 H   -2.488164   -2.474600    0.276791
 H    2.307230    1.614118    0.247049
