40 
4a9r_ligand_dft.xyz
 C  -11.763036   46.550763    2.796038
 N  -10.828593   45.597061    2.462493
 O   -6.881656   50.258632   12.534792
 C  -11.593007   47.191498    4.140339
 C  -10.359637   47.226531    4.787764
 N   -9.297675   48.089513    6.924722
 C  -10.319119   47.854628    6.027273
 N  -11.129344   48.979806    7.850479
 C   -9.845886   48.755448    7.997067
 C  -11.455923   48.431228    6.626889
 C  -12.682964   48.400328    5.956128
 C  -12.732993   47.786931    4.718160
 C   -9.061007   49.157518    9.169214
Cl   -8.681443   54.025350   16.682211
 C   -9.736395   49.513619   10.340888
 C   -9.040237   49.899167   11.476080
 C   -7.645722   49.940344   11.443784
 C   -6.956372   49.593841   10.284723
 C   -7.663898   49.204921    9.156446
 C   -7.362070   51.142210   13.472348
 C   -7.912474   52.370227   13.111459
 C   -8.322913   53.255363   14.100755
 C   -8.167691   52.908876   15.439232
 C   -7.609018   51.688625   15.801893
 C   -7.208806   50.799472   14.810709
 O  -12.657152   46.866666    2.030654
 H  -11.034798   45.085424    1.616153
 H  -10.377164   45.071714    3.195456
 H   -9.464613   46.820844    4.325563
 H   -8.358275   47.733258    6.862809
 H  -13.561628   48.853170    6.402557
 H  -13.658540   47.750984    4.154063
 H  -10.820463   49.477012   10.346733
 H   -9.574009   50.162313   12.382818
 H   -5.873043   49.643078   10.282146
 H   -7.107938   48.970837    8.252526
 H   -8.020998   52.630613   12.063787
 H   -8.754078   54.213669   13.833226
 H   -7.493143   51.432251   16.849065
 H   -6.773278   49.839269   15.064553
