74 
4aa0_ligand_dft.xyz
 C    5.707813   -1.119871    2.331966
 C    4.579010   -0.655513    2.967327
 C    3.662912    0.169146    2.285543
 N    2.532284    0.618685    2.942980
 C    3.014256    1.357272    0.202770
 N    1.906945    1.762196    0.954700
 C    0.881004    2.565278    0.336259
 C   -0.338997    1.946727    0.092207
 C   -1.379371    2.690339   -0.467722
 N   -2.641795    2.148863   -0.755856
 C   -3.104031    0.883284   -0.488141
 O   -2.450387    0.028372    0.086550
 C   -4.514169    0.631430   -0.946016
 C   -5.085017    1.264929   -2.054422
 C   -6.386890    0.911437   -2.379509
 N   -7.120651    0.039250   -1.696212
 C   -6.582577   -0.558974   -0.620907
 C   -5.249973   -0.298399   -0.232994
 N   -7.402347   -1.413889    0.081463
 C   -6.869861   -2.271018    1.129551
 C   -7.990734   -2.708724    2.068931
 O   -9.056896   -3.308171    1.375445
 C   -9.612584   -2.391084    0.456398
 C   -8.588920   -1.954987   -0.579326
 C   -1.156937    4.036671   -0.769980
 C    0.072805    4.624213   -0.514190
 C    1.129745    3.908560    0.049898
 C    1.736354    1.366490    2.264783
 C    2.461389    4.552977    0.321196
 C    3.943435    0.509016    0.958667
 C    5.085429    0.023310    0.310076
 C    5.971507   -0.801833    0.979727
 C    7.338289   -2.755000    0.420696
 C    6.562014   -3.455673   -0.696684
 N    7.160686   -1.316136    0.382652
 N    7.003011   -2.920698   -2.036558
 C    6.858848   -1.419281   -2.089124
 O    3.169209    1.679662   -0.962329
 C    7.581308   -0.784039   -0.893922
 C    6.297128   -3.588380   -3.169027
 H    6.425152   -1.711904    2.892854
 H    4.381327   -0.896140    4.006232
 H   -0.486218    0.902191    0.329923
 H   -3.317014    2.798544   -1.131672
 H   -4.533013    1.951761   -2.687598
 H   -6.870819    1.350822   -3.249384
 H   -4.768582   -0.808344    0.590478
 H   -6.134867   -1.724360    1.724199
 H   -6.375951   -3.156107    0.697687
 H   -8.349681   -1.832535    2.633650
 H   -7.612139   -3.450305    2.776808
 H  -10.000272   -1.509048    0.991222
 H  -10.446646   -2.900020   -0.032317
 H   -8.308213   -2.818695   -1.202234
 H   -9.006501   -1.188273   -1.230327
 H   -1.953762    4.633742   -1.206361
 H    0.215128    5.673941   -0.753823
 H    0.830788    1.747167    2.729195
 H    2.834891    4.302670    1.320091
 H    3.205918    4.212267   -0.406026
 H    2.387394    5.641161    0.252978
 H    5.221508    0.346905   -0.715851
 H    8.408535   -2.989626    0.338166
 H    6.998049   -3.162919    1.372814
 H    5.490743   -3.249985   -0.616574
 H    6.726994   -4.535858   -0.705638
 H    8.002733   -3.130845   -2.126769
 H    5.785261   -1.220296   -2.075580
 H    7.274322   -1.084555   -3.042766
 H    8.662534   -0.951202   -0.998495
 H    7.428126    0.296528   -0.922941
 H    6.475633   -4.663116   -3.115608
 H    5.229882   -3.381527   -3.079989
 H    6.677310   -3.188668   -4.110013
