110 
4aa2_ligand_xtb.xyz
 N    6.641320    1.564755    0.776765
 C    6.076475    0.953378   -0.419064
 C    6.114226   -0.558981   -0.215068
 O    7.028142   -1.076139    0.433601
 C    6.880846    1.372034   -1.666713
 C    8.307005    0.829763   -1.799699
 C    9.296038    1.316867   -0.739346
 N    9.181229    0.498479    0.447794
 C    9.989613    0.487717    1.477959
 N    9.707431   -0.332726    2.497002
 N   11.082590    1.259587    1.544921
 N    5.176473   -1.314172   -0.782851
 C    3.958805   -0.879719   -1.436677
 C    3.016235   -0.228517   -0.402717
 O    3.305237   -0.126847    0.769710
 C    3.361697   -2.184852   -1.981872
 C    3.777465   -3.206109   -0.926095
 C    5.189062   -2.759684   -0.570942
 N    1.872113    0.241646   -0.936351
 C    0.769001    0.706195   -0.119345
 C   -0.348038   -0.340020   -0.205328
 O   -0.720654   -0.770146   -1.282686
 C    0.231647    2.039350   -0.660888
 C   -0.810455    2.657255    0.271729
 C   -1.510849    3.872027   -0.345444
 C   -2.536464    3.518235   -1.419986
 N   -3.686657    2.807573   -0.836184
 N   -0.880566   -0.746049    0.957133
 C   -2.055950   -1.598736    0.922918
 C   -3.090083   -0.855914    0.073707
 O   -3.150562    0.372824    0.130951
 C   -2.547245   -1.963017    2.336185
 C   -2.942969   -0.746892    3.190664
 C   -1.472515   -2.798208    3.035993
 C   -4.407010   -0.343497    3.047566
 N   -3.896118   -1.559323   -0.722364
 C   -4.637619   -0.876539   -1.780704
 C   -5.618258    0.211562   -1.338012
 O   -5.568891    1.306688   -1.900968
 C   -5.314914   -1.993169   -2.597592
 C   -5.027191   -3.295465   -1.842852
 C   -3.795384   -2.983696   -0.998507
 N   -6.546256   -0.043302   -0.417952
 C   -7.557703    0.959969   -0.104382
 C   -6.984681    2.108403    0.721968
 O   -5.812794    2.379036    0.809912
 C   -8.645463    0.178202    0.633200
 C   -7.835245   -0.899270    1.348038
 C   -6.803210   -1.286305    0.291532
 O   -7.941966    2.812167    1.297407
 H   11.714490    1.198520    2.323443
 H    6.549429    2.573381    0.728851
 H    6.133049    1.246941    1.595085
 H    5.033331    1.266503   -0.587261
 H    6.324407    1.053129   -2.550497
 H    6.917082    2.463848   -1.679571
 H    8.298539   -0.260840   -1.794451
 H    8.675576    1.149311   -2.775835
 H    9.099464    2.367630   -0.499906
 H   10.311553    1.231414   -1.141549
 H    8.306377   -0.068486    0.515897
 H   10.308540   -0.412637    3.297333
 H    8.896199   -0.924992    2.435517
 H   11.318826    1.883574    0.794801
 H    4.167437   -0.161414   -2.236137
 H    2.282632   -2.132985   -2.113943
 H    3.820341   -2.425474   -2.941513
 H    3.127709   -3.128120   -0.053758
 H    3.749448   -4.227547   -1.295805
 H    5.934795   -3.209176   -1.233747
 H    5.468561   -2.976972    0.460792
 H    1.634088    0.031648   -1.895298
 H    1.147647    0.813591    0.900522
 H   -0.203377    1.841712   -1.642590
 H    1.067159    2.729330   -0.791978
 H   -0.312741    2.975726    1.189065
 H   -1.548296    1.902255    0.542224
 H   -2.014171    4.431289    0.445192
 H   -0.763166    4.532735   -0.785181
 H   -2.889255    4.430327   -1.904579
 H   -2.092756    2.875908   -2.180826
 H   -4.159604    3.342848   -0.101956
 H   -4.417297    2.504878   -1.521618
 H   -3.403095    1.898397   -0.398891
 H   -0.596692   -0.342906    1.835126
 H   -1.772987   -2.517634    0.397140
 H   -3.433188   -2.595495    2.210936
 H   -2.759479   -0.995910    4.236928
 H   -2.318234    0.114085    2.946529
 H   -1.850220   -3.168432    3.984984
 H   -0.579478   -2.210313    3.233113
 H   -1.190765   -3.654717    2.427873
 H   -4.642303    0.438131    3.765701
 H   -5.056109   -1.193532    3.248347
 H   -4.614968    0.043333    2.053906
 H   -3.910833   -0.340719   -2.407447
 H   -6.382966   -1.816846   -2.712334
 H   -4.879514   -2.026515   -3.594538
 H   -4.840938   -4.121094   -2.525280
 H   -5.862217   -3.574461   -1.202377
 H   -2.878111   -3.180535   -1.565340
 H   -3.778094   -3.561516   -0.074231
 H   -7.917238    1.421985   -1.032860
 H   -9.330425   -0.272672   -0.084289
 H   -9.213630    0.810285    1.309377
 H   -8.442122   -1.745847    1.657709
 H   -7.342017   -0.479336    2.225234
 H   -7.235062   -2.019498   -0.396456
 H   -5.885891   -1.686730    0.721200
 H   -7.599667    3.570474    1.799064
