58 
4aa4_ligand_xtb.xyz
 C   -2.873439    3.700331   29.347226
 N   -2.424224    3.625516   27.975257
 C   -1.652470    2.424627   27.719222
 C   -1.117023    2.472613   26.290792
 N   -2.219087    2.549555   25.358605
 C   -3.016402    3.729150   25.599586
 C   -3.530381    3.697771   27.040387
 C   -2.173732    1.944141   24.122666
 C   -1.630052    0.647725   23.989691
 C   -1.626636   -0.016361   22.790864
 C   -2.182286    0.572230   21.649562
 N   -2.184301   -0.106601   20.458914
 C   -2.720183    0.463803   19.452290
 N   -3.308632    1.699330   19.451230
 C   -3.872616    2.188394   18.240136
 C   -3.035806    2.306834   17.139930
 C   -3.539932    2.763875   15.929271
 N   -2.755098    2.896407   14.781665
 C   -1.455610    2.513518   14.587571
 O   -0.757309    2.000500   15.435948
 C   -0.958624    2.781013   13.221958
 C    0.411314    2.666225   12.842082
 C    0.460929    2.970150   11.521251
 O   -0.767793    3.256664   11.053876
 C   -1.620679    3.143709   12.077013
 C   -4.887148    3.112191   15.849228
 C   -5.707519    2.979756   16.950078
 C   -5.229436    2.504860   18.165802
 C   -6.146062    2.342419   19.335438
 C   -3.314393    2.505012   20.591960
 C   -2.733088    1.859901   21.765857
 C   -2.716581    2.533234   22.983509
 O   -3.768831    3.632919   20.566137
 H   -3.400921    4.641013   29.498210
 H   -3.546474    2.872270   29.621611
 H   -2.007059    3.677037   30.006562
 H   -0.817238    2.389135   28.422480
 H   -2.262937    1.512360   27.851710
 H   -4.211249    2.834119   27.157277
 H   -4.095308    4.611262   27.239705
 H   -0.486952    3.370195   26.190015
 H   -0.502172    1.597435   26.091068
 H   -2.426671    4.645169   25.447559
 H   -3.874793    3.739168   24.928730
 H   -1.225387    0.150079   24.857840
 H   -1.210803   -1.007953   22.706038
 H   -2.738592   -0.062320   18.507019
 H   -1.992605    2.051397   17.226843
 H   -3.233589    3.309012   13.994855
 H   -5.291448    3.482351   14.917386
 H    1.215564    2.395166   13.492664
 H   -2.654935    3.326540   11.855396
 H    1.273058    3.016665   10.823706
 H   -6.751360    3.243842   16.866014
 H   -5.995037    3.165549   20.034272
 H   -7.183872    2.344129   19.012016
 H   -5.940788    1.413851   19.867384
 H   -3.127301    3.530118   22.994638
