58 
4aa5_ligand_xtb.xyz
 C   -2.199521    1.066471   26.527299
 C   -1.078672    2.107535   26.429086
 C   -0.615163    4.462339   26.516827
 C   -3.237780    1.227760   23.015950
 C   -2.965232    0.616385   24.237535
 C   -2.566641   -0.738836   24.206655
 C   -2.424020   -1.428841   23.031441
 C   -2.369081    1.008634   17.263728
 C   -2.526068    1.537373   15.989115
 C   -3.786037    1.975310   15.594659
 C   -1.328302    1.564619   15.098175
 C   -0.234569    2.787529   13.293744
 C    0.236429    4.175472   12.983725
 C   -0.518018    3.386880   11.950293
 N   -3.222164    0.397726   19.434522
 C   -3.381876    1.213279   20.556458
 N   -1.640909    3.443634   26.496003
 C   -2.582533    3.644019   25.407863
 C   -3.688665    2.591481   25.511560
 C   -4.855046    1.884585   16.465589
 C   -4.712212    1.371223   17.749409
 C   -5.884332    1.275130   18.670486
 O   -0.446059    0.730621   15.168741
 C   -3.441384    0.940948   18.137774
 C   -3.105886    0.532701   21.817378
 C   -2.684491   -0.807810   21.804961
 N   -2.529493   -1.503823   20.634737
 C   -2.786461   -0.895571   19.544258
 N   -3.150680    1.249573   25.450723
 O   -3.712200    2.379232   20.444787
 N   -1.303548    2.592461   14.215481
 H   -1.768010    0.068282   26.504188
 H   -2.729567    1.200668   27.475035
 H   -0.387068    1.980228   27.265163
 H   -0.520815    1.945673   25.486744
 H   -1.087144    5.438039   26.622588
 H    0.035647    4.294717   27.373824
 H    0.000352    4.466851   25.603251
 H   -3.546013    2.258201   22.941036
 H   -2.388253   -1.260392   25.134326
 H   -2.117856   -2.462946   23.028371
 H   -1.393122    0.659073   17.567183
 H   -3.949963    2.355279   14.596462
 H   -5.832214    2.212939   16.142232
 H   -2.020557    3.299625   14.248988
 H    0.487619    1.986436   13.378785
 H   -0.271240    5.001712   13.458788
 H    1.292679    4.339393   12.841074
 H    0.017811    3.006797   11.095106
 H   -1.532785    3.683356   11.730457
 H   -2.671869   -1.429732   18.610202
 H   -3.013187    4.643480   25.501354
 H   -2.086284    3.567528   24.423505
 H   -4.174445    2.697460   26.487142
 H   -4.440976    2.732949   24.737201
 H   -5.904935    0.310026   19.175939
 H   -5.808080    2.048848   19.434930
 H   -6.815114    1.411471   18.126164
