59 
4aa5_ligand_dft.xyz
 C   -6.006941   -0.729963   -1.196887
 C   -6.955957   -1.752257   -0.588363
 C   -8.502614   -2.171640    1.317174
 C   -2.614549    0.066635   -0.001410
 C   -3.776391    0.197820   -0.742624
 C   -3.747246    0.913540   -1.953338
 C   -2.569764    1.470806   -2.412927
 C    3.154576    0.187069   -0.199414
 C    4.425910    0.067250    0.357044
 C    4.718049    0.778199    1.519632
 C    5.409876   -0.805054   -0.375783
 C    7.425689   -2.160303   -0.212866
 C    8.846588   -2.039097    0.261905
 C    8.470084   -1.585203   -1.122156
 N    0.913281    1.102647   -0.230785
 C   -0.207156    0.497809    0.353239
 N   -7.547779   -1.212614    0.689203
 C   -6.459913   -0.784546    1.642312
 C   -5.524491    0.196079    0.953435
 C    3.750386    1.579077    2.117290
 C    2.468999    1.702584    1.581246
 C    1.429359    2.568956    2.236198
 O    5.261153   -1.063377   -1.558682
 C    2.199333    0.985727    0.408464
 C   -1.429373    0.651270   -0.449382
 C   -1.387243    1.351691   -1.665549
 N   -0.222652    1.920006   -2.152654
 C    0.833589    1.766141   -1.437720
 N   -4.971695   -0.411134   -0.241957
 O   -0.148580   -0.087520    1.418389
 N    6.460766   -1.270239    0.361628
 H   -6.586710    0.154617   -1.527403
 H   -5.561056   -1.178549   -2.088169
 H   -6.422764   -2.667533   -0.321755
 H   -7.786570   -1.988547   -1.257498
 H   -7.955939   -3.076166    1.586654
 H   -8.931071   -1.714192    2.209765
 H   -9.290338   -2.410283    0.601563
 H   -2.592489   -0.502693    0.923125
 H   -4.650152    1.037116   -2.543916
 H   -2.533619    2.016127   -3.349648
 H    2.931023   -0.351439   -1.115127
 H    5.714230    0.745950    1.951202
 H    7.049863   -3.152333   -0.453585
 H    9.420698   -2.952614    0.376251
 H    9.064554   -1.271579    0.998916
 H    8.422520   -0.517960   -1.309069
 H    8.778020   -2.184637   -1.971814
 H   -8.072409   -0.367269    0.439562
 H   -5.926886   -1.692917    1.932501
 H   -6.946074   -0.344567    2.516047
 H   -4.721350    0.440798    1.651081
 H   -6.061974    1.139533    0.734385
 H    3.999992    2.136664    3.015353
 H    0.673779    1.945270    2.725182
 H    1.881523    3.219873    2.988302
 H    0.914620    3.200911    1.504414
 H    1.776724    2.186507   -1.776932
 H    6.383031   -1.259102    1.367783
