49 
4aa7_ligand_dft.xyz
 C    3.545165   -2.695949    2.284953
 O    3.525187   -1.638456    1.348146
 C    2.368659   -1.391120    0.680378
 C    1.190051   -2.100989    0.859679
 C    0.050114   -1.758125    0.133199
 O   -1.119230   -2.416785    0.391678
 C   -1.259383   -3.662303   -0.287816
 C    0.115035   -0.720893   -0.792078
 C    1.296602    0.001219   -0.970668
 C    2.428134   -0.318174   -0.233992
 N    3.653228    0.356564   -0.329137
 C    3.899389    1.562954   -0.941774
 O    3.067852    2.181804   -1.578147
 C    5.311801    2.076404   -0.729476
 S   -1.324802   -0.207324   -1.718701
 O   -2.007613   -1.367032   -2.269387
 O   -0.885070    0.867246   -2.589645
 N   -2.354008    0.454913   -0.587741
 C   -3.446838   -0.343267    0.033435
 C   -4.786213    0.145244   -0.503976
 C   -3.273856   -0.102816    1.551919
 C   -2.393810    1.120023    1.620086
 C   -2.051980    1.921700    2.697217
 C   -1.154871    2.974311    2.504391
 C   -0.616050    3.215932    1.242989
 C   -0.967067    2.430448    0.145139
 C   -1.856866    1.385810    0.360430
 H    3.331783   -3.656371    1.800916
 H    4.553817   -2.713803    2.697904
 H    2.823944   -2.522734    3.092226
 H    1.112764   -2.906352    1.580171
 H   -0.443738   -4.345068   -0.018648
 H   -1.283346   -3.505045   -1.369457
 H   -2.209483   -4.083184    0.044401
 H    1.325859    0.818825   -1.677272
 H    4.393029   -0.048352    0.226073
 H    5.528464    2.820257   -1.496343
 H    5.385478    2.557732    0.251995
 H    6.057639    1.276736   -0.775382
 H   -3.300985   -1.391282   -0.222911
 H   -4.926522    1.208129   -0.279015
 H   -5.607005   -0.418873   -0.046805
 H   -4.829453    0.010463   -1.588060
 H   -4.243201    0.043751    2.039215
 H   -2.780845   -0.957794    2.028442
 H   -2.470709    1.727908    3.681166
 H   -0.877094    3.607540    3.341594
 H    0.083744    4.034033    1.101999
 H   -0.558959    2.623637   -0.840215
