58 
4aac_ligand_dft.xyz
 C   -8.943210   -2.336328    1.266852
 N   -7.531203   -2.012192    0.910939
 C   -7.329395   -1.896119   -0.578535
 C   -5.873859   -1.579320   -0.881131
 N   -5.480998   -0.355786   -0.203167
 C   -5.587292   -0.504099    1.231868
 C   -7.035949   -0.771296    1.609454
 C   -4.266966    0.224508   -0.694115
 C   -4.285311    0.800345   -1.980991
 C   -3.150083    1.361042   -2.520542
 C   -1.951747    1.386605   -1.781070
 N   -0.824874    1.955315   -2.347864
 C    0.244288    1.943353   -1.635501
 N    0.366762    1.432030   -0.360250
 C    1.660425    1.455867    0.272349
 C    2.645921    0.627545   -0.238382
 C    3.925527    0.636446    0.313350
 N    5.996722   -0.625680    0.487355
 C    4.932898   -0.282504   -0.322955
 O    4.791034   -0.687776   -1.455882
 C    8.068002   -1.870415    1.071735
 C    8.895641   -2.605255    0.293196
 O    8.459055   -2.622734   -0.965658
 C    7.072990   -1.439406    0.144599
 C    4.194293    1.506804    1.368445
 C    3.195217    2.335089    1.869360
 C    1.905398    2.329629    1.339592
 C    0.830452    3.224220    1.890595
 N    7.295294   -1.880761   -1.071112
 C   -0.716832    0.844920    0.306325
 C   -3.098852    0.244701    0.043137
 O   -0.618375    0.394304    1.433178
 C   -1.947654    0.835435   -0.493511
 H   -9.019941   -2.452471    2.348583
 H   -9.580328   -1.516409    0.932969
 H   -9.232725   -3.261842    0.767690
 H   -6.941661   -2.788278    1.230914
 H   -7.984066   -1.089787   -0.917409
 H   -7.644084   -2.841410   -1.026450
 H   -5.775414   -1.455408   -1.961478
 H   -5.232857   -2.436066   -0.596419
 H   -5.278174    0.423546    1.719965
 H   -4.948350   -1.314303    1.634081
 H   -7.153413   -0.932347    2.683476
 H   -7.682828    0.046969    1.284996
 H   -5.216118    0.815605   -2.541483
 H   -3.154075    1.806120   -3.509423
 H    1.160822    2.369247   -2.035405
 H    2.439070   -0.034382   -1.073433
 H    5.941299   -0.380061    1.463177
 H    8.142851   -1.663211    2.128253
 H    9.803113   -3.156563    0.489674
 H    5.193768    1.585210    1.787392
 H    3.426530    3.016557    2.682680
 H    0.288963    3.739948    1.090387
 H    0.102655    2.632123    2.455167
 H    1.254033    3.979930    2.556206
 H   -3.018125   -0.184155    1.036736
