57 
4aac_ligand_xtb.xyz
 C   -2.605806    3.634622   29.266081
 N   -2.152524    3.387899   27.915657
 C   -1.591148    2.059534   27.762775
 C   -1.027594    1.917541   26.351502
 N   -2.080922    2.115004   25.381206
 C   -2.674604    3.423936   25.522145
 C   -3.213426    3.578025   26.945837
 C   -2.124232    1.420944   24.194816
 C   -1.797429    0.046915   24.162792
 C   -1.888240   -0.693080   23.012948
 C   -2.324824   -0.105375   21.820588
 N   -2.416722   -0.856279   20.678041
 C   -2.825533   -0.279415   19.618100
 N   -3.198689    1.035670   19.517914
 C   -3.619050    1.537337   18.256149
 C   -2.734227    1.469635   17.192365
 C   -3.091947    1.955554   15.940777
 N   -2.162066    2.850868   13.919531
 C   -2.094368    1.824127   14.838945
 O   -1.303836    0.918274   14.772691
 C   -1.350858    4.128010   11.950509
 C   -0.445624    3.784612   10.997124
 O    0.028218    2.561878   11.240006
 C   -1.374050    2.980835   12.799871
 C   -4.364579    2.490792   15.765298
 C   -5.249145    2.532267   16.825830
 C   -4.903560    2.062076   18.087681
 C   -5.883954    2.108497   19.212922
 N   -0.549813    2.064835   12.357850
 C   -3.106435    1.906178   20.606630
 C   -2.552090    2.006218   23.005056
 O   -3.376991    3.086814   20.490939
 C   -2.660801    1.259643   21.836182
 H   -2.970552    4.658143   29.337448
 H   -3.412376    2.951613   29.576896
 H   -1.766550    3.515404   29.949572
 H   -0.787584    1.933266   28.491915
 H   -2.349969    1.274174   27.936083
 H   -0.252792    2.687300   26.212289
 H   -0.566368    0.939949   26.228588
 H   -1.936988    4.216324   25.328652
 H   -3.506880    3.530176   24.827336
 H   -4.031864    2.849806   27.098208
 H   -3.620556    4.584318   27.067846
 H   -1.488574   -0.446879   25.071370
 H   -1.637927   -1.742088   23.005935
 H   -2.910119   -0.859048   18.708406
 H   -1.748904    1.048215   17.327119
 H   -1.911758    5.032702   12.050990
 H   -0.066969    4.295380   10.134577
 H   -4.688381    2.839145   14.794945
 H   -6.240946    2.932416   16.673708
 H   -5.615324    2.917948   19.892481
 H   -6.890285    2.282422   18.841262
 H   -5.868556    1.179760   19.782362
 H   -2.795170    3.054529   22.937520
 H   -2.776739    3.627636   14.113733
