24 
4abe_ligand_xtb.xyz
 C   -1.947869   15.954021   18.183168
 N   -3.205798   15.627331   18.831700
 C   -1.756567   15.161021   16.916291
 N   -2.956042   12.034844   15.406246
 C   -0.884448   15.613319   15.932169
 C   -0.698578   14.879390   14.775044
 C   -1.377990   13.690825   14.577314
 C   -2.246691   13.229997   15.560942
 C   -2.739563   11.034723   14.515859
 C   -3.688319   10.073012   14.753115
 C   -4.447429   10.584552   15.818561
 C   -2.431422   13.967187   16.726302
 N   -3.993796   11.757181   16.199607
 H   -1.839152   17.028046   17.947061
 H   -1.142873   15.692910   18.881310
 H   -3.306763   16.151745   19.692961
 H   -3.985028   15.861361   18.225570
 H   -0.352189   16.543096   16.071957
 H   -3.107892   13.600695   17.480568
 H   -1.939128   11.057087   13.805597
 H   -0.023999   15.239036   14.012243
 H   -1.237421   13.141354   13.659942
 H   -3.819279    9.141462   14.242070
 H   -5.292765   10.144806   16.309404
