21 
4abf_ligand_dft.xyz
 C   -3.107788    0.330041    0.000091
 N   -3.694404   -2.487594   -0.000249
 S   -2.546333    1.966390   -0.000002
 C   -0.887633    1.428615   -0.000008
 C   -0.796533    0.025853    0.000047
 C   -2.103908   -0.587042    0.000098
 C    0.258134    2.229026   -0.000057
 C    1.494693    1.611838   -0.000057
 C   -2.243622   -2.077546    0.000225
 C    1.589811    0.210256   -0.000012
 C    0.464584   -0.589982    0.000047
Br    3.295913   -0.592569   -0.000009
 H   -4.180150    0.168565    0.000126
 H   -3.801276   -3.506948   -0.000291
 H   -4.176047   -2.119259    0.827534
 H   -4.175500   -2.119227   -0.828338
 H    0.187006    3.311325   -0.000089
 H    2.400028    2.207867   -0.000082
 H   -1.793919   -2.533975   -0.886582
 H   -1.794541   -2.533797    0.887441
 H    0.573188   -1.670088    0.000102
