30 
4abh_ligand_dft.xyz
 C    3.209650   -0.987542   -0.618480
 N    3.683880   -1.483042    0.749967
 C    2.109668    0.002448   -0.392488
 N   -1.549960    0.016990    0.024813
 C    2.430508    1.339635   -0.167625
 C    1.394346    2.224344    0.131753
 C    0.082787    1.792024    0.206933
 C   -0.260334    0.438200   -0.028664
 C   -2.693097    0.917857    0.168268
 C   -3.891576    0.033326   -0.184126
 C   -3.436116   -1.365761    0.241091
 C   -1.951337   -1.376582   -0.129790
 C    0.793931   -0.454836   -0.320086
 H    2.893050   -1.876782   -1.166849
 H    4.088306   -0.554906   -1.100609
 H    4.444597   -2.168097    0.694292
 H    3.999690   -0.684824    1.311154
 H    2.896256   -1.904720    1.253163
 H    3.454493    1.694600   -0.251132
 H    1.614871    3.272663    0.305506
 H   -0.693732    2.507921    0.449547
 H   -2.601580    1.774356   -0.508564
 H   -2.759811    1.300934    1.196253
 H   -4.068722    0.060910   -1.264287
 H   -4.806084    0.357222    0.316648
 H   -3.991641   -2.166892   -0.250681
 H   -3.549560   -1.488322    1.323342
 H   -1.366932   -2.027525    0.532439
 H   -1.795725   -1.717068   -1.164538
 H    0.574499   -1.495777   -0.539862
