59 
4abk_ligand_dft.xyz
 N   -2.465728    3.625453   -1.849430
 C   -3.357268    2.714898   -2.241632
 N   -3.758511    1.619589   -1.595542
 C   -3.205458    1.542243   -0.376018
 C   -2.325437    2.452040    0.196886
 C   -1.882738    3.490913   -0.647069
 N   -0.897565    4.350157   -0.293727
 N   -1.995094    2.048727    1.478917
 C   -2.630849    0.913574    1.640746
 N   -3.371849    0.548806    0.558219
 P    0.503317   -1.343685    0.180246
 P    1.042671    1.268602    1.430406
 C   -4.047919   -0.730556    0.341028
 O    1.210386   -1.018795   -1.067299
 O    1.151698    2.248152    0.330108
 C    5.696250    0.226577   -1.440539
 O    5.014344    0.339018   -2.664170
 C   -3.673882   -1.327766   -1.035826
 O   -4.635936   -1.096631   -2.022318
 O    1.205205   -2.350823    1.176850
 O    0.365808    1.777757    2.760107
 C    5.500259   -1.232673   -0.946538
 O    4.791196   -2.033991   -1.858364
 C   -3.590466   -2.820186   -0.711557
 O   -4.875521   -3.390488   -0.725075
 O    0.155059   -0.049399    1.102502
 C    4.649267   -1.047305    0.345493
 O    3.743485   -2.114418    0.472649
 C   -3.082840   -2.814731    0.731520
 O   -3.619316   -1.624207    1.325067
 C    4.044385    0.349316    0.134373
 O    5.135564    1.054698   -0.461890
 C   -1.573626   -2.863730    0.901338
 O   -0.954881   -1.947347   -0.012635
 C    3.655267    1.135060    1.373424
 O    2.426557    0.632014    1.914296
 H   -3.793030    2.874091   -3.224413
 H   -0.572395    4.924496   -1.060056
 H   -0.153239    3.941105    0.264939
 H   -2.571522    0.285941    2.516521
 H   -5.129904   -0.578141    0.411372
 H    6.742857    0.525201   -1.549552
 H    4.788308    1.269706   -2.789297
 H   -2.685707   -0.962027   -1.331876
 H   -4.594060   -0.137595   -2.207356
 H    2.193387   -2.248708    1.115436
 H   -0.544105    2.110132    2.504306
 H    6.452033   -1.725118   -0.738330
 H    4.355404   -1.427937   -2.482983
 H   -2.905202   -3.346859   -1.388955
 H   -5.355183   -2.948688   -1.442564
 H    5.290627   -1.034948    1.232975
 H    3.635170   -2.446104   -0.443740
 H   -3.508508   -3.664964    1.273060
 H    3.190682    0.293291   -0.553950
 H   -1.201970   -3.870067    0.686547
 H   -1.319732   -2.604556    1.932895
 H    4.402896    1.027909    2.162880
 H    3.555750    2.190603    1.110906
