26 
4abu_ligand_dft.xyz
 C   -1.399291    0.620915    0.263898
 C   -1.786040    0.156537   -1.003614
 C   -3.069220   -0.352206   -1.163670
 C   -3.957440   -0.385449   -0.085601
 C   -3.567041    0.089501    1.165482
 C   -2.282885    0.590210    1.334594
 O   -0.163565    1.188754    0.438173
 C    0.948516    0.408070    0.317998
 C    2.166556    1.058475    0.102240
 C    3.348520    0.335217    0.012052
 C    3.308470   -1.048341    0.135928
 C    2.107451   -1.710452    0.353619
 C    0.931050   -0.977568    0.448398
 C   -5.321253   -0.929512   -0.285603
 O   -6.159211   -1.007737    0.583185
Cl    4.793635   -1.959986    0.016052
Cl    2.205500    2.787850   -0.058231
 O   -0.868106    0.231808   -1.995142
 H   -3.387945   -0.718468   -2.138831
 H   -4.273619    0.056108    1.987450
 H   -1.941299    0.969881    2.291576
 H    4.286108    0.851283   -0.157318
 H    2.088570   -2.789622    0.454356
 H   -0.010752   -1.485158    0.627294
 H   -5.539876   -1.276223   -1.318976
 H   -1.243779   -0.116467   -2.812562
