55 
4acc_ligand_dft.xyz
 C   -7.474859   -0.975566    0.608445
 N   -7.624213   -0.008801   -0.527574
 C   -7.629081    1.410015   -0.027509
 C   -6.679363   -0.283050   -1.677931
 C   -5.189421   -0.285514   -1.346447
 N   -4.688306    1.033867   -0.999470
 S   -3.921946    1.264751    0.481040
 O   -3.644393    2.683136    0.531510
 O   -4.814197    0.607063    1.433990
 C   -2.402753    0.363393    0.435087
 C   -2.343722   -0.926142    0.958372
 C   -1.152223   -1.633548    0.876706
 C   -0.021008   -1.070082    0.271666
 C   -0.104509    0.237230   -0.229739
 C   -1.284242    0.957846   -0.150572
 C    1.250324   -1.814605    0.167983
 C    1.318892   -3.212678    0.136016
 N    2.452862   -3.880916    0.027909
 C    3.593883   -3.168997   -0.053501
 C    3.539657   -1.738661   -0.036927
 N    2.382612   -1.109373    0.066786
 C    4.787881   -0.906565   -0.129311
 O    5.891693   -1.422045   -0.281912
 N    4.558015    0.426111   -0.024771
 C    5.482888    1.484875   -0.053461
 C    5.002358    2.774817    0.177205
 C    5.889269    3.838779    0.147388
 C    7.231287    3.576443   -0.112960
 N    7.701936    2.350168   -0.334285
 C    6.851955    1.323799   -0.306236
 N    4.739809   -3.850731   -0.150915
 H   -7.465759   -1.991712    0.211165
 H   -6.549063   -0.744388    1.135882
 H   -8.324240   -0.845305    1.280064
 H   -8.552889   -0.168954   -0.925251
 H   -6.746760    1.565408    0.588284
 H   -7.626221    2.087801   -0.880343
 H   -8.534221    1.547426    0.565820
 H   -6.901067    0.468954   -2.439074
 H   -6.964517   -1.265265   -2.066585
 H   -4.679352   -0.675275   -2.234305
 H   -4.975798   -0.991260   -0.539073
 H   -4.222827    1.543133   -1.743478
 H   -3.203942   -1.350930    1.464620
 H   -1.097182   -2.619934    1.325231
 H    0.774373    0.682187   -0.682403
 H   -1.334164    1.977272   -0.519853
 H    0.416252   -3.818845    0.173997
 H    3.584423    0.666668    0.118484
 H    3.946678    2.939637    0.381351
 H    5.547704    4.853005    0.324444
 H    7.958259    4.384062   -0.145103
 H    7.263985    0.339267   -0.486312
 H    4.700477   -4.857933   -0.162368
 H    5.609873   -3.339285   -0.239941
