55 
4acd_ligand_xtb.xyz
 C   44.085283    1.925490   33.064055
 N   44.979193    1.596333   34.161080
 C   45.711582    2.756267   34.619254
 C   44.237843    0.970111   35.242436
 C   43.578760   -0.315506   34.739800
 N   42.758099   -0.081679   33.579247
 S   41.128232    0.143090   33.781809
 O   40.701030   -0.803022   34.769332
 O   40.543164    0.113622   32.474022
 C   40.876815    1.791773   34.451776
 C   40.671636    2.851517   33.588258
 C   40.513781    4.124240   34.101872
 C   40.563300    4.342680   35.480269
 C   40.748039    3.255869   36.336391
 C   40.901502    1.982036   35.820398
 C   40.404159    5.702723   35.998799
 C   40.978520    6.143142   37.198644
 N   40.832752    7.369374   37.648132
 C   40.096716    8.228293   36.923719
 C   39.521975    7.797258   35.694906
 N   39.692392    6.559101   35.264418
 C   38.699001    8.708219   34.857703
 O   38.510623    9.881604   35.146400
 N   38.197358    8.074302   33.769874
 C   37.372001    8.562920   32.765075
 C   36.945563    7.687933   31.765377
 C   36.122980    8.165305   30.762752
 C   35.755224    9.503370   30.793078
 N   36.156130   10.337996   31.735689
 C   36.939987    9.891150   32.695923
 N   39.935035    9.468532   37.386279
 C   43.428906    0.649044   32.534784
 H   43.308566    2.646089   33.382120
 H   44.673619    2.384722   32.266310
 H   42.687472    0.870248   31.767527
 H   44.202761    0.000081   32.111552
 H   46.400571    2.453257   35.405877
 H   46.287356    3.163448   33.789843
 H   45.052799    3.547242   35.012762
 H   44.938790    0.724491   36.043583
 H   43.470067    1.654434   35.649114
 H   44.359693   -1.031014   34.461639
 H   42.939728   -0.760351   35.502128
 H   40.627853    2.657343   32.528050
 H   41.021641    1.123980   36.463262
 H   40.360091    4.967435   33.446186
 H   40.748100    3.403562   37.405492
 H   41.598168    5.495569   37.803605
 H   40.357312    9.725174   38.260972
 H   39.391155   10.114690   36.826408
 H   38.461891    7.093178   33.718213
 H   37.257206    6.652233   31.784206
 H   37.239273   10.610296   33.443008
 H   35.774918    7.513527   29.976563
 H   35.113388    9.927276   30.033031
