56 
4acd_ligand_dft.xyz
 C   -4.869053    1.277737    0.934189
 N   -4.517219    0.792576    2.319813
 C   -3.692478    1.791603    3.061516
 C   -3.845274   -0.558397    2.270795
 C   -4.723953   -1.557278    1.518213
 N   -5.103182   -1.070050    0.208426
 S   -4.252068   -1.587764   -1.161728
 O   -3.951302   -2.979926   -0.902860
 O   -5.037316   -1.117924   -2.283171
 C   -2.727198   -0.675022   -1.132938
 C   -2.660937    0.570068   -1.754461
 C   -1.507694    1.334061   -1.624131
 C   -0.416184    0.870009   -0.875391
 C   -0.495913   -0.403400   -0.291635
 C   -1.638760   -1.178986   -0.421240
 C    0.809424    1.677380   -0.708725
 C    0.828077    3.073496   -0.804346
 N    1.918014    3.798743   -0.629755
 C    3.065065    3.148763   -0.351338
 C    3.062208    1.719773   -0.245362
 N    1.947151    1.034306   -0.417792
 C    4.321851    0.955280    0.056207
 O    5.373647    1.533887    0.312521
 N    4.162940   -0.390328    0.010058
 C    5.126071   -1.397094    0.209609
 C    4.760344   -2.713466   -0.075059
 C    5.684423   -3.726261    0.125105
 C    6.946430   -3.387010    0.604966
 N    7.306608   -2.134463    0.880102
 C    6.420831   -1.157325    0.688246
 N    4.165754    3.886233   -0.180190
 C   -5.725997    0.237077    0.213477
 H   -3.919792    1.444536    0.417976
 H   -5.395495    2.228615    1.046444
 H   -5.398369    0.673940    2.831484
 H   -3.500514    1.418136    4.068122
 H   -2.751579    1.923996    2.525424
 H   -4.234238    2.737100    3.107622
 H   -3.668438   -0.871472    3.302590
 H   -2.887422   -0.404453    1.766843
 H   -5.637454   -1.764057    2.093030
 H   -4.194401   -2.506411    1.415562
 H   -3.489153    0.917110   -2.364614
 H   -1.445940    2.281312   -2.149973
 H    0.360281   -0.781687    0.256196
 H   -1.684241   -2.175984    0.006584
 H   -0.081392    3.634656   -1.009728
 H    3.230805   -0.689399   -0.249483
 H    3.766281   -2.938412   -0.455321
 H    5.433200   -4.759318   -0.089785
 H    7.699145   -4.152505    0.775280
 H    6.745029   -0.149835    0.915010
 H    4.096926    4.886481   -0.286552
 H    5.037953    3.422946    0.047251
 H   -5.907772    0.559683   -0.813586
 H   -6.708723    0.155795    0.698541
