45 
4ad2_ligand_dft.xyz
 C    0.739367   -0.772506   -1.420007
 C    1.919203   -1.587201   -0.885695
 C    2.439354   -0.967267    0.407684
 C    2.724316    0.526942    0.256434
 C    1.478631    1.191233   -0.324324
 C    1.590446    2.677396   -0.565180
 O    1.512081   -2.913107   -0.702428
 O    3.560138   -1.670546    0.913089
 O    2.965524    1.109956    1.515765
 O    1.111958    0.575449   -1.555182
 O    0.261012    3.177933   -0.709469
 O   -3.879127   -1.238639   -0.818641
 C   -2.645545   -1.308164   -0.131528
 C   -1.624549   -0.691852   -1.093506
 O   -0.347628   -0.925452   -0.545101
 C   -1.919707    0.793493   -1.309413
 N   -2.009534    1.488675    0.013953
 C   -3.067964    0.930111    0.917805
 C   -2.751408   -0.539673    1.208110
 C   -1.554198   -0.712648    2.171252
 O   -0.730351    0.449590    2.114416
 H    0.465590   -1.107846   -2.426281
 H    2.707545   -1.510645   -1.655220
 H    1.666127   -1.085361    1.174675
 H    3.577300    0.676416   -0.428062
 H    0.694421    1.033011    0.422196
 H    2.178927    2.859137   -1.472840
 H    2.092220    3.139954    0.292063
 H    2.209673   -3.357418   -0.200862
 H    4.278993   -1.608665    0.267538
 H    3.638331    0.570744    1.954975
 H    0.320525    4.101806   -0.979115
 H   -4.478358   -1.911354   -0.474797
 H   -2.341199   -2.344164    0.058416
 H   -1.726855   -1.194533   -2.063501
 H   -1.127474    1.287754   -1.871196
 H   -2.882827    0.912176   -1.809839
 H   -1.117987    1.387941    0.522844
 H   -2.125068    2.492214   -0.137920
 H   -4.023936    1.020616    0.400035
 H   -3.075922    1.536446    1.824528
 H   -3.633927   -0.946363    1.714430
 H   -1.928742   -0.833707    3.193932
 H   -0.983264   -1.606755    1.898138
 H    0.086103    0.307204    2.608804
