46 
4ad3_ligand_dft.xyz
 C   -0.931705    0.304327   -1.069530
 C   -1.438375    1.632447   -0.508252
 C   -2.346248    1.380626    0.677628
 C   -3.486370    0.460793    0.270394
 C   -2.916902   -0.819560   -0.363533
 C   -3.994197   -1.668026   -1.026646
 O   -0.332054    2.435757   -0.136313
 O   -2.793632    2.641395    1.116875
 O   -4.209460    0.197113    1.445877
 O   -1.994615   -0.519731   -1.414398
 O   -4.967630   -1.963480   -0.039752
 C    2.161008    0.499715   -0.241847
 O    1.997296    1.517868   -1.182626
 C    1.202132   -0.681993   -0.485778
 O   -0.100964   -0.319389   -0.101268
 C    1.566446   -1.896276    0.376239
 O    1.471389   -1.567766    1.748023
 C    3.016677   -2.308334    0.177624
 N    3.847621   -1.125223    0.555437
 C    3.617535    0.053238   -0.351318
 C    4.638806    1.120735    0.006681
 O    5.872984    0.433575    0.079639
 H   -0.364437    0.466550   -1.990226
 H   -2.013365    2.128158   -1.301657
 H   -1.769371    0.878339    1.469418
 H   -4.106597    0.982461   -0.477690
 H   -2.418825   -1.402340    0.422675
 H   -3.541608   -2.581750   -1.432539
 H   -4.424338   -1.095880   -1.860314
 H   -0.687902    3.195224    0.348214
 H   -3.446673    2.487361    1.813570
 H   -4.872897   -0.477251    1.226071
 H   -5.709378   -2.418094   -0.454171
 H    1.971768    0.865156    0.778526
 H    1.240229    2.066930   -0.891561
 H    1.240188   -0.957368   -1.549813
 H    0.911612   -2.737320    0.116490
 H    0.601696   -1.165587    1.891020
 H    3.280091   -3.134368    0.840112
 H    3.243825   -2.571746   -0.857067
 H    3.577128   -0.875526    1.516409
 H    4.858592   -1.311722    0.554619
 H    3.823505   -0.310249   -1.363523
 H    4.379270    1.591488    0.967106
 H    4.620026    1.887890   -0.772599
 H    6.594757    1.057312    0.220440
