46 
4ad3_ligand_xtb.xyz
 C   -0.953507    0.333671   -1.077623
 C   -1.483146    1.673992   -0.547720
 C   -2.368419    1.409045    0.667511
 C   -3.498670    0.452029    0.269955
 C   -2.905147   -0.819639   -0.361597
 C   -3.994916   -1.696509   -0.986736
 O   -0.395302    2.505012   -0.219738
 O   -2.854077    2.643916    1.122095
 O   -4.218502    0.171553    1.439307
 O   -1.991661   -0.525917   -1.414284
 O   -4.879454   -2.108750    0.030914
 C    2.184125    0.538626   -0.208774
 O    2.048616    1.587660   -1.114521
 C    1.190761   -0.623848   -0.498239
 O   -0.110459   -0.252150   -0.100282
 C    1.561808   -1.867172    0.338323
 O    1.526993   -1.556633    1.711766
 C    3.000850   -2.304287    0.056271
 N    3.838803   -1.175479    0.494930
 C    3.628994    0.037543   -0.333723
 C    4.667145    1.074391    0.104934
 O    5.898604    0.382274    0.169292
 H   -0.397428    0.495948   -2.008916
 H   -2.091875    2.138973   -1.336476
 H   -1.766363    0.926585    1.454828
 H   -4.139614    0.957544   -0.472668
 H   -2.395761   -1.386190    0.431724
 H   -3.513742   -2.555135   -1.469668
 H   -4.517270   -1.112947   -1.755317
 H   -0.762420    3.248434    0.279655
 H   -3.584413    2.463879    1.727492
 H   -4.779999   -0.600952    1.273327
 H   -5.558088   -2.677342   -0.348952
 H    1.996484    0.881746    0.820831
 H    1.218257    2.065558   -0.924262
 H    1.216216   -0.866491   -1.568019
 H    0.860093   -2.677220    0.101682
 H    0.647580   -1.219856    1.923653
 H    3.235830   -3.188556    0.650894
 H    3.160149   -2.514742   -1.000591
 H    3.531198   -0.976614    1.462257
 H    4.854732   -1.353978    0.489656
 H    3.821771   -0.225924   -1.378585
 H    4.405208    1.485542    1.089534
 H    4.681257    1.889155   -0.622682
 H    6.629243    1.008148    0.184219
