61 
4af3_ligand_xtb.xyz
 N    6.189429   -0.742773   -1.190296
 C    6.807678   -0.631113    0.156904
 C    5.824198   -0.073535    1.193118
 N    5.042241    1.047106    0.695323
 C    5.601293    1.610375   -0.503762
 C    5.618289    0.570245   -1.644465
 C    5.184520   -1.826905   -1.233749
 C    3.637471    0.817818    0.605374
 C    2.760188    1.860533    0.717037
 C    1.380201    1.552452    0.533637
 N    1.020567    0.283422    0.285192
 C    1.937032   -0.638855    0.291549
 N    3.253691   -0.454383    0.404250
 N    0.421636    2.466426    0.585797
 C   -0.914930    2.201224    0.209341
 C   -1.360050    1.961531   -1.092806
 C   -2.731524    1.814870   -0.929319
 N   -3.040968    1.947233    0.372506
 N   -1.931566    2.188840    1.071207
 C   -3.761511    1.545478   -1.974453
 S    1.412419   -2.310039    0.139269
 C   -0.333708   -2.024146    0.377007
 C   -0.727468   -1.347536    1.522460
 C   -2.014425   -0.874123    1.612498
 C   -2.928639   -1.113425    0.584157
 C   -2.555166   -1.916641   -0.490101
 C   -1.247002   -2.349000   -0.607507
 N   -4.143296   -0.432497    0.652957
 C   -5.306001   -0.817325    0.072000
 O   -5.514676   -1.924563   -0.395897
 C   -6.356528    0.246406    0.121335
 C   -7.348709    0.288112   -1.011526
 C   -7.783161   -0.190513    0.329523
 H    6.939409   -0.998344   -1.837395
 H    7.678593    0.022993    0.073514
 H    7.148225   -1.619150    0.469211
 H    6.408957    0.263491    2.058049
 H    5.130778   -0.847853    1.525395
 H    6.606455    1.986524   -0.293690
 H    4.986202    2.453264   -0.822105
 H    4.587981    0.395276   -1.955875
 H    6.188643    0.946735   -2.494322
 H    4.339015   -1.551923   -0.571889
 H    4.820386   -1.953999   -2.250142
 H    5.628544   -2.759779   -0.896089
 H    3.091807    2.864274    0.922882
 H    0.647296    3.390048    0.929040
 H   -0.774564    1.918095   -1.992826
 H   -3.969505    0.476781   -2.050954
 H   -4.692367    2.053458   -1.730331
 H   -3.408872    1.894074   -2.944293
 H   -0.014486   -1.146083    2.308348
 H   -2.314436   -0.267178    2.451568
 H   -3.274966   -2.148450   -1.258345
 H   -0.929410   -2.902262   -1.479166
 H   -3.965242    0.594849    0.822306
 H   -6.035856    1.183426    0.555219
 H   -7.223380   -0.450966   -1.788397
 H   -7.682158    1.253966   -1.360383
 H   -8.424351    0.437015    0.930240
 H   -7.948409   -1.250345    0.451244
