30 
4afg_ligand_dft.xyz
 C    2.755556    1.277163    0.737334
 N    2.490922    0.000000    1.510345
 C    2.755556   -1.277163    0.737334
 C    2.063997   -1.184731   -0.632375
 C    2.675326    0.000000   -1.406079
 C    2.063997    1.184731   -0.632375
 C    0.631369    0.713933   -0.448599
 C   -0.520265    1.425004   -0.261915
 C   -1.736656    0.710046   -0.085665
 N   -2.889060    1.416122    0.081640
 C   -3.982018    0.712153    0.233408
 C   -3.982018   -0.712153    0.233409
 N   -2.889060   -1.416121    0.081640
 C   -1.736656   -0.710046   -0.085665
 C   -0.520265   -1.425004   -0.261915
 C    0.631369   -0.713933   -0.448599
 H    2.370247    2.094961    1.350066
 H    3.839464    1.373688    0.639948
 H    3.025545    0.000000    2.382482
 H    1.497385    0.000000    1.769970
 H    3.839464   -1.373687    0.639948
 H    2.370247   -2.094961    1.350066
 H    2.161398   -2.148855   -1.135818
 H    2.322220    0.000000   -2.439917
 H    3.770299    0.000000   -1.415678
 H    2.161398    2.148855   -1.135818
 H   -0.557217    2.510366   -0.261516
 H   -4.914302    1.255275    0.366310
 H   -4.914303   -1.255275    0.366310
 H   -0.557217   -2.510367   -0.261516
