56 
4agd_ligand_dft.xyz
 C  -12.667023   70.546100  -37.987244
 C  -17.510682   79.003734  -37.698695
 C  -16.298377   78.691649  -38.316567
 C  -17.715050   76.724124  -36.856501
 C  -15.838665   71.563348  -36.292894
 C  -18.188380   78.023075  -36.987647
 C  -16.508887   76.410227  -37.470379
 C  -15.723602   75.177836  -37.544209
 C  -14.525044   75.504634  -38.357057
 C  -14.824040   69.141276  -36.185313
 C  -17.118864   71.408175  -35.528499
 C  -16.060855   73.990188  -36.965045
 C  -13.882815   71.154767  -37.374304
 C  -15.818517   77.399695  -38.191344
 C  -15.412532   72.729627  -36.942517
 C  -14.862280   70.576508  -36.553477
 N  -14.220027   72.436332  -37.576023
 N  -14.649759   76.831166  -38.701505
 N  -15.250737   68.779388  -34.924792
 O  -13.571367   74.805211  -38.701793
 O  -14.448425   68.290328  -36.981227
 F  -19.355141   78.343014  -36.398856
 H  -12.939281   69.970323  -38.877076
 H  -11.946050   71.317857  -38.271808
 H  -12.192135   69.847583  -37.294932
 H  -17.933519   79.999647  -37.764268
 H  -15.755104   79.446017  -38.876567
 H  -18.289184   75.999382  -36.288716
 H  -17.964957   71.832776  -36.078534
 H  -17.333813   70.351815  -35.350649
 H  -17.074597   71.909679  -34.553983
 H  -16.997356   73.994819  -36.408643
 H  -13.714560   73.149982  -38.113159
 H  -13.958184   77.299944  -39.264609
 H  -15.149740   67.778462  -34.799262
 C  -15.076331   69.568568  -33.713816
 C  -16.180805   69.239888  -32.696214
 N  -16.140339   69.983461  -31.449321
 C  -14.921733   69.766606  -30.675370
 C  -16.511172   71.387937  -31.578448
 C  -18.012032   71.587060  -31.767551
 C  -15.154417   69.900073  -29.172923
 H  -14.088124   69.377169  -33.271273
 H  -15.099249   70.625022  -33.983737
 H  -17.151958   69.397000  -33.176528
 H  -16.130702   68.169307  -32.454425
 H  -14.575927   68.746871  -30.882281
 H  -14.103219   70.441171  -30.987427
 H  -16.212685   71.896792  -30.657095
 H  -15.957544   71.895165  -32.391210
 H  -18.252062   72.655002  -31.806480
 H  -18.376684   71.134080  -32.695258
 H  -18.557202   71.133582  -30.934776
 H  -14.232761   69.681001  -28.623403
 H  -15.470978   70.910545  -28.894453
 H  -15.932528   69.202011  -28.850919
