24 
4ai8_ligand_dft.xyz
 O    4.445515    0.516292   -0.048264
 C    3.318939   -0.202623    0.026719
 O    3.348925   -1.402073    0.098665
 C    2.013586    0.588142    0.002705
 C    0.843943   -0.363945    0.223542
 C   -0.486204    0.276304   -0.028225
 O   -0.698299    1.349160   -0.560376
 N   -1.595422   -0.454616    0.423960
 N   -2.832200    0.068736   -0.030093
 C   -3.410366   -0.703668   -1.173126
 C   -3.788943    0.273406    1.099457
 H    4.265262    1.464646   -0.105178
 H    1.917715    1.098652   -0.962486
 H    2.031840    1.368840    0.771577
 H    0.866490   -0.780857    1.236453
 H    0.948043   -1.224596   -0.450090
 H   -1.569017   -1.458877    0.556766
 H   -2.515288    0.996674   -0.392436
 H   -2.665047   -0.748018   -1.967345
 H   -3.670884   -1.704421   -0.824580
 H   -4.304312   -0.185173   -1.521538
 H   -4.062063   -0.700804    1.506651
 H   -3.292480    0.878818    1.856440
 H   -4.671754    0.783551    0.712064
