17 
4aj2_ligand_xtb.xyz
 C    7.168492   -0.809786   64.982578
 C    7.917974   -0.510019   63.855463
 C    7.307113    0.033753   62.740868
 C    5.941837    0.281427   62.742799
 C    5.174690   -0.011678   63.875886
 C    5.810970   -0.560582   64.991045
 C    3.747072    0.232218   63.909420
 N    2.896619    0.269202   62.905561
 N    1.701969    0.502408   63.421615
 N    1.749721    0.617977   64.679384
 N    3.023525    0.450463   65.046251
Cl    5.218003    0.972709   61.346349
 H    7.641154   -1.239423   65.852166
 H    8.979510   -0.702883   63.843771
 H    5.229121   -0.817176   65.864602
 H    7.880316    0.270679   61.859145
 H    3.316915    0.520711   66.007097
