33 
4ajk_ligand_dft.xyz
 C    2.636951    2.042547    0.776642
 C    1.283055    2.189447    0.549935
 C    1.118533   -0.052698   -0.380870
 C    3.258966    0.840755    0.427866
 C    0.519508    1.153070   -0.025054
 C    2.485460   -0.183457   -0.144327
 C    4.881272   -0.631741    0.181992
 C   -1.826326    0.585785   -0.711870
 C   -5.068020   -0.800438    0.731813
 C    6.246040   -1.240743    0.226910
 C   -3.207813    1.226088   -0.752876
 C   -4.265540    0.266395   -1.297093
 N    4.605368    0.556011    0.598086
 N   -4.972689   -1.927158    1.531144
 N   -0.852972    1.410250   -0.215153
 N   -4.433550   -0.922924   -0.485008
 O   -1.619674   -0.557748   -1.093139
 O   -5.651883    0.212275    1.088023
 S    3.516368   -1.550185   -0.472956
 H    3.222552    2.840766    1.219543
 H    0.795248    3.122613    0.821221
 H    0.530066   -0.844896   -0.820745
 H    6.937114   -0.515208    0.659689
 H    6.252892   -2.149022    0.838375
 H    6.591942   -1.508779   -0.776776
 H   -3.165423    2.129228   -1.375970
 H   -3.503329    1.543733    0.254267
 H   -3.998765   -0.055362   -2.306690
 H   -5.225846    0.783087   -1.341206
 H   -5.608898   -1.907795    2.314635
 H   -4.904683   -2.823569    1.070857
 H   -1.161706    2.325606    0.079223
 H   -3.646226   -1.556958   -0.530093
