43 
4ajw_ligand_xtb.xyz
 C    2.373795    0.836439    0.191301
 N    3.486953    0.066826    0.322680
 C    4.547345    0.019343   -0.658962
 C    4.339839   -1.199916   -1.568659
 O    4.293384   -2.390195   -0.813988
 C    3.268434   -2.347968    0.153782
 C    3.449973   -1.154615    1.100519
 N    1.369746    0.534105    1.083212
 C    0.304532    1.259937    1.079797
 N    0.102205    2.284598    0.237044
 C    1.054773    2.670603   -0.734156
 C    2.236302    1.873983   -0.701361
 O    0.802994    3.594950   -1.480326
 C   -1.953451    0.401127    1.211773
 C   -0.816372    0.921274    2.024865
 N   -2.011589   -0.890654    0.766345
 N   -2.941422    1.140525    0.797033
 C   -3.734629    0.311612    0.044795
 C   -3.162338   -0.982112    0.019213
 C   -3.759082   -2.028249   -0.666457
 C   -4.937095   -1.751345   -1.330260
 C   -5.506518   -0.476493   -1.313076
 C   -4.921517    0.568902   -0.630934
 C   -1.065867   -1.938782    1.029536
 H    5.496155   -0.091781   -0.123032
 H    4.581569    0.932479   -1.247100
 H    5.170886   -1.314588   -2.265820
 H    3.403093   -1.073842   -2.133881
 H    3.324967   -3.292608    0.696623
 H    2.287935   -2.269358   -0.342520
 H    2.631768   -1.095953    1.815184
 H    4.402341   -1.252983    1.630786
 H   -0.781654    2.782057    0.243762
 H    2.995027    2.135294   -1.417456
 H   -1.149755    1.822480    2.540162
 H   -0.472340    0.184344    2.749182
 H   -3.328113   -3.018469   -0.682620
 H   -5.432674   -2.540151   -1.876395
 H   -6.429139   -0.311590   -1.849330
 H   -5.357352    1.554481   -0.614435
 H   -0.055110   -1.529824    1.047236
 H   -1.273864   -2.421745    1.988957
 H   -1.134762   -2.686513    0.240720
