52 
4alg_ligand_xtb.xyz
 O   -4.900918    1.725092   -0.373615
 C   -3.705037    1.891005   -0.277324
 N   -2.696872    0.963258   -0.495143
 C   -2.892126   -0.337428   -1.119058
 C   -3.222649   -1.388456   -0.081991
 N   -2.376144   -2.407364    0.000525
 C   -2.624830   -3.365707    0.877981
 C   -3.720611   -3.355358    1.724600
 C   -4.597378   -2.283566    1.646523
 C   -4.349163   -1.279809    0.726176
 C   -3.957162   -0.296578   -2.215858
 N   -3.083420    3.055568    0.102446
 C   -1.721465    2.865556    0.161716
 C   -1.477463    1.532558   -0.177697
 C   -0.670965    3.737112    0.450753
 N    0.567923    3.328875    0.414521
 C    0.836826    2.034261    0.156240
 C   -0.155495    1.039594   -0.112242
 C    0.245140   -0.307402   -0.225038
 C    2.191423    1.646159    0.171873
 C    2.573154    0.344339   -0.012661
 C    1.572747   -0.656468   -0.170631
 O    2.032002   -1.933953   -0.222481
 C    1.099031   -2.987007   -0.283365
 C    3.985664   -0.027639   -0.000803
 C    4.922035    0.252769    0.961781
 C    4.827580    0.953324    2.265039
 O    6.108187   -0.251092    0.583295
 N    5.976144   -0.847696   -0.628557
 C    4.729322   -0.735863   -0.994916
 C    4.243864   -1.259943   -2.293221
 H   -1.941878   -0.605289   -1.589274
 H   -1.907130   -4.176309    0.896335
 H   -3.881172   -4.160174    2.424660
 H   -5.462999   -2.232922    2.290708
 H   -5.005874   -0.429814    0.630278
 H   -4.024070   -1.279008   -2.676519
 H   -3.680310    0.431343   -2.975420
 H   -4.926468   -0.024428   -1.811318
 H   -3.578179    3.904974    0.312625
 H   -0.842848    4.775774    0.696986
 H   -0.503870   -1.077574   -0.295386
 H    2.927970    2.416957    0.334045
 H    1.690941   -3.901205   -0.278586
 H    0.431101   -2.979058    0.582255
 H    0.498480   -2.945206   -1.196948
 H    5.320159    1.923572    2.208098
 H    3.783486    1.100840    2.526327
 H    5.324457    0.369632    3.037455
 H    3.569538   -2.096458   -2.122088
 H    3.697681   -0.484059   -2.827185
 H    5.088754   -1.593178   -2.888450
