30 
4alu_ligand_xtb.xyz
Cl    4.804202    0.752949    1.165692
 C    4.352829   -0.703113    0.331933
 C    5.295796   -1.718456    0.280273
 C    4.988159   -2.925643   -0.319518
 C    3.726018   -3.128107   -0.854734
 C    2.787921   -2.118005   -0.799468
 C    3.082017   -0.880916   -0.219769
 C    2.011921    0.127107   -0.219607
 N    0.789727   -0.299662   -0.141385
 C   -0.170540    0.652359   -0.160256
 C   -1.595435    0.531261   -0.076541
 C   -2.482819   -0.533015    0.043241
 C   -3.824602   -0.224498    0.091165
Br   -5.091177   -1.636931    0.250015
 C   -4.301468    1.087146    0.026890
 C   -3.429130    2.148814   -0.090689
 C   -2.072612    1.859324   -0.142904
 O   -1.058662    2.745770   -0.258445
 C    0.081818    2.014516   -0.268859
 C    1.427825    2.519787   -0.381421
 O    1.821922    3.656196   -0.498004
 N    2.329707    1.445662   -0.346819
 H    6.268729   -1.556715    0.717473
 H    5.731525   -3.706717   -0.358531
 H    3.475218   -4.071839   -1.313236
 H    1.798567   -2.256550   -1.204832
 H   -2.124549   -1.548098    0.096185
 H   -5.364780    1.264748    0.070377
 H   -3.781052    3.165882   -0.140870
 H    3.307785    1.712617   -0.403245
