42 
4alx_ligand_dft.xyz
 N    0.747412    1.342374    0.485185
 C    0.187494    2.562057   -0.169418
 C   -1.334722    2.517241   -0.205304
 C    1.724851   -1.808502    0.867704
 C    0.379831    0.020810   -0.193639
 C    1.191102   -0.213108   -1.475855
 C    2.608924   -0.668790   -1.167699
 C    2.561255   -1.980567   -0.371234
 C    0.748032   -0.908065    0.946417
 C    0.130302   -0.319877    2.182387
 C    0.397581    1.185652    1.960748
 C   -1.103256    0.033114   -0.478547
 C   -1.855007    1.134388   -0.471881
 C   -3.332339    0.954427   -0.711060
 C   -3.142620   -1.356743   -0.096395
 C   -1.778730   -1.280902   -0.771424
 O   -3.577971   -2.352788    0.405856
 O   -3.851555   -0.207487   -0.070236
 O    3.195026    0.413637   -0.448459
 C    4.570305    0.265089   -0.134877
 H    1.777452    1.355749    0.389764
 H    0.560770    3.430328    0.377983
 H    0.607067    2.591833   -1.176974
 H   -1.674317    3.208762   -0.985572
 H   -1.766780    2.899489    0.728519
 H    1.992717   -2.379099    1.753689
 H    1.196737    0.686548   -2.099459
 H    0.683736   -0.990745   -2.055390
 H    3.166907   -0.822457   -2.100913
 H    3.568328   -2.304847   -0.092877
 H    2.167766   -2.770667   -1.023509
 H   -0.945538   -0.509613    2.245086
 H    0.597108   -0.679913    3.100166
 H    1.253430    1.548053    2.530963
 H   -0.464765    1.812663    2.181878
 H   -3.544808    0.903626   -1.787913
 H   -3.907013    1.786858   -0.299345
 H   -1.933784   -1.399886   -1.853725
 H   -1.199741   -2.140691   -0.428455
 H    4.725550   -0.465851    0.667332
 H    4.927748    1.240519    0.197507
 H    5.137527   -0.041513   -1.021891
