21 
4amw_ligand_xtb.xyz
 C    1.053800   -1.691695   -0.119076
 C    1.704019   -0.579535    0.207591
 O    3.025545   -0.578494    0.524666
 C    1.001038    0.758160    0.200203
 O    1.903637    1.746261   -0.243100
 C   -0.212188    0.647354   -0.734638
 O   -0.934781    1.839379   -0.793311
 C   -1.030013   -0.586307   -0.307211
 O   -0.289375   -1.763928   -0.426468
 C   -1.626627   -0.522188    1.116240
 O   -1.995391    0.791882    1.470083
 F   -2.070813   -0.733800   -1.193408
 H    1.513145   -2.664018   -0.145699
 H    3.332920    0.336570    0.434539
 H    0.653858    1.023440    1.215623
 H    1.381068    2.465518   -0.619531
 H    0.147633    0.456839   -1.754852
 H   -1.496399    1.898517   -0.006221
 H   -2.488484   -1.198511    1.123878
 H   -0.866757   -0.911024    1.807839
 H   -2.556925    0.761340    2.251487
