52 
4amz_ligand_xtb.xyz
 C   -1.719089    0.937141    0.128331
 O   -2.009554    1.402563   -0.970344
 C   -0.631032    1.619725    0.959579
 C   -0.781112    3.151795    0.867446
 C    0.179672    3.591866   -0.247127
 C    1.121483    2.440035   -0.373674
 C    0.697027    1.362085    0.282814
 C   -4.615979    0.065771   -0.412482
 O   -4.440590    0.678216   -1.664206
 C   -5.933132   -0.716827   -0.554942
 O   -5.826511   -1.714304   -1.534163
 C   -3.416878   -0.844595   -0.051876
 C   -3.769895   -1.981779    0.907533
 C   -2.452040   -2.264454    1.613189
 C   -1.910676   -0.857894    1.839084
 N   -2.332847   -0.132115    0.647172
 C    1.363239    0.049488    0.417321
 O    1.164982   -0.692617    1.368064
 N    2.198669   -0.274783   -0.593749
 C    3.044312   -1.449318   -0.563342
 C    4.495784   -1.067595   -0.427112
 C    4.902408   -0.301122    0.659023
 C    6.224599    0.080108    0.791430
 C    7.155656   -0.302565   -0.160441
 C    6.758239   -1.066968   -1.243345
 C    5.432797   -1.444334   -1.378328
 H   -0.640480    1.268082    1.989103
 H   -0.486607    3.600749    1.816361
 H   -1.808530    3.437739    0.651701
 H   -0.351041    3.726725   -1.192723
 H    0.694734    4.524794   -0.014268
 H    2.034091    2.529020   -0.940225
 H   -4.736061    0.822018    0.382819
 H   -3.545555    1.080893   -1.664549
 H   -6.227899   -1.207106    0.372026
 H   -6.709724    0.010612   -0.830930
 H   -5.467073   -1.277331   -2.318196
 H   -3.019898   -1.248810   -0.993023
 H   -4.179459   -2.837868    0.378224
 H   -4.498889   -1.633127    1.640219
 H   -1.778145   -2.821862    0.962396
 H   -2.575999   -2.813134    2.543828
 H   -0.825561   -0.859257    1.941059
 H   -2.366235   -0.408252    2.729870
 H    2.342370    0.381438   -1.343611
 H    2.885538   -2.038962   -1.471797
 H    2.720519   -2.032888    0.304271
 H    4.173692   -0.009159    1.401455
 H    6.531014    0.674179    1.639713
 H    8.188854   -0.005837   -0.057188
 H    7.480737   -1.368407   -1.987478
 H    5.125941   -2.040206   -2.226311
