66 
4anx_ligand_dft.xyz
 C   -4.766604   -1.121932    1.925317
 C   -4.753998   -2.001551    0.664455
 C   -5.487272   -1.302137   -0.483633
 C   -3.329845   -2.405895    0.323563
 C   -2.761296   -3.520489    0.945872
 C   -1.448230   -3.897740    0.699137
 C   -2.532479   -1.682695   -0.567038
 C   -1.214591   -2.049777   -0.814585
 C   -0.648627   -3.159680   -0.178119
 C    0.744615   -3.610522   -0.447087
 N    0.930436   -4.927020   -0.489746
 C    2.128388   -5.394963   -0.848813
 C    3.148328   -4.534338   -1.212889
 N    3.016041   -3.211166   -1.107607
 C    1.846613   -2.733040   -0.683358
 N    1.732672   -1.355273   -0.533558
 C    1.204625   -0.806454    0.712530
 C    2.327683   -0.459465    1.692652
 C    2.740395   -0.495016   -1.144522
 C    3.879281   -0.153994   -0.179731
 N    3.361757    0.376879    1.085571
 S    3.364487    2.017278    1.335358
 O    2.765678    2.233683    2.642158
 O    4.698118    2.488881    1.005368
 C    2.262717    2.724771    0.113701
 C    0.889357    2.676406    0.329994
 C    2.793239    3.232135   -1.066917
 C    1.919847    3.675659   -2.056063
 C    0.545539    3.589107   -1.868380
 C    0.010181    3.090508   -0.673211
 C   -1.451297    2.976710   -0.489277
 C   -2.049617    1.838488    0.054400
 N   -3.359846    1.701355    0.204504
 C   -4.114739    2.735656   -0.202013
 N   -5.459478    2.592721   -0.089056
 N   -3.662999    3.884002   -0.734444
 C   -2.347232    3.980593   -0.868313
 H   -4.282123   -1.627488    2.767258
 H   -4.234770   -0.184030    1.731218
 H   -5.797136   -0.886779    2.219334
 H   -5.299876   -2.926375    0.895265
 H   -5.056428   -0.315692   -0.686881
 H   -5.446781   -1.891130   -1.405744
 H   -6.541226   -1.156526   -0.220851
 H   -3.362302   -4.106509    1.637955
 H   -1.030318   -4.777964    1.176896
 H   -2.941238   -0.816286   -1.077073
 H   -0.616621   -1.465471   -1.507129
 H    2.252238   -6.473615   -0.876821
 H    4.102349   -4.904274   -1.579852
 H    0.524764   -1.517893    1.180867
 H    0.622836    0.089368    0.470483
 H    2.819918   -1.383834    2.021358
 H    1.938641    0.045714    2.577946
 H    2.234592    0.425651   -1.461518
 H    3.140569   -0.992550   -2.028139
 H    4.570190    0.571136   -0.614822
 H    4.446361   -1.062622    0.049546
 H    0.508551    2.331883    1.287074
 H    3.868797    3.282266   -1.196109
 H    2.314344    4.074925   -2.985040
 H   -0.126413    3.896064   -2.664916
 H   -1.449678    0.982273    0.361196
 H   -5.809735    1.834404    0.473971
 H   -6.033449    3.409476   -0.220415
 H   -1.978170    4.916368   -1.286670
