36 
4aof_ligand_xtb.xyz
 C   -7.231953   -1.843039   -0.133021
 C   -5.741791   -1.612433   -0.252401
 O   -4.951976   -2.432163   -0.631837
 N   -5.389967   -0.333139    0.131084
 C   -4.129793    0.193510    0.148642
 N   -3.944311    1.462362    0.563696
 N   -3.026427   -0.445539   -0.215410
 N   -2.071615    0.458866   -0.023751
 C   -0.758957    0.309545   -0.243440
 C   -2.635565    1.636504    0.455339
 C   -1.794812    2.720302    0.722449
 C   -0.453757    2.581375    0.493259
 C    0.085453    1.367036    0.004520
 C    1.525422    1.233619   -0.239345
 C    2.209861    0.046206    0.023097
 C    2.281140    2.293361   -0.752593
 N    3.575826    2.229988   -0.997891
 C    4.212733    1.099342   -0.750019
 C    3.563632   -0.010522   -0.236511
 S    4.469350   -1.521012    0.117056
 C    5.249477   -1.161569    1.717188
 O    5.501347   -1.680245   -0.867425
 O    3.519445   -2.583041    0.298201
 H   -7.460221   -2.860133   -0.436897
 H   -7.553661   -1.694443    0.895448
 H   -7.770921   -1.147585   -0.772709
 H   -6.102037    0.312213    0.442944
 H   -0.440254   -0.644055   -0.632772
 H   -2.224993    3.631840    1.101402
 H    0.215096    3.399817    0.707927
 H    1.716869   -0.825871    0.425226
 H    1.812904    3.236706   -0.999753
 H    5.268494    1.068245   -0.976966
 H    5.828283   -2.031177    2.003059
 H    5.893195   -0.300854    1.592349
 H    4.466056   -0.972118    2.439273
