42 
4aqh_ligand_dft.xyz
 C   -6.246385   -1.217650   -0.279810
 C   -5.581123    0.157121   -0.296290
 C   -6.316497    1.124433    0.626852
 C   -5.476610    0.731469   -1.707873
 O   -4.256007    0.078732    0.311400
 C   -3.299962   -0.698302   -0.219085
 O   -3.373259   -1.386419   -1.216844
 N   -2.174705   -0.628448    0.555711
 C   -0.830722   -0.951239    0.093776
 C   -0.288332   -0.007922    1.212814
 C   -1.746661    0.455067    1.434755
 N    0.627130    1.036387    0.850839
 C    1.915553    0.855779    0.453093
 N    2.579250    1.888804    0.019457
 C    3.898844    1.747500   -0.380410
 O    4.558737    2.684134   -0.792492
 C    4.490987    0.380588   -0.287559
 C    5.802496    0.099474   -0.655991
 C    6.269050   -1.202615   -0.539653
 C    5.397669   -2.179235   -0.056191
 N    4.136025   -1.942029    0.304985
 C    3.721042   -0.684048    0.181424
 N    2.412185   -0.417325    0.549741
 H   -5.720759   -1.915672   -0.933050
 H   -6.257410   -1.620322    0.738257
 H   -7.282147   -1.124458   -0.622388
 H   -6.353143    0.730388    1.646995
 H   -5.813008    2.095906    0.646790
 H   -7.341544    1.271686    0.273307
 H   -4.949932    1.691359   -1.688101
 H   -4.945916    0.047524   -2.371660
 H   -6.481893    0.902179   -2.106682
 H   -0.617764   -0.589018   -0.918840
 H   -0.572397   -2.011962    0.165642
 H    0.089441   -0.565756    2.077120
 H   -2.128745    0.397271    2.456501
 H   -1.956427    1.453084    1.027749
 H    0.280805    1.964992    0.658270
 H    6.420940    0.911702   -1.024579
 H    7.283882   -1.466609   -0.815074
 H    5.729600   -3.209476    0.047440
 H    1.865362   -1.198653    0.881549
