44 
4asy_ligand_dft.xyz
 C   -4.477862    0.091761   -0.134194
 C   -5.637816   -0.338761    0.498229
 C   -5.894303   -1.701482    0.641706
 C   -4.986982   -2.630363    0.144843
 C   -3.823442   -2.196798   -0.487055
 C   -3.557119   -0.835950   -0.627162
 C   -2.302351   -0.358658   -1.325902
 N   -1.485151    0.547809   -0.515968
 C   -0.659038    0.008881    0.477479
 N   -0.660268   -1.193878    0.882823
 C   -1.535126    1.892190   -0.849832
 O   -2.293053    2.339913   -1.686393
 N   -0.690467    2.739685   -0.146359
 C    0.354468    2.385510    0.675380
 O    1.179330    3.185480    1.053041
 C    0.327906    0.946057    1.171002
 N    1.662613    0.387588    1.163532
 O    1.598063    0.655633   -1.065974
 C    2.203764    0.239677   -0.081679
 C    3.504549   -0.482855   -0.225290
 C    3.741233   -1.695798    0.424923
 C    4.928383   -2.384918    0.198757
 C    5.882957   -1.861550   -0.669521
 C    5.642617   -0.656982   -1.327355
 C    2.369373    0.319745    2.430924
 C    4.449733    0.024412   -1.117249
 H   -4.286408    1.153447   -0.263620
 H   -6.348491    0.390725    0.875225
 H   -6.800890   -2.036243    1.136664
 H   -5.179372   -3.693632    0.251679
 H   -3.117894   -2.928141   -0.877378
 H   -2.563060    0.194678   -2.228446
 H   -1.671248   -1.202325   -1.624049
 H   -1.363844   -1.769660    0.425741
 H   -0.709444    3.699576   -0.467620
 H    0.008439    1.000275    2.217107
 H    2.984389   -2.106899    1.087514
 H    5.105180   -3.333578    0.696373
 H    6.812802   -2.396088   -0.839737
 H    6.382188   -0.254229   -2.012613
 H    2.299203    1.288215    2.935875
 H    3.422476    0.103379    2.258295
 H    1.941491   -0.461520    3.068497
 H    4.237005    0.950679   -1.641106
