42 
4at3_ligand_xtb.xyz
 C    3.189689    2.910649    1.649801
 C    2.353052    3.208740    0.589479
 C    3.664798    1.621294    1.802000
 C    2.010250    2.215737   -0.308362
 C   -1.763025   -0.997692    0.123145
 C    3.326963    0.610916    0.910055
 C    2.494184    0.919100   -0.167847
 C   -0.553987   -0.514069   -0.463879
 C   -2.747743   -0.045353   -0.100555
 C   -2.094554   -2.223435    0.853827
 C   -4.896377    0.906122   -0.001570
 C    3.864240   -0.772703    1.136203
 C    4.784214   -1.252417    0.009442
 C    4.018914   -1.804588   -1.187896
 C    3.225557   -0.754823   -1.959697
 C    2.082209   -0.089460   -1.197513
 N   -0.630393    0.645897   -1.052009
 N   -1.117440   -3.129393    1.037210
 N   -6.166489    0.744562    0.432550
 N   -4.043555   -0.125275    0.300913
 O   -3.231245   -2.422347    1.285366
 O   -4.502557    1.878628   -0.619943
 S   -2.143523    1.300276   -0.969891
 S    0.974454   -1.364687   -0.447099
 H    3.467980    3.676319    2.359080
 H    1.966372    4.208531    0.461014
 H    4.312169    1.388215    2.636037
 H    1.346802    2.442179   -1.129486
 H    4.420984   -0.777755    2.075653
 H    3.035346   -1.477836    1.238280
 H    5.426552   -2.045909    0.398522
 H    5.428611   -0.429887   -0.309705
 H    3.334747   -2.586139   -0.847551
 H    4.729193   -2.265692   -1.878977
 H    3.897828    0.040683   -2.293507
 H    2.805913   -1.233365   -2.848360
 H    1.421391    0.404023   -1.914948
 H   -0.181816   -2.986722    0.699392
 H   -1.342411   -3.970336    1.542146
 H   -6.450505   -0.067063    0.949319
 H   -6.832971    1.471912    0.246525
 H   -4.255835   -0.989482    0.814583
