44 
4at4_ligand_xtb.xyz
 C    5.045757    1.653905   -0.865552
 C    5.419310    0.522397   -0.096424
 C    6.779763    0.483593    0.253666
 N    7.661978    1.434266   -0.024516
 N    5.936413    2.611079   -1.124818
 N    3.823506    1.811469   -1.407240
 C    7.173814    2.459788   -0.687516
 C    4.717908   -0.647303    0.343539
 C    3.282259   -0.904153    0.192424
 C    2.832456   -2.110000   -0.339148
 C    1.482035   -2.357597   -0.472878
 C    2.338042    0.032237    0.610897
 C    0.983697   -0.208895    0.480490
 C    0.543740   -1.407014   -0.073682
 N   -0.810791   -1.721458   -0.235457
 C   -1.889963   -0.895791   -0.056658
 O   -1.828847    0.266031    0.263379
 N   -3.081065   -1.564789   -0.295845
 C   -4.366367   -1.053895   -0.214427
 C   -4.668761    0.275326    0.071532
 C   -5.436388   -1.927476   -0.440606
 C   -6.753217   -1.527629   -0.390475
 C   -7.040336   -0.204547   -0.104783
 C   -5.993584    0.679552    0.123753
 C   -6.338549    2.113274    0.420211
 F   -6.937998    2.708745   -0.629584
 F   -5.283693    2.869505    0.733326
 F   -7.204972    2.219433    1.444692
 F   -5.146362   -3.222179   -0.720854
 S    7.192182   -0.980515    1.090864
 C    5.553341   -1.518245    0.968142
 H    3.069315    1.185213   -1.186475
 H    3.644217    2.671719   -1.894272
 H    7.862910    3.262345   -0.912820
 H    3.549972   -2.850003   -0.659672
 H    1.148740   -3.297071   -0.891894
 H    2.667990    0.951572    1.073435
 H    0.267644    0.525148    0.807660
 H   -0.978180   -2.660836   -0.568164
 H   -3.042343   -2.549182   -0.524221
 H   -3.867221    0.972563    0.252998
 H   -7.534403   -2.247216   -0.573078
 H   -8.061511    0.137603   -0.057946
 H    5.285915   -2.460550    1.405460
