23 
4aua_ligand_dft.xyz
 C    3.936028   -0.844646   -0.167325
 C    2.797070   -1.459933    0.241785
 C    1.584254   -0.695624    0.191405
 C    1.604432    0.687896   -0.277134
 C    2.837502    1.293696   -0.690299
 C    3.956673    0.527797   -0.631884
 C   -0.346494    0.143629    0.281271
 N    0.360173   -1.046187    0.511153
 C   -1.390875    0.485829    1.361523
 C   -1.927145    0.033882    0.076870
 C   -2.548619   -1.296675   -0.105611
 C   -3.565712   -1.091820   -0.961333
 C   -3.538889    0.331311   -1.306332
 N   -2.590779    1.000573   -0.737271
 N    0.395435    1.199199   -0.247774
 O   -1.532329    0.880477    2.465388
 H    4.876575   -1.387176   -0.148983
 H    2.782367   -2.485714    0.593058
 H    2.849925    2.321918   -1.034173
 H    4.911420    0.944517   -0.938331
 H   -2.208262   -2.206235    0.367504
 H   -4.265357   -1.824983   -1.341267
 H   -4.231178    0.826710   -1.981279
