40 
4auy_ligand_xtb.xyz
 O   -2.902958    3.435321   -0.411178
 C   -2.384317    2.591731    0.597500
 C   -2.326181    1.155536    0.070721
 O   -1.670694    0.404748    1.077822
 C   -3.722462    0.584518   -0.206984
 O   -4.393104    1.252546   -1.248226
 C   -3.586231   -0.887389   -0.618502
 O   -4.853452   -1.481578   -0.770895
 C   -2.832286   -1.662957    0.465764
 O   -3.588813   -1.752878    1.640386
 O    7.760308    1.453736    0.235356
 C    7.452639    0.108255   -0.071809
 C    6.023834   -0.156849   -0.095257
 C    4.826399   -0.276415   -0.121550
 C    3.426539   -0.480648   -0.151403
 C    2.628239   -0.057539    0.908831
 C    1.260614   -0.260485    0.890673
 C    0.674152   -0.902447   -0.193182
 O   -0.668500   -1.172184   -0.313980
 C   -1.508406   -0.953243    0.785446
 C    1.466206   -1.317333   -1.263698
 C    2.826943   -1.107721   -1.245649
 H   -2.891253    4.345139   -0.096346
 H   -3.019391    2.613769    1.492461
 H   -1.369065    2.891782    0.881846
 H   -1.745163    1.136806   -0.864608
 H   -4.312405    0.634844    0.724364
 H   -4.141252    2.186795   -1.214230
 H   -3.020095   -0.938277   -1.560316
 H   -5.380088   -0.874725   -1.306069
 H   -2.593714   -2.667712    0.083248
 H   -4.490766   -1.969882    1.362634
 H    7.251904    2.029020   -0.346764
 H    7.928596   -0.491910    0.710850
 H    7.886425   -0.176131   -1.045353
 H    3.086297    0.435635    1.753449
 H    0.655959    0.091050    1.711262
 H   -1.089009   -1.385673    1.705211
 H    0.988156   -1.806654   -2.097467
 H    3.438470   -1.433641   -2.073851
