49 
4av5_ligand_xtb.xyz
 O    5.819783   -1.965746   -0.936601
 C    4.524218   -1.721448   -0.462875
 C    4.550537   -1.248291    0.992831
 O    5.295548   -2.182333    1.738870
 C    5.190555    0.143348    1.075205
 O    5.176649    0.534605    2.427397
 C    4.413434    1.100014    0.162961
 O    4.416807    0.626748   -1.172958
 C    5.052228    2.490412    0.109023
 O    4.967509    3.093635    1.384622
 C    3.866106   -0.652677   -1.345444
 O    2.499734   -0.681303   -1.075691
 C    1.722395    0.064470   -2.010396
 C    0.333497    0.050066   -1.604749
 C   -0.814255    0.019972   -1.244565
 C   -2.176003    0.007093   -0.864353
 C   -3.144625    0.553646   -1.707198
 C   -4.472130    0.544728   -1.334268
 C   -4.870731   -0.013054   -0.119989
 C   -3.898043   -0.563211    0.713863
 C   -2.566781   -0.552051    0.352592
 C   -6.287519   -0.016861    0.270466
 C   -7.084287    1.105008    0.052382
 C   -8.416837    1.104252    0.419558
 C   -8.977249   -0.018933    1.004560
 C   -8.195166   -1.140596    1.223848
 C   -6.860538   -1.139575    0.863462
 H    6.276667   -2.443606   -0.229055
 H    3.910985   -2.633347   -0.529084
 H    3.519520   -1.185090    1.370572
 H    5.471876   -1.771503    2.594627
 H    6.228667    0.075084    0.706653
 H    5.172731    1.502182    2.457987
 H    3.383167    1.185818    0.542332
 H    4.520196    3.083685   -0.643990
 H    6.097833    2.384254   -0.207201
 H    5.337390    3.981290    1.336857
 H    4.074776   -0.887046   -2.402010
 H    1.822883   -0.384926   -3.012427
 H    2.086842    1.102026   -2.058159
 H   -2.843839    0.980682   -2.652814
 H   -5.217123    0.955755   -2.000110
 H   -4.190138   -0.984179    1.665067
 H   -1.817201   -0.973265    1.006192
 H   -6.648026    1.989742   -0.388572
 H   -9.020904    1.983939    0.250195
 H  -10.019302   -0.019931    1.288409
 H   -8.628542   -2.020907    1.676179
 H   -6.259510   -2.023384    1.021757
