43 
4avh_ligand_dft.xyz
 O   -4.029184    2.707008   -0.383093
 C   -3.162044    2.207406    0.627599
 C   -2.482734    0.951946    0.098728
 O   -1.678192    0.507227    1.179395
 C   -3.482170   -0.137826   -0.304293
 O   -4.231050    0.193610   -1.454742
 C   -2.741705   -1.424643   -0.637555
 O   -3.660679   -2.479657   -0.856775
 C   -1.842410   -1.842691    0.520655
 O   -2.614516   -2.218085    1.636341
 C   -0.950444   -0.670499    0.932382
 O   -0.015282   -0.508227   -0.091952
 C    0.979530    0.463364    0.180276
 C    1.959580    0.449167   -0.979395
 C    3.037069    1.528160   -0.889313
 C    4.706583   -0.201822    0.603967
 C    5.536902   -0.581227   -0.620181
 C    6.117661   -1.989895   -0.494524
 S    4.072072    1.505585    0.615938
 H   -4.537140    3.438619   -0.016771
 H   -2.396230    2.946772    0.895420
 H   -3.718926    1.941351    1.536720
 H   -1.864790    1.205477   -0.774971
 H   -4.139891   -0.332923    0.557670
 H   -4.570668    1.092360   -1.319300
 H   -2.127711   -1.248485   -1.531379
 H   -4.359356   -2.111822   -1.415858
 H   -1.189815   -2.665456    0.195922
 H   -3.347554   -2.735569    1.271289
 H   -0.459620   -0.887264    1.889832
 H    1.484074    0.229439    1.128679
 H    0.524400    1.457444    0.290009
 H    2.414048   -0.545683   -1.053408
 H    1.399664    0.601541   -1.910089
 H    2.576528    2.522076   -0.880701
 H    3.681147    1.484618   -1.772764
 H    5.320437   -0.265817    1.509263
 H    3.876149   -0.905434    0.737837
 H    4.913993   -0.525713   -1.521491
 H    6.341728    0.151475   -0.748633
 H    6.779631   -2.067116    0.375351
 H    5.324026   -2.736797   -0.378118
 H    6.699019   -2.256106   -1.382970
