50 
4avj_ligand_xtb.xyz
 O   -1.273954    3.763951   -0.110751
 C   -1.591097    2.908260    0.957232
 C   -2.612807    1.873960    0.609611
 N   -3.692892    1.631618    1.383811
 N   -4.399480    0.707694    0.853337
 C   -2.683581    1.020865   -0.473392
 N   -3.824765    0.321975   -0.278734
 C   -4.342411   -0.774205   -1.047434
 C   -4.059646   -2.107420   -0.327301
 C   -2.598474   -2.181447    0.012945
 C   -2.147009   -1.753415    1.256592
 C   -0.796718   -1.664556    1.523126
 C    0.131628   -2.009010    0.545180
 C   -0.305381   -2.483768   -0.683139
 C   -1.663742   -2.558951   -0.939402
 O    1.457797   -1.828119    0.890611
 C    2.410714   -1.739323   -0.130591
 C    3.703242   -1.241417    0.547138
 O    4.807997   -1.277546   -0.324205
 C    3.518754    0.222795    0.968876
 O    4.693452    0.765876    1.507424
 C    3.059404    1.042849   -0.248832
 O    2.829607    2.382811    0.114116
 C    1.772970    0.426430   -0.810738
 O    2.019535   -0.917751   -1.188782
 C    1.266919    1.173119   -2.048764
 O    0.710947    2.413454   -1.713809
 H   -0.805259    3.262913   -0.795145
 H   -1.999260    3.536872    1.752280
 H   -0.685244    2.408098    1.339098
 H   -2.048661    0.877088   -1.321710
 H   -3.861150   -0.761132   -2.027881
 H   -5.420072   -0.637188   -1.166166
 H   -4.355598   -2.928545   -0.980933
 H   -4.657440   -2.142264    0.583590
 H   -2.859233   -1.460257    2.013716
 H   -0.439573   -1.313032    2.477831
 H    0.397377   -2.764341   -1.450606
 H   -1.996195   -2.909407   -1.906224
 H    2.587634   -2.725094   -0.597074
 H    3.885282   -1.861256    1.437522
 H    4.900502   -2.160634   -0.696330
 H    2.757798    0.283133    1.754226
 H    5.425856    0.486658    0.941243
 H    3.844922    0.987486   -1.021474
 H    3.484457    2.614773    0.787448
 H    0.991382    0.469948   -0.036200
 H    2.091985    1.286448   -2.764536
 H    0.479199    0.580742   -2.520573
 H    1.361613    2.889988   -1.174497
