48 
4avt_ligand_xtb.xyz
 N   -3.145818    0.311991    0.049080
 C   -2.990304   -0.827973   -0.834364
 C   -4.204056   -1.723054   -0.523449
 C   -5.216114   -0.759731    0.093267
 C   -4.318460    0.170539    0.896724
 C   -1.688735   -1.558326   -0.528598
 O   -1.383056   -1.911585    0.591020
 O   -0.939117   -1.749539   -1.587945
 C   -2.385114    1.436527    0.096908
 O   -2.657443    2.331710    0.871585
 C   -1.229250    1.492025   -0.886257
 C   -0.361163    2.740320   -0.724732
 C    0.375183    2.835613    0.612758
 C    1.307077    1.660738    0.912838
 C    2.442676    1.528564   -0.087742
 O    2.691327    2.353084   -0.944198
 N    3.219381    0.422951    0.048737
 C    3.037033   -0.671379    0.978299
 C    4.279508   -1.549292    0.762797
 C    4.611926   -1.310289   -0.708144
 C    4.315045    0.174174   -0.878085
 C    1.769176   -1.450165    0.634700
 O    1.479239   -1.783465   -0.494925
 O    1.025952   -1.704046    1.686369
 H   -2.971769   -0.515188   -1.885312
 H   -3.915623   -2.474472    0.213399
 H   -4.573576   -2.225272   -1.414676
 H   -5.951236   -1.269464    0.711054
 H   -5.733734   -0.202182   -0.687917
 H   -4.744021    1.156319    1.086011
 H   -4.035832   -0.281750    1.853951
 H   -0.020277   -2.039935   -1.340474
 H   -1.648827    1.479247   -1.896721
 H   -0.613277    0.599374   -0.783929
 H   -0.999675    3.620464   -0.815848
 H    0.371546    2.760850   -1.532207
 H   -0.359526    2.910378    1.415160
 H    0.967591    3.751820    0.600166
 H    1.752560    1.807078    1.901540
 H    0.736116    0.733175    0.953361
 H    2.948898   -0.322654    2.012376
 H    4.086449   -2.595793    0.992823
 H    5.087795   -1.191598    1.400879
 H    5.642480   -1.559449   -0.949751
 H    3.944920   -1.898796   -1.337639
 H    5.175511    0.792932   -0.599212
 H    4.008976    0.448638   -1.888660
 H    0.127815   -2.047335    1.430134
