21 
4avw_ligand_dft.xyz
 C    0.710735   -0.718134   -0.000152
 C    1.384218    0.521262    0.000218
 C    2.782923    0.566542    0.000399
 C    3.518969   -0.603716    0.000328
 C    2.856985   -1.837111   -0.000033
 C    1.474688   -1.895906   -0.000293
 C   -2.964874   -1.404282    0.000549
 C   -1.670847   -1.806343   -0.000445
 C   -0.740068   -0.713808   -0.000351
 C   -1.392444    0.495226   -0.000217
 N   -0.729508    1.698206    0.000237
 S   -3.116165    0.330905    0.000150
 C    0.655565    1.809244    0.000005
 O    1.183157    2.909184   -0.000375
 H    3.261696    1.540097    0.000595
 H    4.603648   -0.567412    0.000475
 H    3.431810   -2.758631   -0.000114
 H    0.976228   -2.860349   -0.000599
 H   -3.857508   -2.013141    0.000947
 H   -1.380679   -2.850155   -0.000784
 H   -1.230372    2.576356   -0.001631
