55 
4awi_ligand_dft.xyz
 C   24.437470    9.271974   29.186921
 C   23.815531    8.023879   29.815071
 C   24.900142    7.100318   30.394746
 C   22.803206    8.375889   30.868318
 C   22.566500    9.561006   31.513270
 C   21.511644    9.333536   32.456800
 C   20.786648   10.108310   33.374602
 C   19.769668    9.462405   34.073864
 C   19.513588    8.101592   33.857368
 N   20.179755    7.336987   32.992817
 C   21.139300    7.973447   32.331665
 N   21.944248    7.417406   31.370074
 C   21.083139   11.549547   33.540233
 C   22.406409   11.984720   33.678786
 C   22.707966   13.339497   33.706240
 C   21.676601   14.267186   33.586897
 C   20.347053   13.858767   33.522367
 C   20.055988   12.500471   33.508095
 S   22.085866   15.964773   33.230374
 O   23.451817   16.177419   33.673198
 O   20.982436   16.814275   33.639478
 N   22.097706   16.038138   31.562142
 C   22.926630   15.100264   30.802407
 C   22.120297   13.891680   30.296388
 C   23.008598   12.840721   29.638480
 S   23.853305   13.511491   28.200372
 O   24.882898   12.566521   27.776466
 O   22.832378   13.976823   27.262222
 C   24.640239   14.961239   28.923504
 C   23.631352   15.845323   29.660050
 H   23.683283    9.915988   28.726652
 H   24.980575    9.860893   29.934825
 H   25.152703    8.992058   28.408529
 H   23.289807    7.471631   29.022594
 H   24.473026    6.189494   30.827349
 H   25.607015    6.804888   29.612682
 H   25.456112    7.617522   31.184073
 H   23.089118   10.487692   31.332424
 H   21.876740    6.460140   31.062566
 H   19.182532   10.004124   34.808918
 H   18.724571    7.607411   34.418766
 H   23.202742   11.250971   33.755170
 H   19.025657   12.169257   33.419897
 H   23.732309   13.683944   33.803006
 H   19.556242   14.599338   33.455383
 H   21.161282   16.188557   31.200026
 H   23.703367   14.746156   31.491535
 H   21.588830   13.416381   31.124833
 H   21.369183   14.229573   29.571807
 H   22.888752   16.221229   28.947122
 H   24.154708   16.709311   30.079004
 H   23.784289   12.473543   30.318576
 H   22.432023   11.984828   29.276681
 H   25.429319   14.592847   29.587043
 H   25.109434   15.485621   28.086327
