51 
4awm_ligand_dft.xyz
 O   -2.513897    1.371677    2.396087
 C   -1.828555    1.842998    1.305683
 C   -2.572233    2.638139    0.440609
 O   -3.889966    2.911978    0.667698
 C   -1.980273    3.170146   -0.704836
 O   -2.707110    3.946351   -1.546858
 C   -0.650782    2.879548   -0.992285
 C    0.090642    2.077788   -0.125137
 C    1.484421    1.647700   -0.529345
 C    3.282127    0.455236    0.513729
 C    4.017079    0.274885    1.687526
 C    5.163271   -0.507194    1.648236
 C    5.581967   -1.101237    0.456803
 C    4.825080   -0.905285   -0.691502
 C    3.658888   -0.129779   -0.692337
 C    1.435417    0.536782   -1.588673
 C   -0.380332   -0.987256   -1.747447
 C   -1.437431   -1.575548   -0.882657
 C   -1.356092   -1.468117    0.502795
 C   -2.583543   -2.089772   -1.493161
 C    2.829071    0.040269   -1.935794
 O    2.165865    1.220683    0.641511
 O    5.931934   -0.727981    2.747307
 O    5.172924   -1.458938   -1.884772
 C   -0.488851    1.583514    1.041499
 O    0.648219   -0.515883   -1.020754
 O   -0.461175   -0.886612   -2.950638
 C   -3.652135   -2.480080   -0.702291
 O   -4.829397   -2.995268   -1.168787
 C   -3.599461   -2.323256    0.684870
 O   -4.647146   -2.638466    1.492702
 C   -2.451013   -1.809284    1.278410
 O   -2.414403   -1.575618    2.626258
 H   -2.244910    0.460241    2.601868
 H   -4.136182    2.428671    1.470853
 H   -3.599015    4.018974   -1.177889
 H   -0.217339    3.282416   -1.903034
 H    2.033111    2.493824   -0.969252
 H    3.676852    0.754293    2.600317
 H    6.486571   -1.701816    0.450411
 H    0.928318    0.907195   -2.482308
 H   -0.467069   -1.072118    0.971680
 H   -2.629717   -2.146218   -2.576767
 H    2.746008   -0.903302   -2.482508
 H    3.296856    0.756646   -2.623707
 H    5.540788   -0.268674    3.499950
 H    5.965156   -1.995420   -1.763057
 H    0.098364    0.986966    1.729220
 H   -4.821846   -3.005305   -2.132909
 H   -5.372800   -2.955338    0.935874
 H   -3.253519   -1.877612    3.005030
