71 
4awp_ligand_dft.xyz
 C   -5.458646    3.074034   -0.432607
 C   -6.068174    1.703007   -0.282862
 C   -7.201301    1.351622   -1.012035
 C   -7.801830    0.093715   -0.913500
 C   -9.013456   -0.213948   -1.749361
 O   -9.208335   -1.301405   -2.264997
 N   -9.878470    0.834394   -1.923997
 C   -7.257984   -0.880818   -0.062446
 C   -7.846538   -2.260482    0.092137
 C   -6.123891   -0.527040    0.667184
 C   -5.527408    0.730198    0.569853
 C   -4.310718    1.036232    1.401190
 O   -4.188282    2.066589    2.050548
 N   -3.354196    0.070311    1.372720
 C   -2.108658    0.183681    2.127613
 C   -1.171702    1.271965    1.561026
 C   -1.405147   -1.184452    2.191729
 C   -0.468463   -1.463590    1.006137
 C   -1.133697   -1.379799   -0.385217
 C   -1.060719    0.124717   -0.750081
 C   -0.277192    0.758692    0.429990
 N    0.506708   -0.368355    0.959452
 C    1.802917   -0.611618    0.548659
 C    2.716096    0.447430    0.352311
 C    4.012306    0.146588   -0.008608
 N    2.169957   -1.892145    0.396225
 C    3.426568   -2.156237    0.048747
 C    4.403867   -1.188697   -0.164921
 C    5.775345   -1.633267   -0.550831
 O    5.986066   -2.718111   -1.074322
 N    6.783271   -0.745930   -0.289040
 C    8.169844   -1.105004   -0.537599
 C    9.041727    0.127754   -0.543305
 C   10.054782    0.292398    0.399655
 C   10.851490    1.435673    0.394918
 C   10.637284    2.428955   -0.554272
 C    9.623937    2.274852   -1.499329
 C    8.832257    1.132646   -1.492442
 H   -5.545279    3.640246    0.497916
 H   -4.389893    3.013892   -0.663562
 H   -5.950484    3.628589   -1.236898
 H   -7.616187    2.077131   -1.707708
 H  -10.745005    0.621328   -2.396146
 H   -9.879894    1.609489   -1.279746
 H   -7.375186   -2.783590    0.929408
 H   -7.705178   -2.846353   -0.819279
 H   -8.924824   -2.223198    0.270734
 H   -5.703460   -1.255143    1.357626
 H   -3.479196   -0.704848    0.741213
 H   -2.399644    0.487569    3.137523
 H   -1.772805    2.125265    1.235458
 H   -0.519324    1.621097    2.369092
 H   -0.794437   -1.215824    3.099621
 H   -2.153704   -1.981289    2.281184
 H    0.050155   -2.408566    1.156186
 H   -0.539279   -1.971239   -1.087005
 H   -2.147527   -1.793129   -0.405980
 H   -2.043558    0.585951   -0.876505
 H   -0.507167    0.266060   -1.682466
 H    0.376602    1.563575    0.091975
 H    2.417912    1.477919    0.504190
 H    4.715882    0.956182   -0.186097
 H    3.684370   -3.204860   -0.076322
 H    6.620240   -0.011102    0.382934
 H    8.527853   -1.824157    0.211263
 H    8.202093   -1.617058   -1.503484
 H   10.223696   -0.481113    1.144968
 H   11.637248    1.548855    1.136001
 H   11.256429    3.321179   -0.559922
 H    9.454340    3.045709   -2.245457
 H    8.041348    1.011678   -2.228461
