73 
4ax9_ligand_dft.xyz
 N    0.851502   -2.806971    0.345816
 C    0.412815   -3.303517   -0.936726
 C    0.306812   -1.709130    0.942680
 C    2.215497   -3.102770    0.737420
 C    0.526812   -4.782549   -1.200062
 C   -0.822372   -4.152101   -1.042044
 C   -1.019173   -1.120209    0.398847
 O    0.854969   -1.172601    1.902922
 C    3.206102   -2.153590    0.073919
 N   -2.130978   -1.935278    0.883049
 C   -1.110338    0.362438    0.811779
 O    4.447883   -2.414663    0.433321
 O    2.863151   -1.273147   -0.694707
 S   -3.546026   -2.063810   -0.001071
 C   -0.302736    1.222711   -0.147306
 C   -4.414663   -0.513415    0.120822
 O   -4.328800   -3.064892    0.701745
 O   -3.141124   -2.216836   -1.387626
 N    1.004954    1.362648    0.179282
 O   -0.798729    1.705729   -1.158954
 C   -4.039261    0.522406   -0.697237
 C   -5.426945   -0.363586    1.097033
 C    1.963706    1.903302   -0.766675
 C   -4.645326    1.793003   -0.544532
 C   -6.047611    0.849673    1.231495
 C    3.353360    1.914961   -0.141782
 C   -5.671996    1.958703    0.427223
 C   -4.230411    2.906074   -1.322164
 C    4.449319    2.155302   -1.187482
 C    3.514061    2.940251    0.988022
 C   -6.278468    3.233642    0.568291
 C   -4.832143    4.125610   -1.155946
 N    5.775435    2.009027   -0.589291
 C    4.933466    2.897468    1.564656
 C   -5.870432    4.288017   -0.206913
 C    5.986032    3.019024    0.457813
 C    6.234812    0.716145   -0.386467
 N    7.397018    0.611927    0.363672
 N    5.689888   -0.370321   -0.822116
 H    0.652011   -2.643973   -1.768400
 H    2.467870   -4.126627    0.455976
 H    2.322759   -3.010547    1.819126
 H    0.860798   -5.086561   -2.186748
 H    0.871751   -5.419627   -0.390938
 H   -1.358205   -4.346859   -0.120084
 H   -1.455179   -4.004288   -1.908176
 H   -1.035876   -1.209146   -0.690734
 H   -2.310300   -1.888808    1.881357
 H   -2.142206    0.700614    0.750435
 H   -0.760274    0.464495    1.841567
 H    5.071789   -1.752126   -0.000005
 H    1.355864    0.744590    0.902303
 H   -3.251784    0.396652   -1.434343
 H   -5.710283   -1.215408    1.705686
 H    1.647469    2.912536   -1.054279
 H    1.967154    1.290587   -1.677852
 H   -6.837457    0.977698    1.966692
 H    3.527277    0.911976    0.269304
 H   -3.413889    2.773105   -2.025371
 H    4.379301    3.175950   -1.584178
 H    4.353791    1.484867   -2.045586
 H    3.307977    3.944065    0.587606
 H    2.776437    2.758845    1.777011
 H   -7.067326    3.361654    1.304748
 H   -4.509878    4.976585   -1.748018
 H    5.093684    1.947145    2.089399
 H    5.076977    3.700378    2.296718
 H   -6.339485    5.260327   -0.089152
 H    5.918584    4.001070   -0.025538
 H    6.988595    2.932174    0.875689
 H    7.763498   -0.329951    0.323513
 H    8.106489    1.302817    0.160076
 H    4.779445   -0.216385   -1.245163
