48 
4axd_ligand_xtb.xyz
 P    0.125512   -2.224079    0.383895
 O    0.999918   -2.788075    1.546850
 O    0.616160   -2.993821   -0.906104
 O    0.083141   -0.763606    0.229254
 P   -2.500620   -2.082902   -0.246747
 O   -2.037408   -1.908195   -1.629379
 O   -3.824624   -2.911843   -0.049170
 N   -1.405050   -2.903957    0.680275
 P   -3.079846    0.685033   -0.305740
 O   -4.446994    0.685185   -0.791331
 O   -1.929424    0.763445   -1.378278
 O   -2.754734   -0.710104    0.519368
 O   -2.742520    1.773499    0.774366
 C   -1.469506    1.781000    1.416143
 C   -0.689539    3.080763    1.159579
 O    0.626754    2.931546    1.692570
 C   -0.498390    3.402502   -0.325476
 O   -0.260153    4.772999   -0.485436
 C    0.748339    2.571911   -0.666128
 O    1.468023    3.142383   -1.714346
 C    1.523024    2.581533    0.680777
 N    2.108683    1.275974    0.910926
 C    1.991206    0.458524    1.983565
 N    2.532974   -0.716886    1.811749
 C    3.035130   -0.694413    0.529980
 C    3.639789   -1.651093   -0.306053
 N    3.935886   -2.905314    0.082209
 N    3.973877   -1.277136   -1.544605
 C    3.705988   -0.051223   -1.951326
 N    3.104067    0.918768   -1.284488
 C    2.771881    0.557791   -0.042607
 H    1.630588   -2.071083    1.861324
 H    0.044175   -2.789082   -1.651882
 H   -4.568680   -2.560498   -0.541969
 H   -1.648028   -3.099813    1.634998
 H   -1.810899   -0.101964   -1.803583
 H   -1.649870    1.688193    2.490857
 H   -0.869068    0.933707    1.080853
 H   -1.154174    3.926235    1.672977
 H   -1.365998    3.090110   -0.918952
 H    0.334971    4.865213   -1.243618
 H    0.446040    1.542482   -0.894038
 H    2.203381    2.531154   -1.913734
 H    2.338842    3.322353    0.645633
 H    1.495764    0.774435    2.879523
 H    3.493447   -3.272913    0.906801
 H    4.215483   -3.545452   -0.642185
 H    4.002641    0.184937   -2.964220
