39 
4ay5_ligand_xtb.xyz
 N   -1.462943    1.296765    0.754578
 C   -1.391336    2.220888   -0.269505
 N   -0.159706    2.793203   -0.445942
 C    1.003181    2.447765    0.210727
 C    0.783625    1.665427    1.402280
 C   -0.417582    1.096190    1.599367
 O   -2.355860    2.522593   -0.940280
 O    2.092629    2.821300   -0.201211
 C   -2.673729    0.466841    0.865506
 C   -3.108626   -0.085794   -0.523060
 O   -4.292859    0.485728   -0.984968
 C   -3.297062   -1.591469   -0.254596
 C   -2.375729   -1.826938    0.953352
 O   -2.450870   -0.621514    1.703579
 O   -4.614689   -1.903593    0.085710
 C   -0.930522   -2.158563    0.547475
 O   -0.499051   -1.127440   -0.330350
 P    0.944568   -0.823276   -0.870959
 O    1.390611   -2.119188   -1.643120
 O    0.968982    0.444565   -1.580236
 O    1.875815   -0.827284    0.461885
 P    3.462080   -0.579648    0.158883
 O    3.756769    0.910169    0.442993
 O    3.828076   -1.178521   -1.130961
 O    4.118107   -1.290614    1.405335
 H   -0.054196    3.348034   -1.289276
 H    1.608910    1.492461    2.070345
 H   -0.628589    0.438648    2.429682
 H   -3.475269    1.086294    1.295895
 H   -2.291710    0.047430   -1.239700
 H   -4.080327    1.397149   -1.242145
 H   -2.976675   -2.184314   -1.121471
 H   -2.771233   -2.619658    1.593697
 H   -5.181442   -1.230396   -0.319740
 H   -0.893239   -3.123660    0.036668
 H   -0.288239   -2.183938    1.431059
 H    2.341915   -2.018889   -1.834983
 H    3.194619    1.655690    0.090749
 H    4.659696   -2.026463    1.123620
