48 
4ayp_ligand_xtb.xyz
 O   -3.783298   -1.774914    1.287640
 C   -2.811637   -1.698406    0.281349
 C   -3.316227   -0.870398   -0.904897
 O   -4.558634   -1.398408   -1.297494
 C   -3.456354    0.603393   -0.496715
 O   -3.881249    1.307241   -1.636053
 C   -2.112209    1.098283    0.052877
 C   -2.185308    2.530434    0.588753
 O   -2.532279    3.405766   -0.462958
 O   -1.700120    0.301448    1.151720
 C   -1.561164   -1.048881    0.877126
 S   -0.148891   -1.364529   -0.261778
 C    1.253069   -1.174353    0.904192
 C    1.436426    0.293926    1.308604
 O    2.382583    0.308052    2.338425
 C    2.492556    1.559527    2.990131
 O    1.798822    1.099513    0.222528
 C    2.534595   -1.669428    0.235495
 O    2.468515   -3.000999   -0.199599
 C    2.884525   -0.733760   -0.932892
 O    4.090954   -1.133310   -1.536327
 C    3.006100    0.705974   -0.413594
 C    3.277534    1.697579   -1.551703
 O    4.586045    1.602188   -2.032254
 H   -4.626344   -1.933451    0.838420
 H   -2.550093   -2.707980   -0.074371
 H   -2.589425   -0.936845   -1.729757
 H   -4.946484   -0.765876   -1.915456
 H   -4.210213    0.676194    0.306379
 H   -3.625453    2.234915   -1.529001
 H   -1.359840    1.051184   -0.750339
 H   -2.932305    2.567728    1.393260
 H   -1.204089    2.783753    1.006916
 H   -2.459070    4.314604   -0.154143
 H   -1.323008   -1.526054    1.831538
 H    1.026637   -1.773779    1.788567
 H    0.481599    0.718341    1.658514
 H    2.761197    2.348828    2.282963
 H    3.277669    1.442297    3.733128
 H    1.548400    1.820788    3.480671
 H    3.344279   -1.636398    0.974681
 H    1.650231   -3.118698   -0.702266
 H    2.061285   -0.779331   -1.668697
 H    4.131058   -2.098832   -1.478347
 H    3.841937    0.746143    0.300635
 H    2.541961    1.527761   -2.351690
 H    3.148662    2.714830   -1.174179
 H    4.771509    0.666392   -2.196367
