49 
4ayt_ligand_xtb.xyz
 P    3.887433   -0.222894   -0.469298
 O    3.692656    1.126742    0.070785
 O    3.272420   -0.397876   -1.933633
 O    5.415876   -0.605032   -0.717110
 P    1.806799   -1.154986    1.279583
 O    0.854626   -2.151442    1.764932
 O    2.193120   -0.007518    2.254504
 C    3.371138   -1.659430    0.530116
 P    0.393082   -1.249554   -1.082292
 O    0.995958   -2.537324   -1.388130
 O    0.365474   -0.181046   -2.263728
 O    1.146407   -0.347656   -0.010155
 O   -1.133965   -1.265406   -0.650724
 C   -1.715093   -2.377421    0.037669
 C   -3.166302   -2.032866    0.396575
 O   -3.244497   -1.084591    1.450972
 C   -3.947071   -1.389451   -0.763074
 O   -5.315698   -1.631320   -0.619969
 C   -3.600635    0.099963   -0.588886
 O   -4.648536    0.927856   -1.000355
 C   -3.300482    0.208239    0.932077
 N   -2.046436    0.899207    1.150188
 C   -1.093343    0.594877    2.069359
 N   -0.013653    1.314217    1.954164
 C   -0.237916    2.142409    0.882259
 C    0.554943    3.057478    0.160465
 N    1.842243    3.316489    0.437425
 N   -0.034219    3.726400   -0.840025
 C   -1.288533    3.469891   -1.153371
 N   -2.099261    2.565454   -0.628588
 C   -1.527553    1.905753    0.384522
 H    2.437511    0.062518   -2.033524
 H    5.916511    0.146916   -1.034380
 H    1.423830    0.638065    2.350525
 H    3.228589   -2.535310   -0.097888
 H    4.112601   -1.854486    1.299424
 H    0.150657   -0.596564   -3.099040
 H   -1.677035   -3.253736   -0.613241
 H   -1.143803   -2.580059    0.946949
 H   -3.669893   -2.934583    0.753673
 H   -3.596428   -1.765702   -1.733789
 H   -5.778383   -0.813017   -0.851576
 H   -2.690118    0.318922   -1.151879
 H   -4.283783    1.821335   -1.078820
 H   -4.105765    0.757374    1.446222
 H   -1.239282   -0.171072    2.804678
 H    2.395982    2.596203    0.880873
 H    2.322773    3.887122   -0.240664
 H   -1.700011    4.055463   -1.964947
