65 
4az3_ligand_xtb.xyz
 C    5.717406   -0.757836    2.479818
 C    5.644813    0.276891    1.399514
 C    6.472394    1.392777    1.461793
 C    6.441582    2.374602    0.489168
 C    5.567561    2.255538   -0.576425
 C    4.740034    1.151320   -0.654376
 C    4.769028    0.157314    0.317836
 C    3.840131   -1.021864    0.159146
 C    4.202015   -1.853293   -1.088471
 C    5.565117   -2.473059   -0.973118
 O    6.092383   -2.849593    0.039108
 O    6.158202   -2.584117   -2.169205
 N    2.472246   -0.550298    0.058268
 C    1.405729   -1.375268    0.071583
 O    1.483766   -2.589167    0.136255
 C    0.118821   -0.653185   -0.009905
 N    0.055191    0.662106   -0.141615
 C   -1.169730   -1.223093    0.030355
 C   -2.022266   -0.149348   -0.076758
 O   -3.355173   -0.038420   -0.163210
 C   -4.087453   -1.249329   -0.013134
 C   -5.569638   -0.854392   -0.011606
 C   -6.542836   -2.056626   -0.037017
 C   -6.345958   -2.889662   -1.305379
 C   -6.342460   -2.928531    1.203713
 C   -7.967017   -1.491582   -0.030109
 O   -5.847063   -0.076586    1.128278
 N   -1.249618    0.972246   -0.165567
 C   -1.651928    2.303195   -0.328389
 C   -0.917273    3.131571   -1.172689
 C   -1.283229    4.450339   -1.359574
 C   -2.393637    4.965560   -0.710401
 C   -3.122725    4.164631    0.150179
 C   -2.740683    2.850807    0.345278
 F   -3.435065    2.113213    1.236799
 H    6.465619   -0.481775    3.218361
 H    4.757500   -0.859094    2.984716
 H    5.986378   -1.724284    2.057314
 H    7.155112    1.492201    2.293566
 H    7.096475    3.230166    0.563529
 H    5.531909    3.015166   -1.343160
 H    4.057873    1.059021   -1.488024
 H    3.905711   -1.695953    1.018755
 H    3.472395   -2.665537   -1.163217
 H    4.156853   -1.258193   -1.999928
 H    7.024286   -3.012710   -2.079876
 H    2.296158    0.440642   -0.006337
 H   -1.399070   -2.262663    0.121389
 H   -3.850488   -1.923663   -0.841529
 H   -3.820213   -1.722522    0.937426
 H   -5.740575   -0.250000   -0.920109
 H   -5.405657   -3.434545   -1.286133
 H   -6.364632   -2.257215   -2.190334
 H   -7.150103   -3.616673   -1.389529
 H   -6.379103   -2.308860    2.095168
 H   -5.386951   -3.446301    1.171002
 H   -7.130892   -3.674454    1.264527
 H   -8.141424   -0.886652   -0.917015
 H   -8.111655   -0.869004    0.847378
 H   -8.693487   -2.300123   -0.013651
 H   -5.160770    0.597505    1.204107
 H   -0.056371    2.713178   -1.669138
 H   -0.703371    5.076854   -2.019094
 H   -2.687646    5.991978   -0.863307
 H   -3.976720    4.544432    0.688360
