30 
4az5_ligand_dft.xyz
 O    0.738024    2.048903   -1.289761
 C    1.564895    1.231609   -0.455017
 C    0.844978    1.256618    0.906244
 C    1.674857   -0.173735   -1.077373
 O    1.619551    0.851105    1.982415
 C   -0.443197    0.406188    0.825901
 N   -1.473014    1.058798   -0.063644
 C   -0.243517   -0.953752    0.162611
 C   -2.596646    0.100816   -0.407210
 C   -3.824505    0.382287    0.440153
 S   -1.913376   -1.581641   -0.120398
 O    0.396675   -0.806498   -1.089526
 C    2.789595   -1.077985   -0.564459
 O    2.602782   -1.374404    0.813655
 H    1.161154    2.188579   -2.146724
 H    2.557334    1.680216   -0.332376
 H    0.571715    2.300730    1.094972
 H    1.899725   -0.034248   -2.141506
 H    2.074350    0.015889    1.757560
 H   -0.871553    0.295595    1.823406
 H   -0.954100    1.368231   -0.907669
 H   -1.847614    1.904059    0.375311
 H    0.290452   -1.641545    0.822670
 H   -2.807387    0.242491   -1.467987
 H   -3.598123    0.306164    1.508091
 H   -4.597668   -0.356299    0.214082
 H   -4.239882    1.371175    0.217454
 H    2.767024   -2.001332   -1.153491
 H    3.752523   -0.577002   -0.732067
 H    3.312141   -1.953164    1.120772
