44 
4az6_ligand_xtb.xyz
 C   -1.852823    4.326961    0.583946
 C   -2.688703    3.140698    0.171886
 O   -3.896755    3.205285    0.019510
 N   -1.962600    2.014063    0.019737
 C   -2.403895    0.731111   -0.506833
 C   -3.695917    0.189978    0.136982
 O   -4.847703    0.782482   -0.381935
 C   -3.822627   -1.308558   -0.183811
 O   -4.989297   -1.833565    0.378620
 C   -2.627807   -2.067360    0.375863
 C   -2.645906   -3.547126   -0.025636
 O   -1.597966   -4.261204    0.564740
 O   -1.391599   -1.532010   -0.097877
 C   -1.241869   -0.231051   -0.340602
 N   -0.105211    0.305126   -0.497504
 O    1.031344   -0.503053   -0.368515
 C    2.165025    0.266425   -0.211012
 O    2.153311    1.457541   -0.088406
 N    3.222781   -0.579927   -0.203148
 C    4.582234   -0.275449   -0.057345
 C    5.048146    1.029421    0.060016
 C    6.405464    1.260563    0.194561
 C    7.304778    0.208242    0.213937
 C    6.839438   -1.090894    0.097235
 C    5.486060   -1.334632   -0.037925
 H   -2.503455    5.173019    0.784944
 H   -1.163513    4.585169   -0.216726
 H   -1.274180    4.091010    1.473261
 H   -0.952836    2.080304    0.072661
 H   -2.607637    0.826437   -1.587962
 H   -3.640965    0.326835    1.230934
 H   -4.746851    1.760412   -0.289519
 H   -3.845502   -1.418980   -1.282541
 H   -5.690199   -1.187301    0.208349
 H   -2.635381   -1.997572    1.472435
 H   -3.577992   -3.991705    0.325088
 H   -2.600992   -3.615437   -1.122141
 H   -0.771412   -3.815061    0.343157
 H    2.996753   -1.559669   -0.311316
 H    4.349856    1.848841    0.044843
 H    6.761206    2.275914    0.283845
 H    8.362099    0.397659    0.318806
 H    7.531790   -1.919297    0.110911
 H    5.124144   -2.349194   -0.129287
