44 
4azi_ligand_xtb.xyz
 C   -1.874802    4.341455    0.540539
 C   -2.703044    3.145556    0.142436
 O   -3.908098    3.205401   -0.033668
 N   -1.976545    2.013699    0.033861
 C   -2.412897    0.727197   -0.488272
 C   -3.693006    0.175045    0.169631
 O   -4.856247    0.764198   -0.327178
 C   -3.815991   -1.321444   -0.163184
 O   -4.973844   -1.857327    0.406989
 C   -2.611826   -2.080108    0.375962
 C   -2.621313   -3.553631   -0.048310
 O   -1.566451   -4.268917    0.528232
 O   -1.381882   -1.529643   -0.096799
 C   -1.243055   -0.226777   -0.334775
 N   -0.110257    0.316549   -0.496855
 O    1.029407   -0.489706   -0.380856
 C    2.162743    0.278511   -0.216342
 O    2.151119    1.467887   -0.078520
 N    3.220737   -0.567796   -0.222076
 C    4.579656   -0.267248   -0.064083
 C    5.045012    1.033692    0.092302
 C    6.401601    1.260750    0.240500
 C    7.300780    0.208095    0.235130
 C    6.836060   -1.087129    0.078934
 C    5.483440   -1.326674   -0.070401
 H   -2.526203    5.198950    0.681676
 H   -1.149720    4.562894   -0.239219
 H   -1.336888    4.136384    1.462604
 H   -0.967696    2.080691    0.099555
 H   -2.629776    0.821981   -1.566897
 H   -3.622824    0.303034    1.264028
 H   -4.748499    1.743925   -0.265234
 H   -3.850686   -1.421220   -1.262712
 H   -5.678740   -1.211188    0.253373
 H   -2.612685   -2.027558    1.473521
 H   -3.549264   -4.010177    0.297898
 H   -2.578731   -3.604627   -1.145909
 H   -0.744333   -3.810458    0.315342
 H    2.994713   -1.545472   -0.347510
 H    4.346806    1.853298    0.096553
 H    6.756932    2.273067    0.360634
 H    8.357490    0.394309    0.351528
 H    7.528371   -1.915738    0.072957
 H    5.122018   -2.338147   -0.192695
