24 
4b0b_ligand_dft.xyz
 N   -1.470333    0.268685    0.804272
 C   -1.556789   -0.210703   -0.422864
 C   -2.759917   -0.558008   -1.051931
 C   -3.928328   -0.383778   -0.334480
 C   -3.864753    0.124908    0.965699
 C   -2.615368    0.432086    1.479289
 N    3.875948   -1.491804    0.666761
 C    2.948496   -0.534143    0.256289
 C    1.678716   -0.924239   -0.186094
 C    0.786800    0.032707   -0.639733
 C    1.109468    1.383107   -0.676563
 C    2.371181    1.763912   -0.234592
 C    3.285865    0.824674    0.227094
 O   -0.427520   -0.407496   -1.147690
 H   -2.747151   -0.945216   -2.063994
 H   -4.884321   -0.638905   -0.782106
 H   -4.759245    0.277345    1.559116
 H   -2.511719    0.830007    2.486287
 H    3.471739   -2.351200    1.011657
 H    4.591242   -1.145050    1.290449
 H    1.381478   -1.968519   -0.185486
 H    0.386188    2.106061   -1.035620
 H    2.649721    2.813485   -0.249773
 H    4.270702    1.140648    0.561073
