53 
4b12_ligand_dft.xyz
 O    2.914324    2.361010   -0.745391
 C    2.173993    1.464058   -1.086645
 C    2.664308    0.271835   -1.891334
 C    4.166017    0.014061   -1.703005
 C    4.461612   -0.608602   -0.356773
 C    4.383959   -1.994478   -0.193368
 C    4.611568   -2.582024    1.047360
 C    4.919297   -1.786327    2.147995
 C    5.000289   -0.404902    1.996412
 C    4.773296    0.179777    0.753459
 C    0.737365    1.529726   -0.704279
 O    0.440440    2.570499    0.130228
 C   -0.871285    2.492857    0.412184
 C   -1.438736    1.387409   -0.231623
 C   -0.368717    0.773171   -0.981803
 C   -0.510858   -0.393258   -1.915191
 C   -2.803351    1.128643   -0.019434
 C   -3.536921    1.988090    0.780489
 C   -2.922492    3.096601    1.394697
 C   -1.576589    3.368336    1.232775
 O   -3.331324    0.006055   -0.624103
 C   -4.298349   -0.748834    0.086358
 C   -4.625147   -1.936154   -0.818411
 C   -3.400723   -2.812773   -1.041242
 N   -2.822112   -3.245764    0.287355
 C   -2.491753   -2.089056    1.204805
 C   -3.734985   -1.243180    1.426071
 H    2.442989    0.483703   -2.947807
 H    2.100588   -0.626788   -1.620372
 H    4.705379    0.957707   -1.818203
 H    4.502723   -0.655519   -2.501343
 H    4.161261   -2.621930   -1.054663
 H    4.565761   -3.662504    1.151803
 H    5.108426   -2.241636    3.115552
 H    5.250344    0.221928    2.847211
 H    4.836338    1.257738    0.638700
 H    0.173529   -0.326771   -2.762179
 H   -0.307035   -1.349570   -1.411776
 H   -1.527791   -0.420031   -2.313105
 H   -4.597162    1.822708    0.940480
 H   -3.529185    3.749516    2.013023
 H   -1.089964    4.211771    1.707122
 H   -5.210103   -0.166453    0.256477
 H   -4.962679   -1.575991   -1.793674
 H   -5.445769   -2.518770   -0.383585
 H   -2.608616   -2.261771   -1.549381
 H   -3.632025   -3.720107   -1.602279
 H   -1.981676   -3.807956    0.126746
 H   -3.491809   -3.861499    0.759767
 H   -1.704527   -1.515792    0.709877
 H   -2.100693   -2.513750    2.131009
 H   -4.503378   -1.810637    1.965126
 H   -3.458452   -0.397612    2.061134
