53 
4b12_ligand_xtb.xyz
 O    3.249894    1.868054   -1.291713
 C    2.436943    0.976697   -1.314540
 C    2.747906   -0.407226   -1.846096
 C    4.248634   -0.714639   -1.745376
 C    4.629518   -0.967026   -0.312524
 C    4.435275   -2.222226    0.251275
 C    4.747613   -2.455747    1.578651
 C    5.254237   -1.432109    2.361193
 C    5.448249   -0.177752    1.808567
 C    5.138275    0.053516    0.479725
 C    1.067063    1.205282   -0.806692
 O    0.914739    2.345974   -0.077365
 C   -0.363808    2.422673    0.294144
 C   -1.079264    1.309455   -0.195662
 C   -0.126350    0.528793   -0.922464
 C   -0.433602   -0.714805   -1.682534
 C   -2.451723    1.200694    0.092699
 C   -3.044161    2.205921    0.826976
 C   -2.306793    3.303448    1.287388
 C   -0.960484    3.429941    1.043477
 O   -3.088281    0.067311   -0.375001
 C   -4.465133   -0.117428   -0.145526
 C   -4.933673   -1.177881   -1.151552
 C   -4.205296   -2.490137   -0.900320
 N   -4.464902   -2.947397    0.491822
 C   -3.988808   -1.948351    1.487275
 C   -4.724512   -0.633228    1.282567
 H    2.439539   -0.428900   -2.895416
 H    2.177433   -1.156624   -1.298708
 H    4.807957    0.134668   -2.137870
 H    4.473085   -1.594580   -2.350771
 H    4.047637   -3.027338   -0.359065
 H    4.601109   -3.439272    2.002035
 H    5.502267   -1.613959    3.396429
 H    5.846524    0.623281    2.413357
 H    5.287574    1.033279    0.051724
 H    0.116636   -0.743238   -2.618620
 H   -0.168143   -1.601069   -1.104237
 H   -1.497094   -0.742161   -1.902507
 H   -4.097348    2.180959    1.058832
 H   -2.821713    4.062920    1.853699
 H   -0.384901    4.266312    1.400457
 H   -5.019254    0.812943   -0.317056
 H   -4.704865   -0.839258   -2.161436
 H   -6.013705   -1.307366   -1.074446
 H   -3.131110   -2.332708   -1.012582
 H   -4.533888   -3.258803   -1.601022
 H   -4.008377   -3.850907    0.655243
 H   -5.478183   -3.072943    0.612931
 H   -2.919554   -1.791620    1.328757
 H   -4.150087   -2.334836    2.494365
 H   -5.797041   -0.752085    1.441765
 H   -4.351650    0.087167    2.010106
