45 
4b1c_ligand_xtb.xyz
 C   -2.479094    0.002985    0.421412
 N   -2.337927    1.277985   -0.274578
 C   -3.470064    1.562791   -0.982404
 C   -2.400318    0.154228    1.941007
 C   -1.432952   -0.997238   -0.039630
 C   -0.087612   -0.716666    0.150747
 C    0.890536   -1.618676   -0.255049
 C    0.502737   -2.810108   -0.863677
 C   -0.836726   -3.086667   -1.059070
 C   -1.805556   -2.187180   -0.648215
 N   -3.772901    2.524901   -1.744841
 C   -5.758198    0.341561   -1.157713
 C   -3.103917    1.287347    2.622667
 C   -1.606905    1.246676    2.588756
 C    2.312208   -1.325472   -0.031993
 C    2.846962   -0.064927   -0.273262
 C    4.204780    0.157308   -0.049503
 C    4.972207   -0.916281    0.415091
 C    3.183033   -2.311475    0.438538
 C    4.799241    1.416381   -0.290820
 N   -3.814961   -0.429348    0.097187
 N    4.469527   -2.110707    0.653564
 C   -4.375585    0.434160   -0.648922
 C    5.325549    2.478958   -0.494390
 C    5.959964    3.752405   -0.738558
 H   -1.445265    1.713472   -0.423311
 H   -2.420118   -0.811515    2.429227
 H    0.208987    0.194685    0.649960
 H    1.256314   -3.508560   -1.196464
 H   -1.131398   -4.010232   -1.534753
 H   -2.853919   -2.399055   -0.787077
 H   -3.035757    3.212320   -1.879878
 H   -6.326657    1.199712   -0.804362
 H   -5.742755    0.390177   -2.244618
 H   -6.224226   -0.580619   -0.823874
 H   -3.612421    1.089171    3.552962
 H   -3.602711    2.015607    2.000459
 H   -1.071831    1.012511    3.496647
 H   -1.101334    1.966801    1.963598
 H    2.225842    0.734338   -0.653603
 H    6.032022   -0.797498    0.597622
 H    2.819386   -3.304465    0.667765
 H    6.158569    4.255064    0.208196
 H    6.904760    3.601925   -1.260847
 H    5.314602    4.385676   -1.347039
