15 
4b2i_ligand_xtb.xyz
 C   26.637866    4.433908   64.245983
 C   27.317045    5.672692   64.360671
 C   26.871942    6.778558   63.633032
 C   25.774948    6.617662   62.821862
 C   25.112637    5.385911   62.717797
 C   25.526820    4.279099   63.421253
 N   27.298092    3.571704   65.060876
 C   28.366111    5.405881   65.279710
 N   28.332813    4.160654   65.677321
 H   25.016088    3.331512   63.339933
 H   27.099671    2.600573   65.234875
 H   27.380023    7.727831   63.711394
 H   29.118775    6.074610   65.646516
 H   25.406569    7.454275   62.246581
 H   24.254601    5.310128   62.066197
