19 
4b32_ligand_xtb.xyz
 C   -1.854485    1.193462   -0.001370
 O   -3.396745   -0.599112    0.000240
 C   -2.097063   -0.196372    0.000112
 C   -1.046686   -1.077904    0.001239
 C    0.283458   -0.612932    0.000342
 C    0.527529    0.785357    0.000477
 C   -0.575980    1.666113   -0.000593
 C    1.859103    1.246325    0.001202
 C    2.904762    0.365076    0.000530
 C    2.663521   -1.017092   -0.001077
 C    1.383062   -1.495562   -0.000879
 H   -2.705984    1.855327   -0.002927
 H   -3.440925   -1.562940    0.001228
 H   -1.228186   -2.145638    0.002631
 H   -0.390783    2.730574   -0.001197
 H    2.038615    2.312280    0.002033
 H    3.923110    0.725510    0.001235
 H    3.499932   -1.700933   -0.002592
 H    1.194863   -2.560110   -0.002225
