36 
4b3u_ligand_xtb.xyz
 C   -4.136137   -1.598163   -0.340531
 C   -3.186776   -0.901770   -1.069557
 C   -2.492642    0.151099   -0.487855
 C   -1.460998    0.921713   -1.269982
 O   -0.164033    3.242421   -0.578514
 C    0.390227    2.215711   -0.327244
 N   -0.175350    0.965047   -0.556548
 C    0.428347   -0.201410   -0.206831
 N    0.148462   -1.392107   -0.533353
 N    1.701918    2.204434    0.160225
 C    2.457371    1.148377    0.565373
 C    1.602286   -0.108372    0.763356
 N    2.309022   -1.402719    0.655026
 C    3.446702   -1.486291   -0.302817
 C   -3.700156   -0.204127    1.560990
 C   -2.757363    0.497422    0.832118
 O    3.628968    1.198047    0.807005
 C    3.854084   -2.938079   -0.463391
 C   -4.389546   -1.253980    0.975903
 H   -4.677487   -2.408207   -0.803608
 H   -3.002594   -1.166086   -2.101799
 H   -1.775129    1.960664   -1.396480
 H   -1.305143    0.483356   -2.260389
 H   -0.651225   -1.566499   -1.125403
 H    2.155516    3.115206    0.140667
 H    1.179263   -0.015168    1.774930
 H    1.492945   -1.984379    0.242676
 H    2.619925   -1.761746    1.559705
 H    4.277770   -0.886715    0.070925
 H    3.113460   -1.074868   -1.256629
 H   -3.904421    0.075521    2.582988
 H   -2.233822    1.329516    1.281834
 H    4.192162   -3.359823    0.479769
 H    3.031360   -3.537207   -0.846054
 H    4.676300   -3.005967   -1.169083
 H   -5.129122   -1.796701    1.543371
