36 
4b3u_ligand_dft.xyz
 C   -4.334243   -1.330986   -0.234287
 C   -3.243314   -0.890731   -0.980742
 C   -2.456424    0.164830   -0.522400
 C   -1.285850    0.655259   -1.341355
 O    0.166814    2.954617   -0.884466
 C    0.623186    1.929118   -0.455263
 N   -0.029042    0.692871   -0.563474
 C    0.485637   -0.482516   -0.066150
 N    0.091825   -1.676643   -0.248483
 N    1.882643    1.919388    0.163815
 C    2.527950    0.872649    0.759162
 C    1.635309   -0.342782    0.925057
 N    2.383651   -1.632326    0.933023
 C    3.558033   -1.804181   -0.014635
 C   -3.857967    0.340312    1.436619
 C   -2.772690    0.782177    0.689601
 O    3.655241    0.912982    1.191165
 C    3.203122   -1.505118   -1.458633
 C   -4.639114   -0.718841    0.976483
 H   -4.944709   -2.149485   -0.601630
 H   -3.018568   -1.362847   -1.935644
 H   -1.445664    1.675448   -1.690999
 H   -1.123013    0.025791   -2.223291
 H   -0.738161   -1.792350   -0.823315
 H    2.362891    2.813763    0.141901
 H    1.174993   -0.240195    1.916417
 H    1.631101   -2.310984    0.670606
 H    2.706062   -1.836500    1.880903
 H    3.858733   -2.846594    0.111259
 H    4.350591   -1.156115    0.355731
 H   -4.103688    0.829545    2.373797
 H   -2.179446    1.623318    1.041053
 H    2.400906   -2.147923   -1.827314
 H    2.921330   -0.458401   -1.611434
 H    4.093864   -1.686050   -2.065466
 H   -5.489014   -1.059378    1.558919
