10 
4b5s_ligand_dft.xyz
 C   -0.767613    0.282793   -0.000051
 O   -1.006428    1.460990   -0.000236
 O   -1.686880   -0.676705    0.000310
 C    0.672881   -0.282518   -0.000172
 O    0.800818   -1.489571   -0.000257
 C    1.791343    0.708981    0.000147
 H   -1.201030   -1.524921    0.000219
 H    1.705439    1.358825    0.877215
 H    2.751146    0.191827   -0.000430
 H    1.704715    1.361025   -0.875091
