13 
4b5t_ligand_xtb.xyz
 C   -2.670136   -0.067233    0.001505
 C   -1.289140   -0.705615    0.000251
 C   -0.182659    0.288931   -0.001036
 O   -0.284342    1.495478   -0.002731
 C    1.254375   -0.296001   -0.000019
 O    2.159878    0.669477    0.002760
 O    1.494576   -1.469649   -0.001542
 H   -2.796981    0.555837    0.883308
 H   -2.795840    0.561279   -0.876553
 H   -3.441183   -0.832489   -0.001340
 H   -1.145231   -1.349563   -0.872563
 H   -1.143881   -1.349802    0.872736
 H    1.687575    1.531790    0.002312
