12 
4b5w_ligand_xtb.xyz
 C   -0.739914    0.483911    0.011394
 O   -1.511045    0.280962   -0.893812
 O   -0.381579    1.687985    0.431253
 C   -0.133767   -0.724745    0.775713
 O   -0.535833   -1.794380    0.226655
 C    2.555523    0.007762   -0.344759
 H    0.250852    1.620320    1.162907
 H    2.156244    0.772685   -0.999070
 H   -1.128652   -1.636719   -0.566059
 H    1.749212   -0.432264    0.247261
 H    3.024580   -0.766534   -0.937474
 H    3.284366    0.444407    0.325581
