36 
4b6s_ligand_xtb.xyz
 F    1.397665    2.539255    0.203030
 C    1.971013    1.352587   -0.034349
 C    3.299155    1.161314    0.326384
 F    3.990680    2.144666    0.901753
 C    3.905438   -0.067684    0.080352
 F    5.177063   -0.266039    0.419889
 C    3.175584   -1.084755   -0.527004
 F    3.748720   -2.261540   -0.773284
 C    1.846709   -0.863986   -0.875037
 F    1.160832   -1.850798   -1.461697
 C    1.216404    0.352073   -0.639786
 C   -0.231016    0.581255   -0.970993
 C   -1.058535    0.535124    0.328494
 C   -2.578836    0.843880    0.160303
 O   -3.162422    0.940728    1.433662
 C   -2.697456    2.160621   -0.613546
 O   -2.607893    2.263901   -1.805336
 O   -2.864600    3.204242    0.200816
 C   -0.916905   -0.826434    0.981209
 O   -0.258091   -1.007377    1.977230
 C   -1.663012   -1.964613    0.331788
 O   -1.544792   -3.138883    1.087726
 C   -3.157639   -1.597566    0.149317
 O   -3.807709   -2.597396   -0.584047
 C   -3.295237   -0.274945   -0.597967
 H   -0.340432    1.561060   -1.437695
 H   -0.578347   -0.172977   -1.674558
 H   -0.649449    1.274321    1.028222
 H   -2.991100    1.816684    1.803033
 H   -2.923727    4.030825   -0.304775
 H   -1.243977   -2.153295   -0.668195
 H   -1.028713   -2.921271    1.880973
 H   -3.606253   -1.499726    1.149700
 H   -3.584869   -3.446670   -0.181641
 H   -2.901620   -0.367351   -1.608801
 H   -4.356090   -0.034439   -0.668893
