38 
4b70_ligand_xtb.xyz
 C   -3.303079   -1.285537    2.038165
 C   -2.966650   -0.514263    0.758759
 N   -2.916245    0.901623    1.080719
 C   -3.055517    1.881255    0.143429
 C   -3.984944    1.523282   -0.998481
 C   -3.891182    0.033603   -1.323603
 O   -4.013393   -0.748880   -0.155115
 N   -2.488406    2.998153    0.345349
 C   -1.638371   -1.020347    0.188268
 C   -1.610149   -2.275725   -0.409176
 C   -0.431285   -2.765763   -0.940088
 C    0.727868   -2.013904   -0.877892
 C    0.715651   -0.753404   -0.287732
 C   -0.477511   -0.266666    0.241692
 C    1.935158    0.066966   -0.228811
 C    1.880279    1.442068   -0.448245
 C    3.030583    2.207094   -0.395143
 C    4.254737    1.621946   -0.119867
 C    4.306859    0.255321    0.101077
 C    3.165532   -0.523846    0.047998
Cl    5.827520   -0.493839    0.453610
 H   -3.427246   -2.338133    1.805203
 H   -2.502920   -1.168948    2.763818
 H   -4.231722   -0.902475    2.451385
 H   -2.322081    1.153970    1.857075
 H   -5.002739    1.758494   -0.674042
 H   -3.753273    2.123204   -1.879985
 H   -4.710140   -0.280796   -1.974192
 H   -2.935335   -0.180713   -1.825017
 H   -2.706407    3.709595   -0.344496
 H   -2.521506   -2.851427   -0.470705
 H   -0.417829   -3.737746   -1.410660
 H    1.640415   -2.392765   -1.313256
 H   -0.481626    0.710711    0.699852
 H    0.935021    1.910962   -0.676590
 H    2.976857    3.270912   -0.569994
 H    5.155131    2.213705   -0.075629
 H    3.229387   -1.583172    0.242208
