47 
4b7j_ligand_xtb.xyz
 C   -0.888177    2.819894   -0.939435
 O   -1.408854    2.195481   -1.827114
 O   -0.100732    3.864168   -1.137473
 C   -1.022575    2.499521    0.543187
 C   -2.299338    1.710351    0.837940
 C   -2.283807    0.302161    0.233341
 C   -1.046649   -0.469662    0.705737
 N   -0.835586   -1.784749    0.107200
 C   -1.656900   -2.783346   -0.188776
 O   -2.897804   -2.718045   -0.099240
 C   -1.004931   -4.041662   -0.665095
 C    0.227883    0.331447    0.341364
 C    0.203592    1.707858    1.009381
 O    1.318140   -0.454436    0.754969
 C    2.552802   -0.263460    0.043390
 C    3.676127   -0.598298    1.024051
 C    2.581499   -1.150490   -1.210184
 C    3.676834   -0.751442   -2.191715
 C    3.783384    0.425778    2.146799
 N   -3.518747   -0.414577    0.622944
 H   -0.008298    4.077572   -2.081246
 H   -1.047384    3.453435    1.075516
 H   -3.157036    2.255633    0.439996
 H   -2.411378    1.635685    1.922586
 H   -2.266553    0.375366   -0.858292
 H   -1.074368   -0.585835    1.799020
 H    0.166232   -1.970615    0.074506
 H   -0.498533   -4.529125    0.166682
 H   -0.270106   -3.832489   -1.438303
 H   -1.762736   -4.716408   -1.053521
 H    0.243423    0.458586   -0.751882
 H    1.115686    2.251611    0.763513
 H    0.174275    1.578719    2.092351
 H    2.634076    0.788732   -0.258059
 H    4.617212   -0.642009    0.477939
 H    3.476586   -1.584813    1.445036
 H    1.615394   -1.072556   -1.719403
 H    2.720076   -2.190004   -0.904646
 H    4.661901   -0.871120   -1.750922
 H    3.560355    0.286103   -2.496168
 H    3.626155   -1.376107   -3.079438
 H    4.572442    0.142047    2.837046
 H    2.848011    0.483326    2.697384
 H    4.016227    1.410525    1.747756
 H   -4.334419   -0.036219    0.142912
 H   -3.678369   -0.364601    1.630053
 H   -3.343009   -1.559396    0.299534
