44 
4b7z_ligand_xtb.xyz
 S    0.245235   -0.915712    0.612069
 N    0.215719    0.331851   -0.506248
 O    1.543732   -0.744522    1.249456
 C   -3.006641   -1.232038    0.341132
 N    3.047128    0.483523   -0.569800
 O    0.036685   -2.117312   -0.120351
 C   -2.295921   -0.251669    1.025383
 C   -1.086243   -0.620727    1.811346
 C    3.402557   -1.864009   -1.350146
 C   -2.694496    1.076358    0.907770
 C   -3.794127    1.410944    0.139837
 C   -4.516505    0.433974   -0.538521
 C   -4.102414   -0.889530   -0.429031
 C    0.851103    1.581343   -0.143765
 C    2.225250    1.694017   -0.824811
 C   -5.699901    0.807299   -1.371154
 C    4.412516    0.810485   -0.091999
 C    4.391305    1.291042    1.348882
 C    3.054499   -0.437588   -1.739639
 H   -0.650825    0.390012   -1.013740
 H   -2.697473   -2.263071    0.415794
 H    2.566866   -0.050068    0.212140
 H   -0.739276    0.165061    2.475602
 H   -1.195951   -1.557262    2.351024
 H    4.407985   -1.957442   -0.949918
 H    2.690167   -2.240286   -0.620336
 H    3.339235   -2.493828   -2.232870
 H   -2.157947    1.848714    1.441441
 H   -4.103234    2.443366    0.072236
 H   -4.650049   -1.662842   -0.945570
 H    0.994490    1.606210    0.940427
 H    0.235815    2.433907   -0.434160
 H    2.100927    1.817062   -1.901838
 H    2.737052    2.574602   -0.435944
 H   -6.291494    1.574337   -0.877054
 H   -5.370979    1.208445   -2.330056
 H   -6.329787   -0.056472   -1.563480
 H    4.848896    1.559454   -0.757617
 H    5.015299   -0.095198   -0.152248
 H    3.884104    2.245846    1.458325
 H    3.897000    0.556371    1.980151
 H    5.410443    1.415148    1.703352
 H    3.757374   -0.045899   -2.479840
 H    2.048442   -0.437124   -2.161144
