41 
4b80_ligand_dft.xyz
 S    0.140586    0.386533    0.896557
 N    0.152372    0.177931   -0.777548
 O    0.019760   -0.897227    1.577629
 C   -3.179026   -0.326130    1.177103
 N    3.296734   -0.093636   -0.181127
 O    1.327694    1.201221    1.212837
 C   -2.563817    0.757902    0.541611
 C   -1.333643    1.392939    1.127516
 C    4.201272   -2.466021   -0.047933
 C   -3.091916    1.239311   -0.660894
 C   -4.219003    0.653589   -1.225342
 C   -4.807047   -0.419856   -0.570718
 C   -4.304434   -0.920604    0.623835
 C    1.097241   -0.835663   -1.272240
 C    2.517940   -0.304657   -1.447427
 C    4.600139    0.613158   -0.451228
 C    3.471638   -1.337149    0.657249
 C    4.402805    2.090766   -0.752608
 F   -5.886709   -0.987538   -1.104601
 H   -0.800747   -0.041981   -1.069022
 H   -2.773632   -0.710550    2.108027
 H    2.720925    0.543876    0.407923
 H   -1.098531    2.363330    0.683696
 H   -1.385032    1.509572    2.215253
 H    3.632439   -2.874188   -0.887942
 H    5.191592   -2.166001   -0.401987
 H    4.343509   -3.278624    0.668868
 H   -2.630506    2.090355   -1.155402
 H   -4.649732    1.022149   -2.149265
 H   -4.798230   -1.757169    1.104768
 H    0.754830   -1.100184   -2.275648
 H    1.068106   -1.756163   -0.676026
 H    3.093988   -0.996306   -2.065696
 H    2.470982    0.659689   -1.954513
 H    5.096379    0.089749   -1.272015
 H    5.206837    0.488122    0.448220
 H    2.475914   -1.640200    0.988840
 H    4.013917   -1.010455    1.547476
 H    3.896772    2.267603   -1.704865
 H    3.839922    2.587302    0.043750
 H    5.385032    2.565880   -0.814505
