41 
4b80_ligand_xtb.xyz
 S    0.145321   -0.676936   -0.676677
 N    0.206756   -0.271304    0.967435
 O    0.045929    0.530570   -1.442564
 C   -3.035219   -0.002679   -1.281548
 N    3.145847    0.227560    0.125540
 O    1.363760   -1.433680   -0.906928
 C   -2.496227   -0.943904   -0.408570
 C   -1.308361   -1.743198   -0.821497
 C    3.964416    2.555237   -0.424490
 C   -3.035180   -1.083385    0.868359
 C   -4.103401   -0.302004    1.270575
 C   -4.619312    0.628438    0.383451
 C   -4.099024    0.788509   -0.890886
 C    0.978636    0.934052    1.246739
 C    2.467830    0.609801    1.385311
 C    4.471646   -0.389694    0.396432
 C    3.213576    1.317860   -0.887329
 C    4.330031   -1.837792    0.835098
 F   -5.644007    1.394948    0.771103
 H   -0.735606   -0.203511    1.325571
 H   -2.616043    0.112109   -2.268529
 H    2.549887   -0.528063   -0.315057
 H   -1.108068   -2.596648   -0.180234
 H   -1.340491   -2.048547   -1.864998
 H    3.443015    3.079385    0.371116
 H    4.971529    2.315262   -0.095118
 H    4.046062    3.239570   -1.264245
 H   -2.635867   -1.825355    1.544847
 H   -4.540120   -0.408040    2.250486
 H   -4.530679    1.517826   -1.556924
 H    0.643614    1.340256    2.202404
 H    0.801195    1.687639    0.470691
 H    2.984351    1.471939    1.811107
 H    2.556587   -0.230829    2.074958
 H    4.993924    0.197764    1.154185
 H    5.049655   -0.355212   -0.528082
 H    2.193950    1.574406   -1.180315
 H    3.703618    0.898283   -1.768099
 H    3.886346   -1.929223    1.822425
 H    3.719203   -2.389479    0.124229
 H    5.312672   -2.299431    0.871723
