42 
4b83_ligand_xtb.xyz
 N   -0.533987   -1.108053    0.979309
 O   -1.020710    0.075263   -1.112800
 S    0.050026   -0.732838   -0.545335
 C    5.271253   -1.523924    0.165695
 N   -3.173352    0.199921    0.384150
 O    0.360069   -1.976286   -1.159963
 C    3.733861    1.775396    0.126444
 C    3.846104    0.376678    0.078530
 C    2.692928   -0.379297   -0.137283
 C   -2.671983   -0.195014    1.721090
 C    1.489491    0.277584   -0.310604
 C    1.370506    1.649733   -0.277977
 C    2.519919    2.400075   -0.054935
 C   -1.141532   -0.084393    1.800440
 C   -3.739437   -2.030846   -0.546909
 C   -4.267277   -0.678484   -0.098459
 O    5.074760   -0.126368    0.251224
 C   -3.531146    1.640608    0.337137
 C   -3.542344    2.179315   -1.084501
 H   -0.007702   -1.822296    1.450141
 H    4.727610   -2.051735    0.954235
 H    4.970129   -1.909160   -0.811840
 H    6.340104   -1.675504    0.301387
 H   -2.358085    0.079996   -0.297235
 H    4.632877    2.345845    0.295226
 H    2.704273   -1.454321   -0.205710
 H   -2.942722   -1.233814    1.909878
 H   -3.141358    0.430944    2.482839
 H    0.416216    2.116314   -0.457987
 H    2.461644    3.476533   -0.030564
 H   -0.813863    0.900048    1.451736
 H   -0.833052   -0.195274    2.841031
 H   -2.964735   -1.906330   -1.299663
 H   -3.326876   -2.609141    0.274833
 H   -4.551016   -2.605494   -0.983921
 H   -4.739320   -0.186275   -0.948257
 H   -5.009758   -0.783246    0.697008
 H   -2.781994    2.185275    0.914508
 H   -4.503720    1.775371    0.817769
 H   -2.623624    1.904376   -1.597298
 H   -4.386963    1.811759   -1.659511
 H   -3.612100    3.263004   -1.057154
