38 
4b85_ligand_dft.xyz
 O   -0.876762   -0.517660   -1.139458
 S   -0.038302   -1.338693   -0.251746
 O    0.075800   -2.769633   -0.408729
 N   -0.731983   -1.106359    1.249660
 C   -1.099275    0.228405    1.709651
 C   -2.613444    0.431504    1.633032
 N   -3.107493    0.361525    0.215499
 C   -3.118420    1.712259   -0.455638
 C   -4.262026    2.614047   -0.026328
 C    1.571165   -0.606869   -0.234151
 C    1.744699    0.703503   -0.675792
 C    3.007444    1.277871   -0.612257
 C    4.073056    0.532317   -0.111393
 C    3.899549   -0.784692    0.314588
 C    2.639108   -1.360599    0.252271
 C   -4.392225   -0.410668    0.091832
 C   -4.813631   -0.602240   -1.354564
Cl    5.646730    1.250528   -0.029894
 H   -0.383035   -1.758133    1.943447
 H   -0.565946    0.996786    1.137982
 H   -0.791964    0.350748    2.751310
 H   -2.904179    1.395388    2.055280
 H   -3.111926   -0.356890    2.199313
 H   -2.393886   -0.173834   -0.320435
 H   -3.142523    1.521931   -1.530053
 H   -2.148193    2.162404   -0.231088
 H   -5.234836    2.224909   -0.337286
 H   -4.284867    2.787832    1.053464
 H   -4.130226    3.585710   -0.508953
 H    0.911803    1.255428   -1.097343
 H    3.170556    2.291417   -0.960335
 H    4.746906   -1.353143    0.680400
 H    2.494033   -2.392831    0.553981
 H   -5.149586    0.108860    0.683826
 H   -4.194347   -1.377498    0.561114
 H   -5.131960    0.329982   -1.828059
 H   -4.007296   -1.045485   -1.947859
 H   -5.662078   -1.290311   -1.380711
