38 
4b85_ligand_xtb.xyz
 O   -0.824246   -0.093070   -1.088553
 S   -0.092990   -0.814314   -0.058282
 O   -0.265920   -2.224525    0.021511
 N   -0.748823   -0.193659    1.357117
 C   -1.235790    1.167369    1.378731
 C   -2.765124    1.194639    1.208556
 N   -3.177519    0.453750   -0.011190
 C   -4.098468    1.230262   -0.881590
 C   -5.476272    1.450858   -0.277822
 C    1.623558   -0.369263   -0.100783
 C    2.019013    0.795385   -0.732441
 C    3.360188    1.132168   -0.748750
 C    4.286249    0.294867   -0.131868
 C    3.877063   -0.880174    0.494776
 C    2.535570   -1.212615    0.509100
 C   -3.661030   -0.915718    0.316591
 C   -3.819502   -1.782504   -0.920415
Cl    5.949117    0.708351   -0.155256
 H   -0.346817   -0.554628    2.204017
 H   -0.775942    1.720364    0.554457
 H   -0.973845    1.662279    2.314858
 H   -3.085571    2.234469    1.132637
 H   -3.243943    0.745300    2.079950
 H   -2.292810    0.286992   -0.572909
 H   -4.188086    0.700781   -1.830149
 H   -3.619677    2.190614   -1.083260
 H   -6.042439    0.526529   -0.215415
 H   -5.418426    1.896622    0.711429
 H   -6.031491    2.131143   -0.917542
 H    1.285314    1.411901   -1.226713
 H    3.693700    2.031198   -1.241322
 H    4.606687   -1.525237    0.957033
 H    2.187737   -2.125651    0.965500
 H   -4.601254   -0.835866    0.865001
 H   -2.906312   -1.367800    0.962480
 H   -4.649367   -1.467254   -1.546349
 H   -2.901614   -1.780853   -1.503188
 H   -4.010019   -2.805366   -0.608313
