93 
4b8y_ligand_dft.xyz
 N   -2.747762   -0.134706   -2.276306
 C   -2.124377   -0.123449   -3.590796
 C   -0.621762    0.066731   -3.364886
 O   -0.250933    1.162932   -2.941530
 N    0.248016   -0.949865   -3.541095
 C   -0.003851   -2.341958   -3.882790
 C    0.646620   -3.217884   -2.809541
 O    1.845440   -3.475500   -2.842881
 N   -0.167422   -3.609780   -1.801709
 C    0.378513   -4.235170   -0.610355
 C    0.938501   -3.135230    0.292361
 O    0.272584   -2.656318    1.213801
 C    2.095775   -0.400188   -0.744947
 C    2.613499   -1.351002    0.343646
 C    4.136623   -1.282556    0.428187
 C    4.698963   -2.213836    1.499519
 C    6.226796   -2.229433    1.566271
 C    6.660879   -0.311082    3.053764
 C    7.028471    1.154104    3.111481
 N    2.157301   -2.677750   -0.065304
 N    6.841255   -0.935449    1.836624
 O    2.587299   -0.490733   -1.869157
 O    6.933144   -0.095525    0.722298
 O    6.263554   -0.946704    4.015117
 C   -1.180205    0.541582    0.346775
 C    0.306764    0.677222    0.718994
 C    0.631395    2.026766    1.394239
 C    1.096187    3.175301    0.493096
 C    0.064813    3.728773   -0.497801
 C    0.468481    6.208286   -0.646000
 C   -0.603444    6.506487    0.377620
 N    1.071659    0.447951   -0.498757
 N    0.534135    4.943407   -1.130737
 O   -1.839569    1.498371   -0.056356
 O    1.624434    4.708253   -1.968694
 O    1.242346    7.063818   -1.079244
 C   -2.831520   -1.288794   -1.578979
 C   -2.970065   -1.150210   -0.056782
 C   -4.174102   -0.317298    0.397649
 C   -4.237371   -0.182078    1.917498
 C   -5.423156    0.651876    2.410989
 C   -7.356561   -0.939673    2.730433
 C   -6.901160   -1.312412    4.121883
 N   -1.672930   -0.710814    0.462095
 N   -6.727351    0.097725    2.122363
 O   -2.727366   -2.397582   -2.108221
 O   -7.138954    0.330097    0.809052
 O   -8.287801   -1.498085    2.150171
 H   -2.649853    0.722026   -1.733708
 H   -2.480936    0.745953   -4.145282
 H   -2.409704   -1.027747   -4.124579
 H    1.205604   -0.719495   -3.257009
 H   -1.076041   -2.529107   -3.937128
 H    0.463760   -2.586581   -4.840427
 H   -1.141030   -3.307606   -1.799854
 H   -0.419659   -4.753316   -0.078506
 H    1.151210   -4.950623   -0.903013
 H    2.181656   -1.155716    1.325198
 H    4.415839   -0.244870    0.641601
 H    4.555761   -1.510636   -0.557865
 H    4.362054   -3.240212    1.309390
 H    4.313806   -1.933073    2.486343
 H    6.552044   -2.901093    2.363684
 H    6.656439   -2.585212    0.624741
 H    6.957310    1.476656    4.150378
 H    8.041538    1.327881    2.737652
 H    6.349333    1.746335    2.491497
 H    2.506261   -3.004399   -0.967118
 H    7.846998   -0.191143    0.417668
 H    0.533097   -0.128414    1.419493
 H   -0.241555    2.338321    1.980007
 H    1.437941    1.838685    2.112734
 H    1.404027    3.997047    1.152362
 H    1.990644    2.876092   -0.062013
 H   -0.878812    3.953240    0.001565
 H   -0.169453    3.016992   -1.291664
 H   -1.591364    6.188476    0.032217
 H   -0.395778    6.001125    1.327005
 H   -0.608885    7.583683    0.545032
 H    0.771129    0.953993   -1.338388
 H    2.001927    5.612579   -2.030951
 H   -3.098291   -2.171920    0.309893
 H   -4.148870    0.678351   -0.049438
 H   -5.076232   -0.810935    0.024548
 H   -4.272348   -1.175757    2.384101
 H   -3.322587    0.302442    2.278388
 H   -5.404028    1.649078    1.961248
 H   -5.359209    0.785616    3.494359
 H   -6.906768   -0.448157    4.792921
 H   -5.889255   -1.730361    4.112880
 H   -7.590773   -2.065896    4.502380
 H   -1.037204   -1.447366    0.769515
 H   -7.869725   -0.323417    0.733906
