44 
4b95_ligand_dft.xyz
 O    3.481074   -1.005822    2.811345
 C    2.564988   -1.381373    1.808815
 C    3.187927   -2.093604    0.599102
 C    2.190006   -1.818081   -0.517786
 C    0.987840   -2.785547   -0.470865
 N    0.111299   -2.622512   -1.492258
 C   -1.265096   -3.075834   -1.364078
 C   -2.127434   -2.030799   -0.681428
 C   -1.945097   -1.754862    0.678696
 C   -2.683398   -0.763548    1.312554
 C   -3.620303   -0.042184    0.577877
Cl   -4.543375    1.219468    1.365577
 C   -3.824558   -0.297577   -0.771592
 C   -3.070675   -1.291822   -1.392789
 O    0.825658   -3.574389    0.452330
 N    1.703622   -0.466474   -0.189316
 C    1.136828    0.327165   -1.123054
 C    0.656766    1.672854   -0.655891
 C    1.489513    2.769968   -0.451192
Cl    3.211346    2.629218   -0.733017
 C    0.974597    3.994463   -0.039029
 C   -0.393681    4.122137    0.174679
 C   -1.242688    3.038732   -0.036265
 C   -0.716359    1.825030   -0.458753
 O    0.937161   -0.041359   -2.280874
 C    1.966793   -0.105848    1.205991
 H    3.733295   -1.800871    3.294405
 H    1.767422   -2.012804    2.218259
 H    3.331153   -3.162711    0.765546
 H    4.148937   -1.621471    0.370660
 H    2.632206   -1.805419   -1.517664
 H    0.285963   -1.822139   -2.099220
 H   -1.250951   -4.002929   -0.786808
 H   -1.654302   -3.300589   -2.361050
 H   -1.216122   -2.328747    1.243416
 H   -2.538582   -0.552867    2.366543
 H   -4.555436    0.275269   -1.331781
 H   -3.222637   -1.485573   -2.451326
 H    1.643664    4.835044    0.108663
 H   -0.795377    5.075809    0.502311
 H   -2.311285    3.136315    0.125504
 H   -1.367457    0.976403   -0.642740
 H    2.711223    0.694391    1.271117
 H    1.051381    0.215070    1.709308
