118 
4ba3_ligand_xtb.xyz
 N    4.487639   -2.569764   -0.729190
 C    5.453850   -1.475291   -0.632894
 C    4.727785   -0.154380   -0.823745
 O    3.609730   -0.073457   -1.327155
 C    6.599866   -1.563822   -1.672552
 C    7.862683   -2.270441   -1.157389
 C    8.941910   -2.204434   -2.235978
 C    7.602030   -3.724096   -0.768567
 N    5.413864    0.927171   -0.422628
 C    5.042895    2.292836   -0.745629
 C    3.933268    2.859306    0.142881
 O    4.094252    3.896244    0.787568
 N    2.803862    2.167491    0.091542
 C    1.620199    2.366353    0.903483
 C    1.126563    0.949334    1.250787
 O    1.863938   -0.007850    1.089891
 C    0.582305    3.223154    0.158981
 C    1.084228    4.646614   -0.105288
 C    1.044715    5.536693    1.143974
 C    1.984043    6.734037    1.028615
 N    3.360274    6.350885    1.451027
 N   -0.102085    0.837699    1.765754
 C   -0.802808   -0.425149    1.903371
 C   -2.251098   -0.139681    1.482666
 O   -2.627199    1.015613    1.340148
 C   -0.754330   -0.942138    3.354368
 C    0.663919   -1.333551    3.792436
 C    0.985543   -2.828470    3.675683
 N    0.791541   -3.409377    2.350967
 C    1.727874   -3.445716    1.386604
 N    1.595814   -4.340280    0.404760
 N    2.776297   -2.653002    1.398394
 N   -3.027166   -1.213230    1.301973
 C   -4.465484   -1.222914    1.024756
 C   -4.788377   -0.776982   -0.414570
 O   -5.500235   -1.471512   -1.132820
 C   -5.275819   -0.383011    2.035445
 C   -6.577960   -1.057974    2.486138
 C   -7.493898   -1.557088    1.364881
 C   -8.029072   -0.445129    0.459803
 N   -8.109746   -0.925573   -0.941372
 N   -4.277131    0.403779   -0.750971
 C   -4.237888    0.953679   -2.091706
 C   -5.625070    1.304895   -2.619339
 O   -6.659573    1.013348   -2.070601
 C   -3.539574   -0.020176   -3.071599
 C   -2.215227   -0.471452   -2.519698
 C   -1.093627    0.347158   -2.579536
 C   -2.087249   -1.725194   -1.935030
 C    0.129065   -0.083797   -2.099539
 C   -0.872624   -2.162049   -1.443891
 C    0.256918   -1.352268   -1.541840
 O    1.437292   -1.838107   -1.093045
 O   -5.543843    1.964673   -3.753580
 H    3.414877   -2.618000    0.562619
 H    4.994462   -3.449710   -0.761114
 H    3.973299   -2.475557   -1.602117
 H    5.880574   -1.497076    0.376917
 H    6.228345   -2.088012   -2.556694
 H    6.882480   -0.560133   -1.996950
 H    8.223363   -1.734165   -0.271679
 H    9.861344   -2.656100   -1.875976
 H    8.625926   -2.741884   -3.126660
 H    9.156318   -1.175126   -2.513038
 H    6.943724   -3.801606    0.095537
 H    8.540526   -4.203221   -0.504389
 H    7.175211   -4.275292   -1.604520
 H    6.318533    0.791464    0.001698
 H    5.922265    2.929795   -0.651047
 H    4.684133    2.329040   -1.781709
 H    2.822526    1.300777   -0.456758
 H    1.919016    2.858107    1.837997
 H    0.360274    2.736520   -0.791862
 H   -0.342955    3.280169    0.732078
 H    2.095779    4.596252   -0.506614
 H    0.458142    5.098510   -0.874691
 H    1.312674    4.965512    2.034329
 H    0.027239    5.897461    1.290293
 H    2.017968    7.081454   -0.004480
 H    1.640960    7.558716    1.654356
 H    3.434997    6.341527    2.472872
 H    3.604963    5.365377    1.120066
 H    4.062186    7.002952    1.089596
 H   -0.721403    1.637496    1.834309
 H   -0.342453   -1.150596    1.223130
 H   -1.427108   -1.793075    3.464443
 H   -1.124156   -0.144698    4.000783
 H    0.793586   -1.080905    4.844797
 H    1.383431   -0.745385    3.227620
 H    2.021588   -2.986341    3.989487
 H    0.343052   -3.380037    4.363096
 H    0.077004   -4.118906    2.293422
 H    2.171902   -4.257382   -0.415211
 H    0.874536   -5.039947    0.404932
 H    2.758429   -1.828532    1.975260
 H   -2.590461   -2.118562    1.367681
 H   -4.768967   -2.269593    1.108863
 H   -4.662660   -0.227334    2.924054
 H   -5.478981    0.603889    1.619836
 H   -6.329380   -1.915961    3.112370
 H   -7.124752   -0.350002    3.109195
 H   -8.323399   -2.092915    1.825813
 H   -6.947861   -2.274568    0.751437
 H   -7.356112    0.411985    0.456905
 H   -9.012291   -0.107734    0.788260
 H   -8.789566   -1.682502   -1.049925
 H   -8.327691   -0.146338   -1.574172
 H   -7.141126   -1.255293   -1.208768
 H   -3.747409    0.898526   -0.034113
 H   -3.662651    1.882062   -2.044414
 H   -4.183183   -0.886381   -3.229138
 H   -3.405781    0.494869   -4.022721
 H   -1.169369    1.321483   -3.039988
 H   -2.941976   -2.383739   -1.891554
 H    1.007425    0.538876   -2.194250
 H   -0.771137   -3.151585   -1.024575
 H    2.146362   -1.171960   -1.199368
 H   -6.410952    2.197989   -4.127064
