63 
4bah_ligand_xtb.xyz
 C   -3.490864   -0.307329    0.056700
 C   -4.270807   -1.159854    1.063025
 C   -5.668226   -1.458526    0.521376
 C   -5.582075   -2.166673   -0.826888
 C   -4.792118   -1.323882   -1.823031
 C   -3.390534   -1.036480   -1.286240
 N   -1.192981   -1.047396    0.738829
 C   -2.118023    0.101616    0.617488
 C   -1.337445    1.028631   -0.337839
 O   -0.536407    0.496274   -1.098595
 N   -1.566452    2.334000   -0.300412
 C   -0.543824    3.321065   -0.618395
 C    0.770398    2.851521    0.036581
 O    0.736296    2.027116    0.932711
 N    1.884770    3.409364   -0.438244
 C    3.195613    2.960127    0.008717
 C    3.381511    1.480930   -0.234532
 C    4.065919    0.694996    0.683574
 C    4.174088   -0.669943    0.499136
 C    3.597299   -1.278538   -0.612155
 C    2.944767   -0.483626   -1.552183
 C    2.844372    0.880374   -1.366172
 C    3.493608   -2.755009   -0.717747
 N    3.256610   -3.526332    0.283036
 N    3.458466   -3.279215   -1.963945
 C   -1.327344    4.348966    0.221212
 C   -2.258096    3.201120    0.640698
 C   -0.192558   -0.890946    1.806757
 C    0.941690   -1.914575    1.688125
 O    1.887327   -1.893554    2.419005
 O    0.739075   -2.765307    0.700956
 H   -4.050797    0.620553   -0.102700
 H   -3.758545   -2.109549    1.241791
 H   -4.351696   -0.635188    2.017451
 H   -6.219108   -0.523323    0.406392
 H   -6.210701   -2.078872    1.235117
 H   -5.095809   -3.136556   -0.701547
 H   -6.585633   -2.347203   -1.210961
 H   -5.315526   -0.382430   -1.999584
 H   -4.716299   -1.846793   -2.776412
 H   -2.836766   -0.430884   -2.005139
 H   -2.864412   -1.987171   -1.169894
 H   -0.674311   -0.990163   -0.190917
 H   -1.675982   -1.946402    0.814233
 H   -2.245552    0.576896    1.593110
 H   -0.423678    3.526096   -1.682633
 H    1.835583    4.065211   -1.200745
 H    3.950547    3.536468   -0.529603
 H    3.296293    3.163146    1.079222
 H    4.499907    1.149327    1.561062
 H    4.698982   -1.267543    1.229519
 H    2.474213   -0.936135   -2.411966
 H    2.316011    1.471593   -2.098942
 H    3.371906   -3.072440    1.185697
 H    3.859752   -2.768987   -2.730511
 H    3.450505   -4.284271   -2.026205
 H   -0.761356    4.802871    1.029501
 H   -1.810322    5.120228   -0.370628
 H   -3.313392    3.332596    0.400890
 H   -2.149078    2.893347    1.682515
 H    0.269778    0.101217    1.725604
 H   -0.655529   -0.982284    2.791848
 H    1.573699   -3.326306    0.537722
