64 
4bao_ligand_xtb.xyz
 C    3.131895    0.170864    0.211699
 C    3.108910    1.380404   -0.721637
 C    4.511239    1.682276   -1.245854
 C    5.086477    0.471891   -1.972375
 C    5.118299   -0.731841   -1.037627
 C    3.717742   -1.041151   -0.514809
 N    1.188300    1.005439    1.496774
 C    1.744035   -0.159077    0.803067
 C    0.736804   -0.569422   -0.260860
 O    0.177188    0.245952   -0.999622
 N    0.466135   -1.870372   -0.339241
 C   -0.597554   -2.547943   -1.067761
 C   -1.964742   -2.029583   -0.623764
 O   -2.131179   -1.576503    0.493586
 N   -2.950192   -2.122469   -1.535414
 C   -4.185398   -1.359972   -1.355456
 C   -3.752561    0.065531   -1.124703
 C   -2.942076    0.664317   -2.086479
 C   -2.164855    1.751956   -1.761883
 C   -2.231123    2.288820   -0.476660
 C   -3.171698    1.804248    0.428924
 C   -3.915160    0.683909    0.107246
 C   -1.180814    3.216323   -0.042741
 N   -1.489409    4.323088    0.616211
 N    0.044565    2.868737   -0.321166
 C   -0.170303   -3.864920   -0.388555
 C    0.861121   -3.053612    0.408150
 C   -0.077109    0.695744    2.154672
 C    0.080480   -0.389930    3.228501
 O    0.967311   -0.337886    4.052673
 N   -0.810728   -1.394029    3.146178
 H    3.783213    0.407528    1.061011
 H    2.442759    1.182086   -1.562828
 H    2.731679    2.244788   -0.174027
 H    5.162985    1.943785   -0.409594
 H    4.472818    2.539172   -1.920732
 H    6.093954    0.694114   -2.325802
 H    4.468416    0.241541   -2.843073
 H    5.779350   -0.520119   -0.195016
 H    5.514094   -1.603166   -1.561551
 H    3.766756   -1.891894    0.168531
 H    3.070751   -1.309829   -1.354163
 H    0.831055    3.411064    0.005391
 H    1.851455    1.275177    2.221767
 H    1.878666   -1.007770    1.492544
 H   -0.484306   -2.499667   -2.153583
 H   -2.739759   -2.469252   -2.457165
 H   -4.798128   -1.476893   -2.248490
 H   -4.726228   -1.744300   -0.487671
 H   -2.858134    0.225159   -3.068862
 H   -1.479055    2.165270   -2.483017
 H   -3.245017    2.229624    1.418424
 H   -4.570932    0.248054    0.844247
 H   -2.452255    4.584367    0.753386
 H   -0.776439    4.951769    0.954616
 H    0.228330    1.885344   -0.638951
 H    0.258825   -4.593007   -1.069883
 H   -0.946932   -4.332586    0.209838
 H    1.901633   -3.338331    0.249845
 H    0.655747   -2.977909    1.477753
 H   -0.814627    0.393183    1.409282
 H   -0.424576    1.605963    2.652158
 H   -1.487486   -1.449358    2.399267
 H   -0.797542   -2.112155    3.853304
