53 
4bb2_ligand_xtb.xyz
 C    2.909407   -1.599783   -0.286768
 C    4.417069   -1.592082   -0.071618
 C    5.024149   -0.298098   -0.561481
 O    6.128891   -0.236237   -1.058236
 C    4.192463    0.880036   -0.330848
 C    2.940744    0.853715    0.141983
 C    2.233056    2.129401    0.474221
 C    0.849235    2.181894   -0.166396
 C    0.026703    0.971669    0.264795
 C    0.747852   -0.321016   -0.155875
 C    2.191324   -0.431644    0.415336
 C   -0.106059   -1.553719    0.171375
 C   -1.505896   -1.483071   -0.447321
 C   -2.224556   -0.216674    0.010491
 C   -1.348487    0.981070   -0.396128
 C   -2.262122    2.183704   -0.172752
 C   -3.645716    1.665616   -0.605852
 C   -3.529451    0.133172   -0.755447
 C   -2.530538   -0.277618    1.509123
 C    2.197045   -0.659684    1.937088
 C   -4.753506   -0.595002   -0.236761
 O   -5.541473   -0.088160    0.522341
 C   -4.921141   -2.015292   -0.720335
 H    2.716718   -1.537966   -1.360949
 H    2.509041   -2.549066    0.071362
 H    4.653910   -1.685179    0.991388
 H    4.887260   -2.430548   -0.588193
 H    4.675794    1.826612   -0.534589
 H    2.121306    2.192886    1.560765
 H    2.832203    2.982706    0.152660
 H    0.345991    3.103158    0.129481
 H    0.952673    2.187481   -1.253953
 H   -0.090278    1.005723    1.350594
 H    0.854017   -0.274815   -1.247923
 H    0.384669   -2.449818   -0.209579
 H   -0.201930   -1.661200    1.250680
 H   -2.060946   -2.378301   -0.161497
 H   -1.417124   -1.479200   -1.536879
 H   -1.182589    0.897082   -1.477974
 H   -1.956833    3.046247   -0.762939
 H   -2.259737    2.475710    0.877266
 H   -4.409344    1.899696    0.135633
 H   -3.956251    2.111977   -1.549926
 H   -3.390893   -0.135048   -1.806669
 H   -3.029865   -1.215510    1.746190
 H   -3.192648    0.530101    1.803897
 H   -1.630130   -0.218003    2.111981
 H    3.195995   -0.497096    2.335710
 H    1.897852   -1.677257    2.173992
 H    1.522677    0.026048    2.441355
 H   -5.970147   -2.296860   -0.671527
 H   -4.542915   -2.147895   -1.729102
 H   -4.367280   -2.676060   -0.055084
