52 
4bbe_ligand_dft.xyz
 O    7.229011   -2.104954   -0.578167
 C    6.437307   -2.909370   -0.125975
 N    5.140951   -2.602236    0.224778
 C    4.472223   -1.369426    0.145989
 C    5.064002   -0.202524   -0.347772
 C    6.790978   -4.369073    0.100253
 C    2.418393   -0.150991    0.536194
 C    3.001305    1.026225    0.055831
 C    2.211037    2.278841    0.021749
 C    2.801009    3.543167    0.015691
 C    1.936038    4.631269   -0.008530
 N    0.614665    4.518001   -0.018653
 C    0.147026    3.253471   -0.000217
 N    0.878818    2.139051    0.015120
 N   -1.218007    3.170980    0.003479
 C   -2.081210    2.064198    0.037328
 C   -3.423827    2.312054    0.355235
 C   -4.350375    1.286279    0.392529
 C   -3.981391   -0.034031    0.099882
 C   -2.643792   -0.272766   -0.220320
 C   -1.701044    0.753185   -0.248835
 C    3.142868   -1.328706    0.585751
 N   -4.958625   -1.056259    0.170866
 C    4.325682    0.973287   -0.383998
 C   -6.099309   -0.901972   -0.731002
 C   -7.193569   -1.887051   -0.343840
 O   -6.717986   -3.215709   -0.361170
 C   -5.628972   -3.363959    0.523311
 C   -4.481466   -2.429108    0.159345
 H    4.588246   -3.364512    0.589457
 H    6.085026   -0.227953   -0.700273
 H    6.183620   -5.018488   -0.539715
 H    7.843069   -4.511029   -0.145326
 H    6.620977   -4.662032    1.141919
 H    1.389724   -0.127015    0.879556
 H    3.873423    3.684050    0.057002
 H    2.326349    5.647299   -0.012932
 H   -1.653568    4.081156    0.039114
 H   -3.740563    3.323608    0.599148
 H   -5.373683    1.505373    0.682360
 H   -2.310604   -1.274477   -0.469657
 H   -0.672800    0.537572   -0.502371
 H    2.673129   -2.230269    0.973162
 H    4.798377    1.861151   -0.793131
 H   -5.799206   -1.082532   -1.778730
 H   -6.488844    0.116924   -0.665699
 H   -8.020424   -1.841000   -1.057405
 H   -7.572842   -1.632924    0.659417
 H   -5.308360   -4.406680    0.452610
 H   -5.948614   -3.158586    1.557776
 H   -3.679723   -2.536603    0.897239
 H   -4.083008   -2.722477   -0.829544
