52 
4bbe_ligand_xtb.xyz
 O    7.144314   -2.125208   -0.684487
 C    6.370372   -2.902569   -0.178466
 N    5.099283   -2.589480    0.216942
 C    4.426647   -1.368211    0.144446
 C    4.989420   -0.224008   -0.415032
 C    6.708268   -4.355096    0.093620
 C    2.417246   -0.129936    0.618080
 C    2.979555    1.024404    0.073094
 C    2.201523    2.267053    0.055021
 C    2.794527    3.531940    0.054723
 C    1.933773    4.618174    0.060407
 N    0.621887    4.492853    0.059321
 C    0.140567    3.238552    0.056171
 N    0.877284    2.132684    0.059649
 N   -1.212735    3.172693    0.059485
 C   -2.074149    2.081552    0.035580
 C   -3.442574    2.322882    0.162686
 C   -4.348775    1.286247    0.143064
 C   -3.928800   -0.037627   -0.016071
 C   -2.559351   -0.269264   -0.146145
 C   -1.646490    0.767688   -0.119321
 C    3.130073   -1.307393    0.657166
 N   -4.874629   -1.065378    0.026564
 C    4.270899    0.954262   -0.444707
 C   -6.015650   -0.988209   -0.867160
 C   -7.138568   -1.868911   -0.317881
 O   -6.712868   -3.204722   -0.181072
 C   -5.596380   -3.279645    0.672707
 C   -4.425440   -2.435163    0.158246
 H    4.559184   -3.336419    0.632821
 H    5.985164   -0.266406   -0.822764
 H    6.018793   -5.008578   -0.437069
 H    7.720750   -4.554158   -0.244596
 H    6.640950   -4.563154    1.159666
 H    1.417630   -0.081354    1.020719
 H    3.862348    3.663745    0.076741
 H    2.306117    5.635358    0.069593
 H   -1.649616    4.084197    0.097806
 H   -3.795983    3.337092    0.287343
 H   -5.398200    1.504802    0.269343
 H   -2.187289   -1.271900   -0.288149
 H   -0.594668    0.569873   -0.233851
 H    2.684499   -2.193137    1.089869
 H    4.718604    1.824614   -0.899833
 H   -5.742254   -1.351775   -1.872607
 H   -6.359959    0.040858   -0.952259
 H   -7.987602   -1.885909   -1.003227
 H   -7.462546   -1.478786    0.659161
 H   -5.317586   -4.333710    0.720155
 H   -5.873803   -2.929067    1.678838
 H   -3.614040   -2.481944    0.885591
 H   -4.079840   -2.848749   -0.803913
