54 
4bcb_ligand_xtb.xyz
 C    2.315734   -2.142827    1.015529
 C    2.906262   -2.716012   -0.273093
 C    2.714824   -1.751594   -1.449986
 C    3.392072   -0.431570   -1.210021
 C    4.778635   -0.351756   -1.149138
 C    2.647099    0.726378   -1.022697
 C    5.406527    0.854507   -0.897136
 C    3.273704    1.935896   -0.770579
 C    4.654823    2.001469   -0.703021
 C    0.804079   -2.094015    0.920231
 O    0.148838   -2.980142    0.402412
 O   -0.695710    0.220065   -0.683479
 C   -1.557711   -0.324931   -0.020375
 C   -1.252939   -0.912140    1.366715
 C   -1.620280    0.053704    2.492225
 C   -0.434937    1.026995    2.490615
 N   -0.731076    2.072037    1.558858
 N    0.010270    2.754936    0.933226
 N    0.528555    3.503903    0.278922
 C    0.768981    0.144348    2.095377
 N    0.184601   -1.039349    1.501476
 N   -2.831653   -0.425462   -0.435252
 C   -3.888903   -1.220438    0.161870
 C   -5.086379   -1.002533   -0.764764
 C   -4.430380   -0.742875   -2.119453
 C   -3.227843    0.116023   -1.726963
 C   -3.593006    1.584394   -1.617152
 N   -3.393266    2.368757   -0.666710
 H    2.564524   -2.797919    1.855483
 H    2.735747   -1.157379    1.208365
 H    2.403738   -3.657927   -0.498331
 H    3.969316   -2.914489   -0.124444
 H    1.646717   -1.590578   -1.605134
 H    3.124458   -2.214898   -2.351338
 H    5.371497   -1.242172   -1.306949
 H    1.569183    0.680669   -1.086414
 H    6.485609    0.900942   -0.854774
 H    2.678615    2.826963   -0.628719
 H    5.144773    2.944095   -0.506538
 H   -1.709928   -1.899601    1.465269
 H   -1.669329   -0.479030    3.442005
 H   -2.558551    0.578834    2.324958
 H   -0.282877    1.480610    3.479978
 H    1.351508   -0.124000    2.983805
 H    1.421564    0.668012    1.387495
 H   -3.596126   -2.276936    0.175444
 H   -4.099629   -0.903499    1.186235
 H   -5.756188   -1.859352   -0.774269
 H   -5.647135   -0.120516   -0.451989
 H   -5.091824   -0.236807   -2.819135
 H   -4.093453   -1.679996   -2.563844
 H   -2.389900    0.035012   -2.429658
 H   -4.096221    1.987558   -2.492082
 H   -2.895305    1.971135    0.130374
