65 
4bcd_ligand_dft.xyz
 C    2.949349    2.664885    0.854818
 C    3.240399    3.300214   -0.507282
 C    2.295965    2.806131   -1.615791
 C    0.834502    3.037009   -1.304194
 C    0.317093    4.334842   -1.249876
 C   -0.021051    1.965864   -1.033984
 C   -1.018271    4.559758   -0.932714
 C   -1.361564    2.188315   -0.720686
 C   -1.863120    3.484713   -0.665966
 C    3.151419    1.160837    0.809018
 O    4.088620    0.661017    0.190692
 F   -6.936686   -1.211726   -2.398770
 C   -5.940716   -1.115756   -1.502780
 C   -6.252966   -0.919085   -0.165898
 C   -5.219888   -0.818328    0.756643
 C   -4.629284   -1.214323   -1.941104
 C   -3.605280   -1.112602   -1.007300
 C   -3.885046   -0.914154    0.349013
 C   -2.802475   -0.787006    1.331671
 N   -3.038409   -0.557856    2.656612
 N   -1.909569   -0.457959    3.283687
 C   -1.439103   -0.834292    1.143824
 N   -0.929940   -0.628402    2.377778
 C    0.454482   -0.468623    2.783101
 C    1.077041    0.813804    2.191629
 C    1.365616   -1.640416    2.350308
 C    2.409661   -1.073589    1.368193
 C    2.127816   -1.522924   -0.073789
 O    1.050366   -1.242363   -0.605275
 N    2.267857    0.371543    1.477576
 N    3.047156   -2.269907   -0.705896
 C    4.447760   -2.478769   -0.314402
 C    5.121541   -2.874870   -1.631769
 C    4.002616   -3.580420   -2.404890
 C    2.772854   -2.738208   -2.067534
 H    1.939368    2.929003    1.177888
 H    3.644831    3.062388    1.604833
 H    4.272870    3.076397   -0.790962
 H    3.152862    4.388107   -0.404283
 H    2.472264    1.737567   -1.782576
 H    2.560927    3.317321   -2.549404
 H    0.969028    5.179222   -1.464976
 H    0.365875    0.948893   -1.069018
 H   -1.402604    5.575336   -0.897739
 H   -2.018307    1.347175   -0.519261
 H   -2.907482    3.655276   -0.422798
 H   -7.291794   -0.844629    0.136609
 H   -5.437044   -0.660396    1.807667
 H   -4.423475   -1.366401   -2.994756
 H   -2.575452   -1.188669   -1.345898
 H   -0.791783   -0.987965    0.290574
 H    0.399035   -0.402057    3.870066
 H    0.365920    1.303299    1.518229
 H    1.342512    1.519150    2.984847
 H    1.868447   -2.055073    3.226594
 H    0.775070   -2.441259    1.901337
 H    3.420509   -1.353731    1.669040
 H    4.521431   -3.285906    0.425832
 H    4.860926   -1.558433    0.100821
 H    5.434810   -1.971313   -2.165582
 H    6.003315   -3.500392   -1.473385
 H    3.872537   -4.603373   -2.033484
 H    4.187294   -3.632201   -3.480450
 H    2.668144   -1.877092   -2.738678
 H    1.832462   -3.293927   -2.093330
