42 
4bck_ligand_dft.xyz
 C    2.643687    4.931057   -0.498770
 N    1.800622    3.902151    0.082669
 C    2.147064    2.598560   -0.038066
 N    3.298132    2.198948   -0.521956
 C    3.392552    0.833002   -0.500297
 C    4.597929    0.230128   -1.152334
 C    2.307315    0.170678    0.034857
 C    1.944188   -1.229724    0.093232
 N    0.631562   -1.481953   -0.044836
 C    0.228461   -2.745294   -0.067011
 N   -1.099769   -3.033390   -0.204096
 C   -2.228554   -2.207391   -0.284680
 C   -2.206585   -0.821390   -0.098517
 C   -3.406780   -0.123142   -0.165073
 S   -3.394987    1.630944    0.165173
 O   -2.075912    2.152542   -0.164947
 N   -3.577582    1.692523    1.830256
 O   -4.606503    2.205406   -0.398080
 C   -4.624267   -0.734830   -0.432485
 C   -4.629698   -2.111969   -0.628807
 C   -3.451752   -2.839385   -0.550451
 N    1.014890   -3.842410    0.016730
 C    2.292984   -3.595934    0.223569
 C    2.836494   -2.303841    0.305213
 C    4.193721   -2.150439    0.712973
 N    5.291645   -2.068827    1.079631
 S    1.070472    1.332788    0.480981
 H    3.661383    4.820288   -0.119994
 H    2.675771    4.868901   -1.593336
 H    2.254625    5.906104   -0.199697
 H    0.814801    4.100985    0.164323
 H    4.912811    0.884480   -1.968459
 H    5.427310    0.140782   -0.443630
 H    4.394037   -0.766205   -1.551513
 H   -1.270026   -4.028482   -0.245930
 H   -1.274466   -0.304023    0.075589
 H   -2.710486    1.960172    2.284540
 H   -4.345389    2.310856    2.071704
 H   -5.532852   -0.147368   -0.494132
 H   -5.560753   -2.625058   -0.846538
 H   -3.475402   -3.915380   -0.704331
 H    2.943146   -4.459145    0.348242
