32 
4bcs_ligand_xtb.xyz
 C    2.733333    0.667232   -0.037971
 O    2.411290    1.497146   -1.005044
 O    2.460205    0.850174    1.129250
 C    3.387554   -0.603483   -0.539600
 C    2.575446   -1.784259    0.009355
 C    1.083328   -1.662656   -0.347197
 C    0.168249   -1.980918    0.839917
 C   -1.250720   -1.427468    0.698584
 S   -1.859162   -1.423626   -1.027954
 C   -3.204166   -0.306399   -0.544907
 C   -2.615403    0.690414    0.457696
 N   -1.987661    1.823352   -0.169769
 C   -0.646445    1.890777    0.057897
 O    0.122261    2.712567   -0.410462
 N   -0.333283    0.893919    0.915960
 C   -1.433067    0.021160    1.212660
 H    1.748457    2.187470   -0.716700
 H    3.390731   -0.591661   -1.628675
 H    4.414372   -0.657708   -0.175654
 H    2.690324   -1.787400    1.094752
 H    2.988598   -2.718325   -0.371629
 H    0.832330   -2.328269   -1.174491
 H    0.872507   -0.650491   -0.690186
 H    0.114961   -3.063816    0.966987
 H    0.595627   -1.562521    1.754647
 H   -1.947228   -2.062074    1.257285
 H   -3.584116    0.185269   -1.437414
 H   -4.001079   -0.894097   -0.086652
 H   -3.406718    1.026157    1.141729
 H   -2.444609    2.389949   -0.860337
 H    0.596436    0.797510    1.305691
 H   -1.606097   -0.018353    2.296025
