21 
4bdb_ligand_xtb.xyz
 O    3.724633   -1.017017   -0.249910
 C    2.391180    1.229390    0.583425
 C    1.713592   -0.008622    0.088930
 C    0.249142   -0.088490    0.052026
 O   -0.022407    2.267382   -0.280799
 C   -0.573839    1.037785   -0.112733
 C   -1.953752    0.892593   -0.131729
 C   -2.545070   -0.355072    0.008638
 O   -3.901307   -0.426271   -0.011501
 C   -1.738639   -1.477232    0.161757
 C   -0.368064   -1.332027    0.178553
 N    2.326553   -1.055520   -0.301776
 H    3.987428   -1.883554   -0.587337
 H    3.393381    0.977231    0.923927
 H    2.470544    1.951315   -0.227499
 H    1.823607    1.682982    1.390976
 H   -0.722966    2.917620   -0.415296
 H   -2.592000    1.755302   -0.261074
 H   -4.180054   -1.344707    0.087107
 H   -2.186968   -2.455223    0.269325
 H    0.266510   -2.195025    0.296784
