20 
4bdg_ligand_xtb.xyz
 C  -36.458381   35.083816    7.176579
 C  -37.011992   33.965188    7.762076
 N  -35.670283   36.088397    7.698608
 N  -36.755023   35.008927    5.857069
 C  -38.536290   31.300885    7.942154
 C  -38.361384   32.011813    6.753645
 C  -37.625718   33.262551    6.700064
 N  -39.201218   30.164227    8.026060
 C  -39.733073   29.665156    6.922856
 C  -39.622823   30.278679    5.682807
 C  -38.927051   31.469567    5.597991
 N  -37.456971   33.911132    5.554192
 H  -36.975253   33.697544    8.796761
 H  -35.713232   36.968377    7.206207
 H  -35.753046   36.193533    8.697966
 H  -36.479231   35.644606    5.126319
 H  -38.121049   31.660433    8.874128
 H  -38.806963   31.994381    4.662745
 H  -40.269400   28.732790    7.043913
 H  -40.071619   29.833000    4.807861
