28 
4bdj_ligand_xtb.xyz
 C   47.040812   14.554668   -3.443233
 N   47.405488   16.959608   -9.579904
 O   47.360302   14.000764   -4.619788
 C   47.635344   15.008929   -5.481327
 N   48.220914   16.018012  -10.079221
 C   48.093105   14.679003   -6.816702
 N   49.265394   13.998878   -9.337628
 C   47.891476   15.493452   -7.944646
 C   47.183183   16.679427   -8.314618
 C   48.529170   15.087689   -9.151418
 C   49.378219   13.227213   -8.274980
 C   48.828203   13.514981   -7.026475
 C   46.273170   17.496462   -7.501359
 C   46.619481   18.939351   -7.224276
 C   45.503473   18.607598   -8.157370
 C   47.508685   16.213455   -4.834202
 C   47.120619   15.912759   -3.510628
 H   46.774675   13.890398   -2.644827
 H   48.492077   16.037958  -11.047904
 H   49.960209   12.326945   -8.418414
 H   48.998399   12.841098   -6.201701
 H   45.786129   16.944594   -6.707402
 H   46.381711   19.340908   -6.250092
 H   47.536062   19.319353   -7.648580
 H   45.669890   18.754495   -9.211915
 H   44.489112   18.780468   -7.831739
 H   47.703834   17.181667   -5.244837
 H   46.929863   16.609869   -2.720814
