28 
4bdj_ligand_dft.xyz
 C   47.111343   14.529073   -3.420120
 N   47.312020   16.907687   -9.634251
 O   47.455181   14.001491   -4.615023
 C   47.634412   15.038228   -5.481529
 N   48.149234   15.962117  -10.110482
 C   48.108228   14.695276   -6.818775
 N   49.254290   13.976036   -9.360351
 C   47.875215   15.484040   -7.966928
 C   47.130160   16.653161   -8.353162
 C   48.495719   15.057239   -9.162387
 C   49.408657   13.238602   -8.268986
 C   48.872695   13.547150   -7.008169
 C   46.237868   17.512487   -7.540142
 C   46.670894   18.920602   -7.174902
 C   45.569575   18.701286   -8.170522
 C   47.417853   16.218536   -4.831501
 C   47.073283   15.884433   -3.487353
 H   46.919054   13.818314   -2.631644
 H   48.380614   15.938945  -11.089809
 H   50.011576   12.340468   -8.383307
 H   49.081501   12.893944   -6.169269
 H   45.671346   16.977321   -6.784302
 H   46.412092   19.295092   -6.188165
 H   47.633241   19.251787   -7.553233
 H   45.786347   18.888969   -9.216310
 H   44.551545   18.919222   -7.863975
 H   47.520966   17.204406   -5.258686
 H   46.834092   16.564090   -2.682719
