41 
4bdt_ligand_dft.xyz
 O    1.126680    2.831550   -0.541098
Cl   -5.516197    0.567348   -0.738266
 C   -3.928876    0.120120   -0.158289
 N   -0.637655   -0.601966   -1.492326
 C   -1.621295   -0.444040   -0.569754
 C    0.563888   -0.929481   -1.063104
 N    0.151601   -1.120341    2.606290
 C   -0.103313   -0.984048    1.253407
 C   -2.907882   -0.081283   -1.045486
 C   -3.733999   -0.011351    1.233500
 C   -1.415310   -0.607617    0.822058
 C    1.612495   -1.089890   -2.144863
 C    0.899233   -1.139526    0.303777
 C    3.039381   -0.959416   -1.593091
 C    3.274842    0.460073   -1.134714
 C    3.181117   -1.942405   -0.431609
 C    3.226724    0.855235    0.142554
 C    2.978237   -0.131605    1.262080
 C    3.274217    2.310831    0.522059
 C    2.330855   -1.424929    0.731045
 C    1.849674    2.878064    0.664434
 C   -2.496949   -0.365770    1.705547
 H    1.038707    1.901606   -0.792053
 H    1.003734   -1.603050    2.849138
 H   -0.624966   -1.416384    3.178150
 H   -3.043218    0.034873   -2.114291
 H   -4.556510    0.179776    1.913389
 H    1.408959   -0.347629   -2.922781
 H    1.483849   -2.075731   -2.612265
 H    3.749968   -1.211070   -2.388917
 H    3.417396    1.207606   -1.914433
 H    2.851872   -2.941390   -0.740974
 H    4.225608   -2.022942   -0.109685
 H    3.928786   -0.364405    1.764126
 H    2.334915    0.327637    2.023037
 H    3.806474    2.447071    1.473172
 H    3.799637    2.891459   -0.243443
 H    2.337308   -2.184981    1.525142
 H    1.314919    2.350783    1.471759
 H    1.905751    3.933936    0.944736
 H   -2.357143   -0.426107    2.780439
