41 
4bdt_ligand_xtb.xyz
 O    1.090647    2.910638   -0.209620
Cl   -5.468456    0.647706   -0.660108
 C   -3.901261    0.127711   -0.147764
 N   -0.608613   -0.384061   -1.522116
 C   -1.594128   -0.351333   -0.612319
 C    0.589634   -0.773947   -1.158415
 N    0.185767   -1.443835    2.432876
 C   -0.082728   -1.142760    1.120576
 C   -2.867636    0.079085   -1.039068
 C   -3.721775   -0.239110    1.193913
 C   -1.395245   -0.727752    0.742840
 C    1.612430   -0.790459   -2.259408
 C    0.920286   -1.162598    0.153640
 C    3.033993   -0.711415   -1.697063
 C    3.215687    0.628744   -1.045875
 C    3.194322   -1.840311   -0.686488
 C    3.158866    0.835673    0.263967
 C    2.968918   -0.294453    1.237011
 C    3.190570    2.217924    0.848570
 C    2.341685   -1.506912    0.533605
 C    1.750522    2.740147    1.015402
 C   -2.491880   -0.654523    1.623899
 H    1.088041    2.066181   -0.679417
 H    1.018370   -1.977241    2.619840
 H   -0.599731   -1.678474    3.015484
 H   -2.988135    0.361936   -2.071705
 H   -4.556557   -0.187188    1.874880
 H    1.401687    0.037778   -2.937587
 H    1.488135   -1.714841   -2.831228
 H    3.752602   -0.823892   -2.515651
 H    3.345412    1.463475   -1.721590
 H    2.877568   -2.786216   -1.130771
 H    4.238071   -1.939749   -0.382007
 H    3.940928   -0.570977    1.659995
 H    2.334674    0.036259    2.062303
 H    3.677707    2.213942    1.824897
 H    3.727125    2.899213    0.186892
 H    2.349005   -2.368943    1.214120
 H    1.181362    2.057339    1.665294
 H    1.766511    3.727751    1.482310
 H   -2.377830   -0.919460    2.665286
