61 
4bfp_ligand_xtb.xyz
 O   -2.072521    0.934696   -1.133266
 C   -3.080032    0.339745   -0.810167
 C   -4.300170    1.034431   -0.364542
 C   -5.465353    0.301842   -0.062070
 C   -4.300092    2.408774   -0.248488
 C   -5.451815    3.083406    0.167260
 C   -6.596730    2.389424    0.461631
 C   -6.636262    0.983573    0.354850
 C   -7.791296    0.226791    0.642674
 C   -7.783927   -1.138743    0.522500
 C   -6.627109   -1.808801    0.113265
 C   -5.478472   -1.102585   -0.176507
 C   -4.263380   -1.819591   -0.597837
 O   -4.223141   -3.026400   -0.724695
 N   -3.140326   -1.046472   -0.847261
 C   -1.928742   -1.766554   -1.228607
 C   -1.319542   -2.532288   -0.055060
 C   -0.995055   -1.651991    1.139854
 S    0.165218   -0.298667    0.750921
 C    1.611248   -1.226756    0.537464
 N    1.719636   -2.529827    0.603541
 N    3.003220   -2.839185    0.410866
 C    3.682971   -1.736749    0.225309
 C    5.103236   -1.703908   -0.062475
 C    5.908551   -2.745338    0.402198
 C    7.260367   -2.714106    0.111213
 N    7.835994   -1.748241   -0.587049
 C    7.068429   -0.773835   -1.043281
 C    5.703749   -0.698577   -0.819984
 N    2.831147   -0.654055    0.293575
 C    3.124978    0.722598    0.269655
 C    4.125436    1.230447    1.095258
 C    4.409253    2.576434    1.077241
 C    3.694582    3.444090    0.246016
 O    4.053443    4.751359    0.310625
 C    3.361369    5.682581   -0.487335
 C    2.690274    2.930617   -0.568614
 C    2.409015    1.576045   -0.555755
 H   -3.395337    2.948608   -0.483905
 H   -5.432270    4.159376    0.253142
 H   -7.487856    2.910842    0.779958
 H   -8.684990    0.744661    0.959603
 H   -8.673877   -1.708008    0.744413
 H   -6.613181   -2.884142    0.018544
 H   -1.227645   -1.021327   -1.607933
 H   -2.186113   -2.472983   -2.021119
 H   -0.404656   -3.021285   -0.391573
 H   -2.018931   -3.304266    0.271455
 H   -0.537661   -2.241772    1.932147
 H   -1.881824   -1.144260    1.521960
 H    5.466250   -3.546393    0.971543
 H    7.922320   -3.498002    0.455097
 H    7.575331   -0.011442   -1.620548
 H    5.127406    0.113202   -1.235548
 H    4.675625    0.565850    1.744537
 H    5.181044    2.988181    1.707101
 H    3.489628    5.471467   -1.553684
 H    2.294305    5.703798   -0.245328
 H    3.802481    6.650905   -0.257057
 H    2.116091    3.570066   -1.218886
 H    1.627543    1.186962   -1.189694
