48 
4bfr_ligand_xtb.xyz
 C    3.001814    0.364296   -0.483406
 N    3.860391   -0.688285   -0.561862
 C    3.368806   -2.048390   -0.490301
 C    3.603357   -2.598483    0.922182
 O    4.966440   -2.525724    1.279939
 C    5.443302   -1.200520    1.214318
 C    5.256115   -0.619944   -0.194414
 N    1.683061    0.030464   -0.675505
 C    0.802491    0.975180   -0.683451
 N    1.096748    2.269297   -0.505461
 C    2.414499    2.722108   -0.275779
 C    3.379826    1.673705   -0.296500
 O    2.614258    3.906876   -0.089992
 C   -0.620270    0.569660   -0.968180
 C   -1.651533    1.302353   -0.124345
 O   -1.470627    2.433227    0.294314
 N   -2.792976    0.637660    0.170480
 C   -4.451379    0.003405    1.742925
 C   -3.706175    1.217205    1.170079
 C   -4.285052   -1.020793    0.661119
 C   -3.299358   -0.600303   -0.240144
 C   -3.030490   -1.349649   -1.373204
 C   -3.714106   -2.546189   -1.551014
 C   -4.655039   -2.982074   -0.636576
 C   -4.955975   -2.207949    0.477173
 C   -4.649475    2.209214    0.496921
 H    3.923734   -2.654629   -1.213959
 H    2.308412   -2.051530   -0.733962
 H    2.996504   -2.022765    1.638344
 H    3.330751   -3.653181    0.981886
 H    4.907259   -0.569770    1.940538
 H    6.500101   -1.243857    1.481874
 H    5.821399   -1.230334   -0.907940
 H    5.625122    0.401302   -0.237098
 H    0.339079    2.940886   -0.397839
 H    4.400735    1.974439   -0.139931
 H   -0.685851   -0.507451   -0.820989
 H   -0.825991    0.798177   -2.019072
 H   -3.996843   -0.345781    2.673472
 H   -5.498286    0.229182    1.940954
 H   -3.103885    1.740602    1.917091
 H   -2.337954   -1.023764   -2.130245
 H   -3.507962   -3.137919   -2.430056
 H   -5.172151   -3.915174   -0.798340
 H   -5.710032   -2.524518    1.181796
 H   -5.324756    2.638757    1.231932
 H   -4.075280    3.012455    0.042889
 H   -5.233378    1.708898   -0.273421
