30 
4bg1_ligand_xtb.xyz
 C    2.824320    0.153111   -0.860341
 C    3.114438   -1.270092   -0.383774
 C    2.482832   -1.345758    1.018779
 C    1.850868    0.029947    1.239508
 C    1.491850    2.052084   -0.089638
 C    0.398674   -0.020940   -0.751933
 C   -0.931227    0.407865   -0.140308
 C   -2.097786   -0.419045   -0.684613
 C   -3.345908   -0.118517    0.155944
 N    1.607257    0.586215   -0.118733
 O   -3.293629    0.516880    1.166430
 O   -4.486136   -0.624677   -0.302574
 H    2.670499    0.225857   -1.935871
 H    3.643454    0.817565   -0.581898
 H    4.186271   -1.450174   -0.355206
 H    2.680895   -2.010662   -1.053801
 H    3.226138   -1.548584    1.785933
 H    1.739350   -2.139072    1.074569
 H    2.549339    0.693218    1.751392
 H    0.929177   -0.009681    1.815909
 H    1.277319    2.429125   -1.088060
 H    0.695986    2.354344    0.586997
 H    2.424396    2.494359    0.256577
 H    0.410619    0.251885   -1.809902
 H    0.497628   -1.104130   -0.677102
 H   -1.142910    1.455967   -0.351040
 H   -0.933785    0.283254    0.943423
 H   -1.890374   -1.489659   -0.602868
 H   -2.293625   -0.184533   -1.732797
 H   -4.411423   -1.122128   -1.127711
