29 
4bgm_ligand_dft.xyz
 C    2.225156   -0.465440    0.936591
 C    3.285768    0.581442    0.642622
 C    1.793856   -0.656436   -1.499385
 C    0.549358   -2.021303    0.108502
 C    0.117424    0.412839   -0.006946
 C   -0.895042    0.468699   -1.153154
 C   -2.232769    1.029908   -0.666712
 C   -2.937741    0.043382    0.259873
 N    1.174865   -0.676661   -0.138159
 O   -4.143191    0.397641    0.707651
 F    2.723604    1.812936    0.373252
 O   -2.444238   -1.007033    0.593585
 H    1.679390   -0.222367    1.851014
 H    2.732549   -1.423091    1.084106
 H    3.916963    0.300073   -0.204428
 H    3.917608    0.665749    1.531707
 H    1.051513   -0.973461   -2.230362
 H    2.128015    0.356545   -1.724603
 H    2.636030   -1.350319   -1.517055
 H    0.212471   -2.067180    1.144005
 H   -0.314085   -2.151764   -0.539501
 H    1.295908   -2.792010   -0.088298
 H   -0.383297    0.201360    0.938417
 H    0.663162    1.350886    0.078935
 H   -1.093258   -0.523309   -1.566724
 H   -0.510828    1.092357   -1.965052
 H   -2.878243    1.235993   -1.528397
 H   -2.100652    1.986464   -0.143829
 H   -4.426371    1.250866    0.349672
