14 
4bi6_ligand_xtb.xyz
 P    1.246230    0.105900   -0.040649
 O    0.072093   -0.785159    0.600427
 O    0.751596    1.249750   -0.810949
 O    2.138721    0.415146    1.227967
 O    2.144526   -0.878005   -0.881382
 C   -1.066251   -1.057108   -0.207792
 C   -2.191544   -0.021855    0.004840
 O   -3.298358   -0.364838    0.308016
 O   -1.856133    1.239071   -0.180656
 H    1.810635    1.157908    1.732874
 H    2.579926   -1.541129   -0.344492
 H   -1.439381   -2.040674    0.087295
 H   -0.793694   -1.066185   -1.269182
 H   -0.923707    1.367636   -0.486442
