14 
4bi7_ligand_xtb.xyz
 P   -1.295511    0.084039    0.140416
 O   -0.085595    0.503225   -0.831758
 O   -2.545582    0.262228   -0.801350
 O   -1.084032   -1.515647    0.231966
 O   -1.351916    0.750469    1.429335
 C    1.080637    1.044059   -0.241510
 C    2.186245    0.001400   -0.035872
 O    1.816245   -1.264922   -0.182519
 O    3.304108    0.319813    0.243961
 H   -2.417854   -0.091191   -1.681945
 H   -1.344979   -1.842668    1.091967
 H    0.838485    1.483931    0.733119
 H    1.457258    1.830879   -0.900202
 H    0.872639   -1.355611   -0.401962
