40 
4bjb_ligand_dft.xyz
 C   -6.423259    1.019682   -0.796737
 N   -5.218584    0.732083    0.031098
 C   -5.493798    0.844911    1.495557
 C   -4.544675   -0.553398   -0.312734
 C   -3.032414   -0.268519   -0.179583
 O   -2.691026    0.912749   -0.145161
 N   -2.243840   -1.344169   -0.137837
 C   -0.817935   -1.405594   -0.083906
 C   -0.013726   -0.275593   -0.088056
 C    1.379603   -0.392186   -0.034683
 C    2.278054    0.771710   -0.036609
 C    1.813893    2.094439   -0.093479
 C    2.701181    3.157874   -0.093050
 C    4.079325    2.935695   -0.035767
 C    4.557484    1.639114    0.020695
 C    3.667546    0.561703    0.020419
 C    4.246021   -0.798906    0.081579
 O    5.435941   -1.043603    0.132661
 N    3.315938   -1.825046    0.077377
 C    1.945975   -1.679779    0.023224
 C    1.123888   -2.813942    0.026332
 C   -0.247664   -2.680633   -0.026465
 H   -6.135768    1.035643   -1.848557
 H   -7.170332    0.244328   -0.619913
 H   -6.821618    1.992973   -0.508646
 H   -4.460233    1.419366   -0.174578
 H   -6.253458    0.111708    1.771121
 H   -4.565966    0.663557    2.039028
 H   -5.850646    1.852988    1.707758
 H   -4.784786   -0.809660   -1.348051
 H   -4.908163   -1.346029    0.345012
 H   -2.699918   -2.246921   -0.164138
 H   -0.474276    0.699831   -0.132167
 H    0.750941    2.305297   -0.139407
 H    2.318314    4.172766   -0.138156
 H    4.768423    3.773665   -0.035954
 H    5.619735    1.424632    0.065711
 H    3.717655   -2.752921    0.118466
 H    1.570278   -3.802500    0.070616
 H   -0.871088   -3.571431   -0.023034
