24 
4bps_ligand_xtb.xyz
 C    2.715532   -0.870176   -0.406387
 O    1.739461   -1.553678   -0.472839
 C    2.925484    0.263186    0.583345
 O   -3.148320   -1.423204    1.121645
 O   -3.651963   -0.923367   -0.977794
 C    0.372162    1.927776   -0.023615
 C   -0.772620    2.207498   -0.749000
 C    0.465584    0.770532    0.741669
 C   -1.840246    1.328556   -0.732113
 C   -2.899257   -0.793018    0.132296
 C   -0.618630   -0.091314    0.780253
 C   -1.765545    0.172450    0.040188
 O    3.749982   -1.063823   -1.250542
 C    1.720066    0.456050    1.509422
 H    3.118721    1.177738    0.014972
 H    3.815775    0.040208    1.179165
 H   -3.298858   -0.411489   -1.717609
 H    1.196037    2.627377   -0.046615
 H   -0.833260    3.115372   -1.330886
 H   -2.737174    1.571312   -1.286847
 H   -0.584263   -0.993236    1.370766
 H    4.486567   -0.459247   -1.092145
 H    1.941038    1.271532    2.203029
 H    1.566947   -0.456225    2.086059
