29 
4bqt_ligand_xtb.xyz
 O    2.027645    2.145150    0.311409
 C    1.908380    0.951709    0.129600
 N    0.630115    0.447527   -0.234046
 C   -0.304297    1.474618   -0.692216
 C   -1.762478    1.032352   -0.694716
 C   -2.334681    0.942770    0.720850
 N   -1.591220   -0.087621    1.490475
 C   -1.676316   -1.419992    0.841847
 C   -1.055203   -1.319781   -0.560989
 C   -1.860148   -0.323525   -1.389175
 C    0.384676   -0.888754   -0.396440
 C    1.381546   -1.799918   -0.240593
 C    2.693023   -1.358859    0.056592
 C    2.937158   -0.043999    0.264133
 H   -0.142287    2.356096   -0.063071
 H   -0.013828    1.762026   -1.709239
 H   -2.341052    1.781228   -1.240001
 H   -3.389632    0.662029    0.687810
 H   -2.242495    1.903953    1.230344
 H   -0.595708    0.192812    1.494105
 H   -1.927989   -0.129827    2.457153
 H   -2.725763   -1.714667    0.775949
 H   -1.138484   -2.150758    1.448691
 H   -1.079613   -2.309516   -1.020211
 H   -2.897215   -0.648984   -1.475182
 H   -1.448693   -0.256222   -2.395690
 H    1.174988   -2.850990   -0.349989
 H    3.485568   -2.086040    0.133078
 H    3.918809    0.328584    0.506619
