32 
4bqw_ligand_dft.xyz
 O    4.232658   -0.166454   -1.668221
 C    4.803665   -0.001445   -0.468412
 O    5.996232    0.003453   -0.313206
 C    3.825406    0.163128    0.696918
 N    2.455012    0.358054    0.270079
 C    1.496582   -0.577571    0.604397
 O    1.786848   -1.666347    1.064310
 C   -0.314263    1.224584    0.264858
 O    0.488004    2.156194    0.370172
 C   -2.037969    2.928861    0.017959
 C   -2.636117    0.548419   -0.076429
 C   -3.988884    0.896206   -0.248023
 C    0.071235   -0.182688    0.318467
 C   -4.953485   -0.083735   -0.376829
 C   -4.608339   -1.437239   -0.331544
 C   -3.284068   -1.786729   -0.170122
 C   -2.275999   -0.813798   -0.055102
 C   -0.874304   -1.156854    0.114604
 N   -1.664073    1.519749    0.068124
 O   -0.503604   -2.436129    0.062352
 H    3.269134   -0.111582   -1.530048
 H    4.171932    1.000250    1.308597
 H    3.875310   -0.746615    1.301900
 H    2.099357    1.309431    0.195047
 H   -2.735216    3.167308    0.826388
 H   -1.128652    3.511160    0.140848
 H   -2.496399    3.166992   -0.946194
 H   -4.286617    1.936064   -0.276122
 H   -5.990953    0.207799   -0.505885
 H   -5.370145   -2.204310   -0.414454
 H   -3.047587   -2.845939   -0.105970
 H   -1.238616   -2.987759   -0.229218
