57 
4brx_ligand_xtb.xyz
 C   -5.463578   -1.247479    0.782406
 C   -6.710202   -1.962491    0.259323
 O   -6.407706   -3.281033   -0.131424
 C   -5.413470   -3.282556   -1.127861
 C   -4.127735   -2.593488   -0.656938
 N   -4.453506   -1.239650   -0.259795
 C   -3.442873   -0.278692   -0.210969
 C   -3.804501    1.070666   -0.100333
 C   -2.851859    2.068693   -0.090083
 O   -3.128483    3.408909    0.012104
 C   -4.471525    3.815782    0.083789
 C   -2.092970   -0.588685   -0.344635
 C   -1.134060    0.409324   -0.352583
 C   -1.485291    1.739932   -0.204540
 N   -0.575728    2.793128   -0.197352
 C    0.764577    2.793386   -0.082236
 N    1.437380    1.660534    0.117940
 N    1.335200    4.009515   -0.174647
 C    2.648294    4.005577   -0.099030
 C    2.759525    1.789194    0.193897
 N    3.551363    0.709677    0.379706
 C    3.212181   -0.602435    0.634413
 C    1.965880   -0.956175    1.154520
 C    1.665959   -2.272673    1.435010
 C    2.608466   -3.267390    1.223640
 C    3.846399   -2.932477    0.711154
 C    4.164824   -1.614593    0.391686
 C    5.499110   -1.267763   -0.169186
 O    6.055155   -0.197145    0.038434
 N    6.060285   -2.219826   -0.946845
 N    3.419432    2.951559    0.066822
 C    7.346644   -2.047907   -1.574025
 H   -5.094336   -1.787928    1.670341
 H   -5.716049   -0.230698    1.076832
 H   -7.118128   -1.403457   -0.596985
 H   -7.469509   -2.039517    1.039304
 H   -5.786384   -2.765454   -2.025397
 H   -5.221319   -4.329835   -1.366686
 H   -3.421515   -2.568473   -1.487160
 H   -3.693725   -3.170497    0.176117
 H   -4.850155    1.324465   -0.041849
 H   -5.031937    3.513095   -0.806570
 H   -4.965044    3.420323    0.977531
 H   -4.446046    4.903083    0.140300
 H   -1.766545   -1.611675   -0.435507
 H   -0.094360    0.157199   -0.466729
 H   -0.988027    3.715479   -0.257502
 H    3.144950    4.964830   -0.183069
 H    4.553504    0.885157    0.280054
 H    1.248118   -0.178210    1.349462
 H    0.697136   -2.521983    1.841482
 H    2.384063   -4.294959    1.466410
 H    4.589574   -3.708053    0.589246
 H    5.545804   -3.059707   -1.154646
 H    7.254752   -2.076184   -2.661551
 H    7.730602   -1.075612   -1.269215
 H    8.039099   -2.828289   -1.252418
