37 
4btk_ligand_dft.xyz
 N   -0.745911   -2.188981   -0.000040
 C    0.276497   -3.069267    0.000000
 N    1.559384   -2.818405    0.000064
 C    1.896558   -1.494533    0.000047
 C    0.933482   -0.466830   -0.000006
 C   -0.436781   -0.904666   -0.000016
 C    3.274259   -1.160533    0.000072
 C    3.681035    0.148741    0.000020
 C    2.702273    1.198714   -0.000060
 C    1.366663    0.886865   -0.000076
 N   -1.433472    0.033875    0.000011
 C   -2.833373   -0.089007   -0.000008
 C   -3.546252    1.115098    0.000113
 C   -4.935493    1.111842    0.000105
 C   -5.635690   -0.094384   -0.000041
 C   -4.915696   -1.283157   -0.000187
 C   -3.525646   -1.305884   -0.000170
 O   -5.554996    2.323934    0.000274
 O    4.958535    0.572173    0.000025
 C    5.971150   -0.412137    0.000148
 O    3.218027    2.446805   -0.000124
 C    2.317651    3.529991   -0.000164
 H   -0.019762   -4.116348   -0.000017
 H    3.976049   -1.985017    0.000118
 H    0.649683    1.699098   -0.000174
 H   -1.120496    0.990246    0.000206
 H   -3.034258    2.073822    0.000203
 H   -6.723023   -0.102758   -0.000028
 H   -5.453178   -2.226853   -0.000309
 H   -2.978067   -2.235599   -0.000265
 H   -6.509631    2.187008   -0.000054
 H    5.911646   -1.043984    0.894895
 H    5.911741   -1.044105   -0.894520
 H    6.915585    0.132217    0.000163
 H    1.682714    3.523862   -0.896092
 H    1.682761    3.523960    0.895799
 H    2.931901    4.430609   -0.000232
