51 
4btl_ligand_xtb.xyz
Cl   -3.087976    2.502611    1.077321
 O    3.255967   -1.159057   -0.407103
 S    2.433188   -0.138568   -1.041242
 C    0.776700   -0.232822   -0.428530
 C   -0.241747    0.281273   -1.209297
 C   -1.544001    0.225849   -0.753650
 C    0.521131   -0.813746    0.802127
 C   -0.774978   -0.864751    1.266920
 C   -1.814433   -0.342099    0.491930
 O   -3.055145   -0.466801    1.006591
 C   -4.136147    0.112876    0.399245
 C   -5.151680   -0.685032   -0.134848
 N   -4.972982   -2.124441   -0.235161
 O   -5.969575   -2.800556   -0.201281
 O   -3.843307   -2.531613   -0.377728
 C   -6.332334   -0.126770   -0.605955
 C   -6.499349    1.245316   -0.578115
 C   -5.495910    2.058059   -0.076216
 C   -4.326865    1.497852    0.416780
 N    3.112263    1.279471   -0.459868
 C    3.601434    1.343529    0.898344
 C    5.130324    1.173323    0.925468
 N    5.555835   -0.141446    0.382647
 C    6.519473   -0.017627   -0.742100
 C    5.899411    0.609616   -1.979240
 C    6.067415   -1.056051    1.434417
 C    4.977908   -1.475266    2.406356
 O    2.469814   -0.031904   -2.459554
 H   -0.005300    0.695908   -2.176012
 H   -2.348330    0.602288   -1.366416
 H    1.328533   -1.245511    1.371152
 H   -1.015104   -1.319571    2.213769
 H   -7.097247   -0.782699   -0.992868
 H   -7.411172    1.686026   -0.947071
 H   -5.618236    3.129247   -0.051788
 H    2.732059    2.119450   -0.857414
 H    3.130240    0.550021    1.483252
 H    3.349872    2.302268    1.354949
 H    5.489846    1.277269    1.950312
 H    5.577954    1.965301    0.325213
 H    4.677964   -0.605154   -0.009395
 H    6.859127   -1.023501   -0.994317
 H    7.381779    0.560145   -0.397670
 H    5.007773    0.068786   -2.286436
 H    5.631124    1.650895   -1.828014
 H    6.619488    0.566774   -2.791634
 H    6.895527   -0.566962    1.954267
 H    6.452266   -1.948541    0.938532
 H    4.627277   -0.646857    3.015621
 H    4.141745   -1.904220    1.859700
 H    5.371432   -2.235481    3.075152
