51 
4btl_ligand_dft.xyz
Cl   -3.485655    2.920955    0.345432
 O    3.202697   -1.302598    0.013317
 S    2.398937   -0.625611   -1.018983
 C    0.769217   -0.443388   -0.382612
 C   -0.281686   -0.252088   -1.279079
 C   -1.565833   -0.060454   -0.795090
 C    0.548340   -0.458271    0.996923
 C   -0.732250   -0.261224    1.479536
 C   -1.782778   -0.060075    0.582622
 O   -3.001039    0.127998    1.152651
 C   -4.111664    0.287333    0.372077
 C   -4.954848   -0.785944    0.070890
 N   -4.588509   -2.156351    0.448327
 O   -5.501437   -2.921393    0.699836
 O   -3.401665   -2.442606    0.456934
 C   -6.157215   -0.599970   -0.596197
 C   -6.518841    0.677852   -1.001766
 C   -5.693868    1.761267   -0.722829
 C   -4.501740    1.565986   -0.032567
 N    3.110018    0.885123   -1.113851
 C    3.507238    1.598276    0.092941
 C    5.023143    1.532608    0.297794
 N    5.525947    0.123340    0.477781
 C    6.675506   -0.202227   -0.441790
 C    6.241364   -0.326861   -1.892406
 C    5.866329   -0.196252    1.908767
 C    4.680534   -0.059836    2.848841
 O    2.347714   -1.109353   -2.380282
 H   -0.101447   -0.281456   -2.348552
 H   -2.392910    0.067375   -1.483779
 H    1.363342   -0.660361    1.683083
 H   -0.946120   -0.283704    2.541732
 H   -6.790066   -1.458352   -0.786539
 H   -7.451485    0.832967   -1.532134
 H   -5.972168    2.764418   -1.025826
 H    2.748283    1.436643   -1.883329
 H    2.974505    1.211298    0.967246
 H    3.228862    2.651257   -0.001229
 H    5.324369    2.115155    1.171523
 H    5.520667    1.953200   -0.576434
 H    4.743777   -0.516124    0.218845
 H    7.090784   -1.149100   -0.090311
 H    7.430449    0.575543   -0.294772
 H    5.489374   -1.110991   -2.017950
 H    5.834415    0.603658   -2.295413
 H    7.114765   -0.596972   -2.491356
 H    6.696099    0.457789    2.192238
 H    6.226824   -1.227128    1.909974
 H    4.336855    0.973574    2.949454
 H    3.848733   -0.689690    2.521066
 H    4.987187   -0.397029    3.842063
