32 
4btm_ligand_dft.xyz
Br   30.215540   39.545654   -3.098142
 C   28.795642   37.324032    0.130714
 O   29.840098   37.747424   -0.744139
 C   30.668233   36.788748   -1.155778
 O   30.590877   35.637578   -0.785534
 C   31.747498   37.276452   -2.075829
 C   32.893005   36.481810   -2.080962
 C   34.012474   36.786694   -2.855386
 C   33.973911   37.927960   -3.662939
 C   32.829371   38.712530   -3.680572
 C   31.718082   38.407589   -2.901365
 N   35.100388   35.910348   -2.763833
 C   36.331176   35.930212   -3.367939
 C   37.251683   34.895188   -3.090198
 C   37.308703   33.704575   -2.292683
 C   38.542911   33.159989   -2.504245
 N   39.251799   33.947759   -3.387912
 C   38.480593   35.010840   -3.756671
 N   38.840299   35.985223   -4.603878
 C   37.882508   36.880655   -4.768086
 N   36.661183   36.910652   -4.205771
 H   40.187704   33.784631   -3.722356
 H   28.205945   38.217764    0.330415
 H   28.182907   36.556422   -0.347621
 H   29.212938   36.921908    1.057068
 H   32.881813   35.596396   -1.451606
 H   34.829541   38.184934   -4.270695
 H   32.796860   39.584897   -4.323640
 H   34.951541   35.126335   -2.146786
 H   36.546973   33.293123   -1.645406
 H   38.983304   32.263503   -2.093771
 H   38.100502   37.704177   -5.443453
