56 
4bty_ligand_dft.xyz
 C   36.670152  -59.161174   12.328732
 C   37.686216  -58.870345   13.434548
 N   37.894387  -59.990020   14.351953
 C   37.157017  -59.877407   15.594164
 C   37.655686  -61.280852   13.717181
 C   37.992712  -61.251576   12.232084
 N   37.126747  -60.302587   11.551390
 C   36.810919  -60.440219   10.217949
 C   35.747647  -59.716526    9.643092
 C   35.444311  -59.843364    8.295530
 C   37.535385  -61.310568    9.378038
 C   37.199428  -61.455942    8.041315
 C   36.158276  -60.718755    7.481990
 N   35.828826  -60.880242    6.102383
 C   36.605239  -60.317117    5.104085
 C   37.779270  -59.660853    5.317978
 C   38.549724  -59.094339    4.240479
 O   39.591783  -58.475875    4.381341
 N   37.978040  -59.296911    2.952651
 C   38.561454  -58.735036    1.767615
 C   37.707509  -58.277953    0.765191
 C   38.230231  -57.756976   -0.410490
 C   39.609250  -57.691447   -0.571604
Cl   40.273337  -57.029153   -2.047240
 C   40.466813  -58.145550    0.422444
 C   39.943104  -58.672658    1.597152
 N   36.840723  -59.954221    2.734473
 C   36.171436  -60.452651    3.727825
 C   34.940287  -61.170052    3.349884
 N   34.080564  -60.826295    2.407659
 C   33.174129  -61.835819    2.445070
 N   33.404022  -62.775054    3.345483
 N   34.537750  -62.329952    3.920421
 H   35.669826  -59.332484   12.758220
 H   36.602253  -58.282803   11.677464
 H   38.639259  -58.604388   12.959043
 H   37.359770  -57.995521   14.004808
 H   37.420961  -60.715382   16.248236
 H   37.431107  -58.952613   16.110718
 H   36.057947  -59.891412   15.457985
 H   38.262216  -62.047890   14.213848
 H   36.597521  -61.591371   13.813394
 H   39.059304  -61.016846   12.089644
 H   37.817101  -62.252760   11.825766
 H   35.140430  -59.059529   10.255154
 H   38.380669  -61.867383    9.765646
 H   34.630202  -59.259023    7.874151
 H   37.765164  -62.138292    7.413531
 H   34.835566  -60.877359    5.908307
 H   38.172241  -59.499064    6.313705
 H   36.634726  -58.348118    0.902177
 H   40.606796  -59.017322    2.377029
 H   37.570040  -57.400956   -1.193294
 H   41.540545  -58.092399    0.282013
 H   34.994760  -62.869253    4.641392
 H   32.313221  -61.877344    1.793296
