50 
4bw4_ligand_dft.xyz
 C   -0.773508   -2.575836   -1.224448
 O   -1.799138   -1.643844   -0.896175
 C   -1.414475   -0.383889   -0.656495
 N   -0.147980   -0.083491   -0.706457
 C    0.214027    1.204201   -0.470694
 C    1.561023    1.600042   -0.497466
 N    2.734373    0.902097   -0.725755
 C    2.901711   -0.505286   -0.757727
 C    3.435019   -1.127067   -1.877359
 C    3.605524   -2.507593   -1.893841
 C    3.242979   -3.260167   -0.783216
 C    2.725476   -2.646828    0.355577
 C    2.562010   -1.268885    0.362124
 O    2.100687   -0.539099    1.440457
 C    1.325595   -1.098196    2.393961
 F    0.292560   -1.784289    1.892531
 F    0.858431   -0.115129    3.146689
 F    2.015091   -1.940274    3.178470
 C    3.828894    1.789136   -0.677318
 O    4.998350    1.516756   -0.821956
 N    3.261871    3.030379   -0.433700
 C    1.884995    2.933126   -0.313543
 C    0.882672    3.880427   -0.062001
 N   -0.388475    3.537979    0.006409
 C   -0.717896    2.235906   -0.193044
 C   -2.085298    1.850723   -0.140067
 C   -2.467019    0.554873   -0.363458
 C   -3.870773    0.132342   -0.270252
 C   -4.779318    0.384925    0.806992
 C   -4.521073    1.120860    2.081750
 N   -5.954009   -0.141267    0.573542
 O   -5.855917   -0.747013   -0.666832
 C   -4.621239   -0.583670   -1.155991
 C   -4.342862   -1.175686   -2.490698
 H   -0.218646   -2.250830   -2.108966
 H   -0.072201   -2.688823   -0.395699
 H   -1.292352   -3.514783   -1.418696
 H    3.711338   -0.516185   -2.729355
 H    4.021491   -2.990615   -2.771440
 H    3.373333   -4.337581   -0.787527
 H    2.470666   -3.236749    1.226834
 H    3.825487    3.859875   -0.347930
 H    1.126890    4.929498    0.090144
 H   -2.820348    2.621364    0.069495
 H   -3.574364    0.800083    2.527036
 H   -4.457256    2.200365    1.910271
 H   -5.331829    0.933465    2.788826
 H   -3.483687   -0.682314   -2.949353
 H   -4.111683   -2.241437   -2.398527
 H   -5.212680   -1.063153   -3.143281
