53 
4bzo_ligand_xtb.xyz
 O    3.645369    1.080878   -0.641954
 C    2.601607    0.673157   -1.145005
 N    1.401228    1.118689   -0.747497
 C    1.200880    2.277232    0.123376
 C   -0.233556    2.737834   -0.009951
 C   -1.272974    1.853900    0.262115
 C   -2.587993    2.262459    0.129657
 C   -2.875342    3.556562   -0.272316
 C   -1.844205    4.440876   -0.539901
 C   -0.526993    4.033660   -0.410918
 C    1.518396    1.960159    1.593173
 N    2.971394    1.726546    1.798473
 C    2.581377   -0.371213   -2.241246
 C    2.360287   -1.815006   -1.718696
 N    1.260146   -1.858714   -0.792007
 C   -0.061861   -1.925798   -1.056426
 C    3.583784   -2.398111   -0.997780
 N    3.778219   -1.746782    0.275763
 C    2.766021   -1.396127    1.085711
 O    2.968352   -0.834635    2.168866
 C    1.437523   -1.631661    0.549032
 C    0.193693   -1.595612    1.146412
 C   -0.764886   -1.785532    0.128958
 C   -2.213712   -1.769870    0.289322
 C   -3.037955   -1.333978   -0.745278
 C   -4.402462   -1.303764   -0.501242
 F   -5.212816   -0.866396   -1.469108
 N   -4.977429   -1.653018    0.623677
 C   -4.193621   -2.078603    1.600808
 C   -2.816521   -2.151398    1.490595
 H    0.563463    0.759172   -1.181912
 H    1.877955    3.073376   -0.214681
 H   -1.059352    0.843745    0.579927
 H   -3.387403    1.569611    0.342259
 H   -3.900937    3.872790   -0.377006
 H   -2.063146    5.449460   -0.853108
 H    0.273455    4.726047   -0.625686
 H    0.973885    1.065399    1.897591
 H    1.179484    2.795257    2.206432
 H    3.438302    1.666382    0.837041
 H    3.418069    2.431159    2.382371
 H    3.105195    0.755509    2.205618
 H    1.787366   -0.129338   -2.949314
 H    3.537927   -0.332267   -2.763011
 H    2.130021   -2.448484   -2.581726
 H   -0.424295   -2.111419   -2.048256
 H    3.422465   -3.474792   -0.851861
 H    4.479630   -2.263297   -1.604250
 H    4.718627   -1.613807    0.617487
 H    0.006495   -1.458921    2.192673
 H   -2.651392   -1.012043   -1.698179
 H   -4.702590   -2.366327    2.509392
 H   -2.221477   -2.511629    2.313598
