71 
4bzs_ligand_xtb.xyz
 C    5.001723   -2.150711   -0.816097
 C    6.356762   -1.929286   -0.657924
 C    6.887335   -0.663988   -0.881744
 O    8.209079   -0.393156   -0.728608
 C    6.043411    0.370596   -1.276237
 C    4.690230    0.137657   -1.434055
 C    4.150546   -1.122722   -1.199970
 C    2.671753   -1.355899   -1.301805
 C    2.054176   -1.418517    0.090391
 P    2.392905    0.174486    0.998955
 O    2.096557    1.408062    0.260733
 O    1.569731    0.098886    2.346376
 O    3.905869    0.089198    1.532626
 N    0.624577   -1.564215   -0.014069
 C   -0.139825   -1.850032    1.048617
 O    0.311735   -2.243927    2.115074
 C   -1.637378   -1.600244    0.835231
 N   -1.848927   -0.175292    0.605821
 C   -1.455304    0.523493   -0.468317
 O   -0.941226    0.035434   -1.468872
 C   -1.638945    2.032186   -0.285828
 C   -1.462154    2.800026   -1.600767
 C   -2.593521    2.441612   -2.563274
 C   -1.363777    4.314769   -1.371421
 C   -2.562848    4.930410   -0.658160
 N   -0.673609    2.465718    0.709620
 C   -0.961743    2.423794    2.026998
 C    0.112222    2.990492    2.915101
 O   -2.028728    1.991014    2.440890
 C   -2.228573   -2.471661   -0.288607
 C   -3.715530   -2.267460   -0.363467
 C   -4.572978   -2.980184    0.466793
 C   -5.935671   -2.767737    0.432149
 C   -6.468923   -1.821847   -0.438303
 O   -7.816999   -1.639349   -0.445451
 C   -5.619398   -1.101940   -1.268771
 C   -4.255761   -1.326904   -1.228242
 H    4.603243   -3.139399   -0.641967
 H    7.007723   -2.740035   -0.359216
 H    8.680861   -1.189679   -0.456747
 H    6.468755    1.344580   -1.458286
 H    4.043278    0.944961   -1.742466
 H    2.201736   -0.531731   -1.842319
 H    2.460993   -2.289380   -1.829794
 H    2.463286   -2.249381    0.674995
 H    1.380909   -0.791902    2.679768
 H    4.509472    0.539002    0.938594
 H    0.175820   -1.106139   -0.814428
 H   -2.141245   -1.844971    1.774786
 H   -2.191447    0.371053    1.394630
 H   -2.634194    2.214921    0.135326
 H   -0.517979    2.468233   -2.046751
 H   -2.524047    3.044845   -3.465159
 H   -3.565222    2.609767   -2.105246
 H   -2.522794    1.395665   -2.847515
 H   -0.463821    4.527360   -0.791840
 H   -1.245703    4.793692   -2.346109
 H   -2.669665    4.528414    0.345831
 H   -2.427533    6.006681   -0.576045
 H   -3.482539    4.748727   -1.207640
 H    0.294799    2.525405    0.420029
 H    0.300505    4.028711    2.651558
 H    1.029900    2.424473    2.776722
 H   -0.203192    2.927508    3.952161
 H   -1.768145   -2.206159   -1.239254
 H   -1.997199   -3.513759   -0.061197
 H   -4.167610   -3.716037    1.146062
 H   -6.605878   -3.321547    1.069696
 H   -8.051171   -0.956852   -1.085763
 H   -6.027547   -0.366161   -1.949573
 H   -3.605366   -0.766363   -1.882674
