71 
4c1t_ligand_xtb.xyz
 O   -1.106293    2.758200   -0.067477
 C   -0.353170    2.615915   -1.245609
 C    1.141779    2.729188   -0.932772
 O    1.586533    1.534275   -0.306677
 C    1.497280    3.844655    0.063814
 O    1.695286    5.105019   -0.516885
 C    2.811765    3.322660    0.659423
 O    3.032521    3.686942    1.989572
 C    2.666863    1.796119    0.555998
 C    3.070638   -1.077187   -0.099769
 C    4.149674   -0.089470    0.387726
 C    5.506058   -0.355308   -0.278421
 C    5.880742   -1.838854   -0.203043
 C    4.728880   -2.649215   -0.795097
 O    3.856247    1.256333    0.053743
 O    6.526197    0.388717    0.337686
 O    7.046367   -2.103963   -0.932169
 O    3.535900   -2.417820   -0.082257
 C   -2.111160   -1.924562    0.545887
 C   -1.163993   -2.927096   -0.126024
 C    0.300891   -2.755035    0.320892
 C    0.707145   -1.274028    0.242760
 C   -0.294975   -0.470460    1.074800
 O   -1.616921   -4.212829    0.190698
 O    1.055542   -3.591849   -0.517981
 O    1.996797   -1.010487    0.770835
 O   -1.590646   -0.608314    0.548898
 O   -7.879132    0.929010    0.589038
 C   -6.931820    0.146230   -0.037552
 C   -5.690663    1.010227   -0.308912
 C   -4.485265    0.144904   -0.710747
 C   -4.298332   -1.016291    0.275271
 C   -5.623686   -1.780900    0.375072
 O   -6.009142    1.902762   -1.341190
 O   -3.351841    0.985369   -0.786551
 O   -3.280298   -1.895186   -0.196876
 O   -6.654439   -0.940330    0.821232
 H   -1.990631    2.394932   -0.215983
 H   -0.619696    3.402049   -1.969240
 H   -0.525314    1.640330   -1.712108
 H    1.696939    2.891011   -1.870458
 H    0.732575    3.874754    0.851616
 H    0.846557    5.438659   -0.827430
 H    3.641557    3.644522    0.013062
 H    3.059242    4.650305    2.036682
 H    2.443429    1.362740    1.540581
 H    2.777415   -0.798850   -1.130307
 H    4.230520   -0.199805    1.479083
 H    5.420082   -0.065460   -1.339225
 H    6.013229   -2.110139    0.856004
 H    4.610374   -2.387496   -1.855028
 H    4.931011   -3.717095   -0.709466
 H    6.211459    1.296276    0.426286
 H    7.708111   -1.456293   -0.656841
 H   -2.297486   -2.249225    1.588051
 H   -1.213391   -2.755041   -1.212163
 H    0.396129   -3.083493    1.369300
 H    0.661321   -0.939006   -0.802169
 H   -0.062447    0.592901    1.021274
 H   -0.257941   -0.810606    2.117200
 H   -0.978984   -4.834448   -0.184695
 H    1.997827   -3.421039   -0.345212
 H   -8.565160    0.348351    0.940599
 H   -7.301154   -0.238048   -1.011986
 H   -5.449088    1.553795    0.617126
 H   -4.677922   -0.283965   -1.707901
 H   -4.031473   -0.613444    1.259257
 H   -5.860937   -2.208046   -0.609198
 H   -5.547635   -2.586692    1.106196
 H   -5.203142    2.387347   -1.558721
 H   -2.588696    0.444471   -0.515474
