32 
4c36_ligand_dft.xyz
 C    3.589306   -2.265444   -0.176615
 N   -0.083084   -1.725703   -0.235645
 O   -3.813184    0.763059    0.189040
 C    3.946802   -0.978083    0.270332
 N    0.476906    0.332361    0.481881
 C    2.993215   -0.006568    0.525130
 N   -2.484791    0.936613    0.297925
 C    1.659114   -0.363100    0.316931
 N   -4.140545   -0.550596   -0.060755
 C    1.288114   -1.645934   -0.125281
 N   -2.854399   -2.530087   -0.270560
 C    2.265858   -2.614665   -0.377437
 C   -0.520202   -0.537842    0.125830
 C    0.359744    1.735527    0.869934
 C    0.259407    2.664102   -0.314929
 C    1.487227    3.004681   -1.114038
 C    0.857932    4.041354   -0.222415
 C   -1.943809   -0.239153    0.128452
 C   -2.999107   -1.190709   -0.098599
 H    4.371224   -2.994554   -0.364360
 H    4.995901   -0.741414    0.418193
 H    3.279029    0.981873    0.870634
 H   -3.629346   -3.026711   -0.681245
 H   -1.914610   -2.825865   -0.510348
 H    1.980846   -3.604519   -0.718036
 H    1.242168    1.970656    1.473456
 H   -0.517887    1.839625    1.511313
 H   -0.675134    2.575729   -0.861712
 H    1.378831    3.112330   -2.188307
 H    2.435354    2.573114   -0.806159
 H    1.381146    4.309289    0.691843
 H    0.317733    4.862873   -0.681272
