32 
4c36_ligand_xtb.xyz
 C    3.680039   -2.088404   -0.163216
 N    0.015080   -1.701919   -0.224346
 O   -3.829108    0.562720    0.307414
 C    3.980897   -0.801893    0.295147
 N    0.479015    0.367160    0.502254
 C    2.993646    0.124600    0.554635
 N   -2.521227    0.811065    0.434847
 C    1.680434   -0.270304    0.340647
 N   -4.065802   -0.726034   -0.055331
 C    1.368339   -1.575589   -0.115971
 N   -2.629151   -2.581083   -0.441278
 C    2.381893   -2.495254   -0.373129
 C   -0.479636   -0.538066    0.143388
 C    0.271373    1.741945    0.884583
 C    0.058735    2.623311   -0.327659
 C    1.226928    2.991623   -1.192764
 C    0.582029    4.027259   -0.324109
 C   -1.890119   -0.300290    0.162329
 C   -2.892178   -1.302267   -0.155126
 H    4.490954   -2.775757   -0.352557
 H    5.014373   -0.529642    0.449584
 H    3.239436    1.113195    0.913072
 H   -3.361028   -3.171199   -0.790758
 H   -1.650421   -2.799308   -0.582366
 H    2.144915   -3.487727   -0.721492
 H    1.149586    2.069712    1.445659
 H   -0.611429    1.791534    1.528253
 H   -0.890156    2.445879   -0.816329
 H    1.077011    3.046630   -2.259949
 H    2.204591    2.627492   -0.915735
 H    1.118881    4.367234    0.548576
 H   -0.013539    4.795851   -0.790808
