40 
4c4e_ligand_xtb.xyz
 C   -5.474217   -3.075587   -0.749001
 O   -5.604670   -1.785226   -0.202518
 C   -4.523390   -0.949328   -0.210771
 C   -3.293979   -1.301293   -0.757748
 C   -2.210634   -0.443869   -0.756862
 C   -2.332836    0.819359   -0.186146
 C   -3.568693    1.193727    0.338220
 C   -4.664593    0.342002    0.345999
 O   -5.776088    0.885587    0.903095
 C   -6.969350    0.148388    1.062259
 N   -1.306917    1.751437   -0.167279
 C    0.039153    1.589878   -0.164132
 C    0.700019    0.387779    0.072173
 C    2.084777    0.407720    0.027487
 N    2.960132   -0.586385    0.212241
 C    4.177140   -0.042817    0.091430
 C    4.102706    1.399163   -0.175869
 C    2.768566    1.679591   -0.243073
 C    1.965757    2.832593   -0.430938
 N    0.674390    2.788358   -0.380762
 C    5.368356   -0.758502    0.180313
 C    6.696528   -0.359172   -0.193815
 N    7.507957   -1.358152   -0.000343
 N    6.867033   -2.338957    0.643416
 C    5.591227   -2.088614    0.673887
 H   -5.236815   -3.039476   -1.816690
 H   -4.714350   -3.661539   -0.223226
 H   -6.447538   -3.544839   -0.613667
 H   -3.170852   -2.270395   -1.212235
 H   -1.296284   -0.747845   -1.237131
 H   -3.704141    2.172929    0.770571
 H   -7.390904   -0.152169    0.101505
 H   -6.818145   -0.735263    1.684911
 H   -7.655359    0.831682    1.562243
 H   -1.586902    2.725586   -0.150853
 H    0.169772   -0.514724    0.320756
 H    4.941354    2.055220   -0.302813
 H    2.410183    3.802100   -0.620654
 H    7.015909    0.547268   -0.669740
 H    4.872759   -2.751658    1.111015
