62 
4c4h_ligand_dft.xyz
 O    3.240285   -1.806337    0.981617
 C    2.410467   -1.056087    0.531071
 O    1.143065   -1.353902    0.255552
 C    0.587997   -2.668014    0.594853
 C    1.301732   -3.756224   -0.203144
 C    0.669794   -2.895685    2.102051
 C   -0.864981   -2.537411    0.147501
 N    2.672919    0.284258    0.213055
 C    3.969074    0.830819   -0.004298
 C    5.230292    0.091268   -0.016027
 C    5.863664   -0.745227    0.935220
 N    7.085935   -1.082955    0.557652
 C    6.183922    0.235320   -1.009081
 N    7.265818   -0.474306   -0.629633
 C    8.490776   -0.694747   -1.364270
 C    1.732226    1.302049    0.031300
 C    2.436995    2.475854   -0.291962
 C    3.832749    2.147306   -0.311956
 C    0.349190    1.324642    0.170804
 C   -0.272858    2.547393   -0.084352
 N    0.379745    3.683975   -0.384276
 C    1.702420    3.646707   -0.470165
 N   -1.652848    2.714921    0.020084
 C   -2.657072    1.780830   -0.146909
 C   -2.475547    0.577456   -0.846582
 C   -3.506189   -0.339405   -0.975618
 C   -4.767647   -0.085873   -0.436758
 C   -4.985374    1.135000    0.200522
 C   -3.948302    2.037063    0.356028
Cl   -4.258693    3.544267    1.190368
 C   -5.942162   -1.000236   -0.617210
 O   -7.051572   -0.538443   -0.847025
 N   -5.716379   -2.355007   -0.571505
 C   -4.638460   -2.987924    0.165929
 C   -6.827479   -3.229069   -0.899437
 H    0.789619   -4.711152   -0.046545
 H    1.271569   -3.522918   -1.272237
 H    2.341381   -3.859709    0.109260
 H    0.202696   -2.062798    2.637684
 H    0.128108   -3.812129    2.357079
 H    1.703786   -2.998972    2.433903
 H   -1.394632   -3.476792    0.334190
 H   -1.375054   -1.737561    0.693411
 H   -0.920053   -2.313843   -0.922510
 H    5.465963   -1.108820    1.869438
 H    6.150681    0.777945   -1.943191
 H    9.340201   -0.552878   -0.693802
 H    8.517878   -1.710210   -1.769114
 H    8.548276    0.025029   -2.182866
 H    4.656355    2.817792   -0.512302
 H   -0.213506    0.458277    0.477900
 H    2.198464    4.589021   -0.693425
 H   -1.929665    3.682764    0.110380
 H   -1.518299    0.375280   -1.312531
 H   -3.329506   -1.253780   -1.534434
 H   -5.974877    1.372049    0.575383
 H   -3.998444   -2.243447    0.637693
 H   -5.056704   -3.625781    0.955559
 H   -4.023463   -3.616594   -0.491037
 H   -7.401997   -3.501613   -0.003669
 H   -7.493181   -2.719453   -1.594479
 H   -6.439732   -4.143834   -1.359835
