62 
4c4j_ligand_dft.xyz
 C    8.732082   -0.657432   -1.398364
 N    7.507590   -0.450141   -0.659359
 O    1.402345   -1.409237    0.242001
Cl   -4.005422    3.375705    1.357186
 C    6.114198   -0.736397    0.910678
 N    7.339644   -1.058735    0.529782
 O    3.504849   -1.828503    0.973237
 C    6.414990    0.244208   -1.036632
 N    0.569488    3.619024   -0.400538
 C    5.466726    0.089805   -0.040104
 N   -1.447651    2.627974    0.017677
 C    4.195962    0.812996   -0.026098
 N   -6.683326   -3.253259   -0.402413
 C    4.042222    2.126889   -0.337034
 N   -6.908809   -1.051710   -0.648121
 C    2.642479    2.437496   -0.313466
 N    2.907947    0.250696    0.196491
 C    1.892136    3.597842   -0.492791
 C   -0.067399    2.474977   -0.093109
 C   -2.439909    1.669631   -0.092012
 C   -3.703939    1.888655    0.482936
 C   -4.725878    0.956663    0.390522
 C   -4.536548   -0.244458   -0.298242
 C   -5.570999   -1.280312   -0.374977
 C   -5.470318   -2.643975   -0.230693
 C   -7.515185   -2.270908   -0.651716
 C   -7.553570    0.211467   -0.944534
 C   -3.290981   -0.461111   -0.897006
 C   -2.270651    0.469928   -0.800564
 C    0.570894    1.259831    0.159462
 C    1.953771    1.255286    0.015074
 C    2.663660   -1.093287    0.518864
 C    0.865501   -2.734453    0.575119
 C    1.601580   -3.806938   -0.223638
 C   -0.586952   -2.624386    0.122008
 C    0.946123   -2.965191    2.081708
 H    9.582294   -0.506515   -0.730862
 H    8.768815   -1.672520   -1.803485
 H    8.779021    0.062985   -2.217108
 H    5.723981   -1.103539    1.846640
 H    6.371334    0.784192   -1.971840
 H   -1.734805    3.592951    0.101521
 H    4.856702    2.807203   -0.541617
 H    2.375182    4.545579   -0.721917
 H   -5.662858    1.162891    0.896165
 H   -4.579315   -3.208763    0.010076
 H   -8.574243   -2.374398   -0.850342
 H   -7.837845    0.742182   -0.030682
 H   -6.880102    0.843456   -1.527192
 H   -8.452675    0.018112   -1.533105
 H   -3.130153   -1.369958   -1.468856
 H   -1.329416    0.283838   -1.304890
 H    0.021005    0.385709    0.468503
 H    1.107530   -4.771589   -0.069318
 H    1.567966   -3.572804   -1.292477
 H    2.642711   -3.890564    0.090250
 H   -0.638536   -2.387333   -0.945331
 H   -1.101340   -3.575227    0.291432
 H   -1.115951   -1.843439    0.676580
 H    0.415260   -3.889174    2.331918
 H    1.980349   -3.055697    2.416805
 H    0.465559   -2.140548    2.618093
