62 
4c4j_ligand_xtb.xyz
 C    8.751908   -0.847533   -0.688051
 N    7.413120   -0.601238   -0.238687
 O    1.388753   -1.289906    0.549901
Cl   -3.976529    3.372518    1.325970
 C    5.681345   -0.842772    0.954490
 N    6.921330   -1.254092    0.808618
 O    3.373522   -1.865405   -0.372843
 C    6.510448    0.242739   -0.769892
 N    0.559512    3.699824   -0.422694
 C    5.349591    0.116966   -0.025547
 N   -1.453607    2.695533   -0.058307
 C    4.129378    0.872795   -0.174874
 N   -6.391506   -3.345514   -0.325880
 C    4.004870    2.202687   -0.438387
 N   -6.776297   -1.171460   -0.449668
 C    2.619445    2.530795   -0.377034
 N    2.860693    0.317204    0.055103
 C    1.871920    3.693463   -0.526162
 C   -0.085040    2.559307   -0.155573
 C   -2.413466    1.716373   -0.147166
 C   -3.662540    1.896426    0.461576
 C   -4.650678    0.935675    0.403259
 C   -4.433413   -0.257686   -0.284666
 C   -5.414556   -1.326067   -0.328116
 C   -5.212386   -2.687106   -0.257455
 C   -7.301995   -2.419048   -0.447959
 C   -7.512915    0.046693   -0.633579
 C   -3.205733   -0.433317   -0.926740
 C   -2.225808    0.531635   -0.868209
 C    0.554664    1.338862    0.076719
 C    1.927882    1.336417   -0.055496
 C    2.596533   -1.052391    0.050745
 C    0.839595   -2.635583    0.565408
 C    0.725054   -3.167554   -0.861807
 C   -0.546941   -2.462428    1.187563
 C    1.706995   -3.547320    1.430955
 H    9.226789   -1.506625    0.035602
 H    8.748635   -1.331828   -1.667021
 H    9.312488    0.086260   -0.755418
 H    5.071676   -1.222141    1.749168
 H    6.728273    0.847239   -1.626862
 H   -1.773265    3.639981    0.110323
 H    4.809446    2.884920   -0.627333
 H    2.336008    4.647046   -0.738204
 H   -5.575191    1.108416    0.930075
 H   -4.288403   -3.216098   -0.137211
 H   -8.353765   -2.604391   -0.541316
 H   -7.821837    0.471347    0.325527
 H   -6.898969    0.775340   -1.163091
 H   -8.407191   -0.161409   -1.221321
 H   -3.037277   -1.335684   -1.494640
 H   -1.304381    0.394313   -1.411434
 H    0.002387    0.470982    0.385127
 H    0.214580   -4.126211   -0.852571
 H    0.155964   -2.472124   -1.475891
 H    1.711411   -3.298149   -1.298670
 H   -1.168049   -1.819338    0.568267
 H   -1.030902   -3.429681    1.282787
 H   -0.459857   -2.013270    2.173484
 H    1.246060   -4.528372    1.501021
 H    2.697340   -3.653560    0.996570
 H    1.803162   -3.131256    2.431660
