26 
4c5w_ligand_xtb.xyz
 N   -1.795530    0.104851    0.044438
 C   -1.453148    1.024818   -1.062106
 O    1.598238    1.209299   -0.267849
 C    2.326993    0.285996   -0.018565
 O    3.627083    0.460826    0.154855
 C    1.811206   -1.142588    0.135966
 C   -0.567621   -0.478329    0.658151
 C   -2.495354    0.877136    1.089579
 C   -2.685794   -0.960214   -0.447764
 C    0.345629   -1.253817   -0.299594
 H   -0.571778    1.611649   -0.803103
 H   -1.242511    0.472515   -1.974305
 H   -2.288885    1.692561   -1.259171
 H    4.129417   -0.344696    0.339296
 H    1.930237   -1.445074    1.179849
 H    2.421615   -1.808638   -0.477338
 H   -0.879637   -1.130846    1.476539
 H   -0.003535    0.356641    1.075726
 H   -2.702541    0.249590    1.954856
 H   -1.880854    1.718921    1.404081
 H   -3.439699    1.258797    0.705358
 H   -2.173125   -1.569932   -1.188306
 H   -3.000855   -1.599212    0.375603
 H   -3.570153   -0.523316   -0.908552
 H    0.063761   -2.306450   -0.334790
 H    0.283221   -0.845476   -1.306859
