44 
4c61_ligand_dft.xyz
 F    4.932285   -1.142220   -2.909193
 C    4.220655   -1.284318   -1.786915
 C    4.744193   -0.906575   -0.561585
 N    4.031941   -1.033067    0.555321
 C    2.800334   -1.535790    0.433716
 N    2.234951   -1.956126   -0.700720
 C    2.946194   -1.824261   -1.817432
 C    1.987969   -1.682251    1.711772
 C    2.195680   -3.073783    2.310216
 N    0.573856   -1.452952    1.505137
 C    0.143703   -0.239174    1.024824
 N    1.003250    0.770156    1.059872
 C    0.513960    1.935509    0.592955
 C    1.275780    3.161154    0.520848
 C    2.697945    3.243729    0.980198
 N   -1.133080   -0.221296    0.580647
 C   -1.607069    0.929427    0.118367
 C   -0.782700    2.080280    0.109323
 S   -1.093095    3.704905   -0.435197
 C    0.531523    4.164081   -0.006030
 N   -2.883893    0.981744   -0.343082
 C   -3.810065   -0.058580   -0.398509
 N   -5.029509    0.218931   -0.951738
 C   -5.693882   -0.912558   -0.875812
 N   -4.965442   -1.901222   -0.305890
 C   -5.391502   -3.258260   -0.046426
 C   -3.733612   -1.363938    0.014604
 H    5.747939   -0.494783   -0.486156
 H    2.500537   -2.154033   -2.752893
 H    2.359265   -0.925162    2.405448
 H    3.257328   -3.243717    2.509284
 H    1.640555   -3.168401    3.247721
 H    1.850530   -3.847746    1.614363
 H    0.049614   -2.231351    1.130926
 H    2.766912    3.048904    2.055672
 H    3.129641    4.227025    0.774852
 H    3.303392    2.478297    0.483780
 H    0.844517    5.186226   -0.176948
 H   -3.235560    1.853826   -0.710368
 H   -6.706484   -1.070093   -1.222214
 H   -4.687598   -3.968238   -0.489220
 H   -5.459821   -3.443789    1.029553
 H   -6.374831   -3.412778   -0.495076
 H   -2.946129   -1.924007    0.485666
