31 
4c6z_ligand_dft.xyz
 C   -4.500434    1.314844   -0.548547
 O    2.940141   -0.415933   -1.595063
 S    0.593449   -1.612093   -1.180232
 C   -3.755007    0.283890   -0.144716
 O    0.138844    0.587776    2.062245
 C   -2.285458    0.209910   -0.209182
 C   -1.555523    1.363781   -0.841545
 C   -1.692300   -0.888160    0.297411
 C   -0.215353   -1.201866    0.422606
 C   -0.039493   -2.385646    1.398358
 C    1.992831   -0.498226   -0.853081
 C    1.761638    0.267610    0.375135
 C    2.723939    1.342897    0.784833
 C    2.520417    2.632367   -0.019408
 C    0.593995   -0.035828    0.963424
 H   -4.070743    2.213719   -0.980825
 H   -5.581493    1.289924   -0.456946
 H   -4.251301   -0.586391    0.282862
 H   -0.799261    0.368040    2.172102
 H   -1.679185    2.276344   -0.246604
 H   -1.971187    1.561681   -1.835009
 H   -0.489756    1.173939   -0.960631
 H   -2.343995   -1.669460    0.687242
 H    1.018856   -2.628012    1.517265
 H   -0.561676   -3.269177    1.020580
 H   -0.454398   -2.133277    2.381401
 H    2.607771    1.543958    1.854330
 H    3.742915    0.973850    0.626461
 H    1.513277    3.032983    0.137855
 H    3.243416    3.396750    0.282769
 H    2.654190    2.440450   -1.088319
