39 
4c71_ligand_xtb.xyz
 N   -4.745945   -2.361182    1.625692
 N   -4.179857   -1.875453    0.787384
 N   -3.428538   -1.305371    0.061348
 C   -3.601976   -1.083760   -1.352636
 C   -2.525301   -0.150085   -1.901133
 C   -2.668098    1.300966   -1.439715
 C   -2.242607    1.544451    0.013714
 C   -0.769882    1.329281    0.212875
 C    0.124669    2.430599   -0.093152
 O   -0.158412    3.525309   -0.500615
 S    1.808559    1.929194    0.226898
 C   -0.164388    0.208795    0.645842
 O   -0.744863   -0.954016    0.960605
 C    1.333861    0.239773    0.815608
 C    1.667569    0.099950    2.305498
 C    1.968221   -0.853530    0.006103
 C    3.267298   -1.048123   -0.251828
 C    4.367280   -0.135044    0.190633
 C    3.642751   -2.233244   -1.014048
 C    4.882395   -2.617040   -1.297430
 H   -4.593991   -0.653308   -1.539926
 H   -3.542722   -2.049846   -1.871082
 H   -1.537330   -0.531896   -1.638714
 H   -2.606909   -0.178293   -2.989429
 H   -3.706268    1.617259   -1.561981
 H   -2.051914    1.935326   -2.079107
 H   -2.818494    0.913972    0.694318
 H   -2.455248    2.588089    0.255548
 H   -1.699236   -0.937628    0.743272
 H    1.216698    0.914843    2.868100
 H    1.271262   -0.846510    2.667759
 H    2.741861    0.115396    2.457280
 H    1.258778   -1.580084   -0.368721
 H    3.979739    0.781412    0.622536
 H    4.994276   -0.637625    0.926547
 H    4.990362    0.128606   -0.661642
 H    2.814194   -2.841999   -1.354160
 H    5.750559   -2.064056   -0.983954
 H    5.073259   -3.515004   -1.859890
