30 
4c72_ligand_dft.xyz
 S    0.078922    1.724554    0.140071
 C    3.392712    1.112652    0.355685
 C    0.698804   -0.066656    2.201873
 C    0.465358   -0.002356    0.675927
 O   -0.793493   -2.046259    0.627045
 C    5.101323   -0.716906   -1.210523
 C    3.816156   -1.002003   -0.989683
 C    2.870715   -0.176749   -0.219347
 C    1.613559   -0.629775   -0.091410
 C   -1.635641    1.352332   -0.295313
 O   -2.394925    2.200424   -0.696314
 C   -1.895254   -0.073394   -0.089073
 C   -3.156146   -0.768500   -0.340307
 C   -4.352538   -0.013561   -0.839445
 C   -0.808934   -0.762817    0.380163
 O   -3.221657   -1.988469   -0.133320
 H    2.636159    1.683215    0.895915
 H    4.220604    0.913370    1.046002
 H    3.779699    1.755086   -0.442850
 H   -0.158983    0.345927    2.741055
 H    1.590540    0.500514    2.475401
 H    0.846436   -1.108391    2.500389
 H   -1.718185   -2.370617    0.397251
 H    5.575535    0.181890   -0.826974
 H    5.728571   -1.383918   -1.792964
 H    3.405136   -1.921246   -1.404771
 H    1.373532   -1.585764   -0.551763
 H   -5.186112   -0.706872   -0.958541
 H   -4.121803    0.478030   -1.789185
 H   -4.613958    0.786744   -0.140678
