52 
4c7t_ligand_xtb.xyz
 C   -0.720996   -2.328182   -1.587019
 O   -2.028996   -2.308747   -1.066253
 C   -2.559056   -1.111322   -0.680839
 C   -1.820646    0.063819   -0.608199
 C   -3.924403   -1.105314   -0.363109
 O   -4.720339   -2.222939   -0.460710
 C   -4.372625   -3.307762    0.374920
 C   -4.540448    0.103217    0.001361
 O   -5.865430    0.017839    0.290820
 C   -6.565855    1.198468    0.590885
 C   -3.799571    1.275611    0.045367
 C   -2.437775    1.250787   -0.241345
 N   -1.743166    2.457357   -0.185562
 C   -0.418283    2.696987   -0.089198
 N    0.445073    1.699959    0.082908
 N   -0.079105    3.996266   -0.153709
 C    1.216144    4.226775   -0.089207
 N    2.162262    3.326143    0.063085
 C    1.722791    2.062492    0.178902
 N    2.690552    1.142701    0.376133
 C    2.590881   -0.202872    0.663402
 C    1.407960   -0.775953    1.134206
 C    1.353964   -2.116014    1.460366
 C    2.479621   -2.915225    1.331638
 C    3.654960   -2.362984    0.860658
 C    3.731981   -1.018270    0.506191
 C    5.006476   -0.433223    0.005200
 O    5.327053    0.732556    0.198601
 N    5.791914   -1.277178   -0.697814
 C    7.059684   -0.872090   -1.252077
 H   -0.623618   -1.653272   -2.442490
 H    0.023924   -2.065974   -0.829259
 H   -0.555587   -3.353521   -1.915570
 H   -0.771722    0.078122   -0.840072
 H   -3.381851   -3.701554    0.135848
 H   -4.402429   -3.014578    1.430345
 H   -5.125067   -4.072641    0.191165
 H   -6.184360    1.676015    1.500006
 H   -6.527887    1.912306   -0.238431
 H   -7.598143    0.892663    0.753574
 H   -4.260707    2.212410    0.314343
 H   -2.297855    3.302914   -0.192107
 H    1.531953    5.259927   -0.166434
 H    3.648180    1.498455    0.315397
 H    0.540904   -0.148273    1.253403
 H    0.432201   -2.536125    1.834835
 H    2.443664   -3.958377    1.605604
 H    4.537434   -2.984300    0.802691
 H    5.469738   -2.209689   -0.897896
 H    7.046057   -0.940208   -2.341559
 H    7.229234    0.162411   -0.957297
 H    7.866095   -1.496769   -0.863663
