89 
4ca5_ligand_dft.xyz
 O    4.266745    1.511224   -1.401749
 C   -0.611797    2.956674   -0.475868
 C   -0.073305    3.053926    0.805846
 C    0.219027    3.082983   -1.585733
 C    1.286048    3.295085    0.972963
 C    1.582987    3.310965   -1.416384
 C    3.605901    3.646909    0.061278
 O    4.212197    2.488009    0.651230
 C    4.357567    1.438715   -0.192598
 C    2.124699    3.432458   -0.137325
 O    2.479114   -2.953722   -0.458720
 P    2.725008   -1.607777    0.131264
 O    2.597120   -1.458316    1.731545
 C    4.451677   -1.001642   -0.093200
 N    4.606908    0.304400    0.518016
 C    5.458556   -2.021723    0.464180
 C    6.879170   -1.675067    0.093517
 C    7.658730   -0.854181    0.909766
 C    8.956221   -0.510209    0.542522
 C    9.492994   -0.985079   -0.650827
 C    8.724022   -1.803642   -1.473521
 C    7.427351   -2.144118   -1.102211
 O    0.011899   -0.813322    1.768494
 C   -7.865522   -3.086789   -0.294955
 C   -6.797095   -3.415144    0.534745
 C   -7.630441   -2.437843   -1.505201
 C   -5.495358   -3.099625    0.158543
 C   -6.332614   -2.120986   -1.886929
 C   -2.660362   -2.708023   -1.043438
 C   -0.227322   -1.832416   -1.413020
 C    1.663700   -0.283529   -0.567225
 N   -3.658619   -1.021588   -2.171975
 O   -2.284684   -0.916607   -2.276344
 C   -0.523999   -0.472241    0.709306
 C   -1.702189   -1.920571   -1.586826
 C   -5.256823   -2.452463   -1.057570
 C   -3.880377   -2.087287   -1.433207
 C    0.152441   -0.528601   -0.656272
 N   -1.797900   -0.037069    0.707139
 C   -2.583461    0.025217    1.913367
 C   -2.637309   -1.330284    2.610504
 O   -2.708825   -2.404689    2.066948
 C   -4.024804    0.455960    1.572133
 C   -4.073999    1.792783    0.871614
 C   -4.369899    1.883804   -0.487979
 C   -3.787664    2.973457    1.567548
 C   -4.381410    3.116507   -1.138240
 C   -3.794118    4.205617    0.933809
 C   -4.094515    4.280967   -0.429129
 O   -4.089512    5.512505   -0.999996
 O   -2.691471   -1.175035    3.941609
 H   -1.675973    2.783503   -0.604589
 H   -0.723057    2.952374    1.670196
 H   -0.195273    2.995439   -2.586035
 H    1.707002    3.372292    1.972337
 H    2.239111    3.376793   -2.279053
 H    3.799759    4.444139    0.781742
 H    4.103127    3.880693   -0.882371
 H    1.647123   -1.299004    1.955105
 H    4.617578   -0.874579   -1.166846
 H    4.428869    0.360010    1.511997
 H    5.342523   -2.076538    1.553118
 H    5.187887   -3.005875    0.067984
 H    7.243868   -0.480796    1.842455
 H    9.550107    0.127794    1.190662
 H   10.507220   -0.721725   -0.936349
 H    9.136562   -2.182662   -2.404097
 H    6.830152   -2.785741   -1.746293
 H   -8.880799   -3.334819   -0.000021
 H   -6.976159   -3.914772    1.482035
 H   -8.460772   -2.181131   -2.156123
 H   -4.664101   -3.328634    0.819354
 H   -6.140654   -1.621062   -2.830933
 H   -2.521404   -3.563751   -0.403362
 H    0.140101   -2.712232   -0.881580
 H    0.278437   -1.815256   -2.384132
 H    2.046184   -0.094187   -1.575945
 H    1.831808    0.636834   -0.000002
 H   -0.250012    0.307187   -1.239039
 H   -2.220219    0.275691   -0.156421
 H   -2.135693    0.740273    2.612254
 H   -4.478897   -0.320022    0.944912
 H   -4.591909    0.490367    2.508598
 H   -4.585524    0.983531   -1.059280
 H   -3.561497    2.927318    2.630861
 H   -4.612973    3.163386   -2.200076
 H   -3.572426    5.120332    1.472999
 H   -4.308888    5.431940   -1.936006
 H   -2.769935   -2.064416    4.322719
