89 
4ca5_ligand_xtb.xyz
 O    4.159912    1.365521   -1.581525
 C   -0.399837    3.365932   -0.430473
 C    0.276344    3.382953    0.778437
 C    0.309364    3.477796   -1.614669
 C    1.653243    3.517289    0.800162
 C    1.688702    3.604484   -1.594580
 C    3.877099    3.706433   -0.337381
 O    4.400061    2.557909    0.331721
 C    4.370435    1.410159   -0.393760
 C    2.370591    3.632367   -0.386569
 O    2.023698   -2.684889    0.294405
 P    2.466564   -1.297358    0.470408
 O    2.591946   -0.816833    1.997629
 C    4.244558   -0.984793   -0.003919
 N    4.625339    0.346064    0.398133
 C    5.116064   -2.044184    0.665736
 C    6.530761   -1.958575    0.172483
 C    7.465980   -1.170395    0.829795
 C    8.756319   -1.054871    0.343551
 C    9.127216   -1.726511   -0.808341
 C    8.201070   -2.513686   -1.471575
 C    6.911297   -2.625990   -0.984993
 O   -0.007411   -0.860817    1.550885
 C   -7.545662   -3.789322   -0.430452
 C   -6.406309   -4.158701    0.265762
 C   -7.461278   -2.853076   -1.448969
 C   -5.181218   -3.605835   -0.058111
 C   -6.241493   -2.293645   -1.776958
 C   -2.504707   -2.590654   -1.160312
 C   -0.192063   -1.452465   -1.561097
 C    1.609740    0.011402   -0.529343
 N   -3.717113   -0.913794   -2.023290
 O   -2.396648   -0.623418   -2.159182
 C   -0.552497   -0.311261    0.605802
 C   -1.664595   -1.630981   -1.635786
 C   -5.090842   -2.672452   -1.088041
 C   -3.806119   -2.080813   -1.427457
 C    0.120424   -0.182735   -0.743544
 N   -1.778654    0.214039    0.702973
 C   -2.544078    0.099779    1.927284
 C   -2.403963   -1.326310    2.455922
 O   -2.641850   -2.311164    1.813770
 C   -4.020220    0.415780    1.638251
 C   -4.132177    1.774014    1.001827
 C   -4.329297    1.903304   -0.367194
 C   -3.972264    2.925362    1.766723
 C   -4.364814    3.154215   -0.959257
 C   -4.006074    4.175644    1.185429
 C   -4.200466    4.298706   -0.188590
 O   -4.221285    5.545873   -0.725772
 O   -2.056712   -1.346404    3.739336
 H   -1.476019    3.269532   -0.444032
 H   -0.273271    3.294187    1.703877
 H   -0.212418    3.459680   -2.560324
 H    2.185052    3.524708    1.740641
 H    2.240374    3.672335   -2.519765
 H    4.214542    4.558444    0.257520
 H    4.293858    3.763766   -1.347416
 H    1.755351   -1.039665    2.421613
 H    4.343771   -1.044179   -1.091776
 H    4.628225    0.517283    1.393390
 H    5.072094   -1.898791    1.747399
 H    4.678511   -3.017162    0.433188
 H    7.183122   -0.646043    1.731274
 H    9.474611   -0.438948    0.865103
 H   10.134605   -1.637756   -1.187710
 H    8.485222   -3.041036   -2.370564
 H    6.189101   -3.240058   -1.503841
 H   -8.499895   -4.227621   -0.177181
 H   -6.473822   -4.881359    1.065802
 H   -8.350222   -2.560612   -1.988464
 H   -4.297270   -3.869779    0.500991
 H   -6.158482   -1.564420   -2.568039
 H   -2.241064   -3.509780   -0.686364
 H    0.256018   -2.317521   -1.074830
 H    0.233580   -1.340520   -2.560683
 H    2.118137    0.038491   -1.494177
 H    1.777607    0.968517   -0.034409
 H   -0.284407    0.687886   -1.271567
 H   -2.228201    0.655653   -0.086760
 H   -2.141010    0.785011    2.683834
 H   -4.418272   -0.352807    0.972505
 H   -4.573895    0.383582    2.578038
 H   -4.467361    1.024706   -0.982572
 H   -3.824185    2.840419    2.833412
 H   -4.519877    3.239733   -2.026453
 H   -3.884370    5.071327    1.772935
 H   -4.371756    5.492786   -1.677406
 H   -1.942558   -2.260178    4.047072
