89 
4ca6_ligand_xtb.xyz
 O    0.922093    2.768848    0.513537
 C    5.522802    4.708069    1.750619
 C    4.261062    4.721706    2.319907
 C    5.657523    4.752866    0.372715
 C    3.135751    4.782163    1.515652
 C    4.533826    4.809783   -0.431964
 C    2.050221    4.834705   -0.755721
 O    1.886353    3.553945   -1.378750
 C    1.345078    2.601395   -0.612955
 C    3.265293    4.830342    0.134532
 O   -0.646846    1.008431    1.759431
 P   -0.801370    0.653761    0.212730
 O   -1.531120    1.647091   -0.593182
 C    0.874759    0.244113   -0.522091
 N    1.316216    1.412512   -1.236722
 C    1.886168   -0.223487    0.538913
 C    3.292525   -0.091599    0.021717
 C    4.071544    0.998100    0.390101
 C    5.352051    1.147836   -0.112354
 C    5.866918    0.208808   -0.989343
 C    5.094195   -0.877475   -1.364248
 C    3.811690   -1.025291   -0.866888
 O   -4.543951   -1.941934   -0.991414
 C    4.927601   -5.892502    1.016224
 C    4.963989   -5.314679   -0.243055
 C    3.750082   -5.884722    1.745039
 C    3.829228   -4.733099   -0.772548
 C    2.610950   -5.302157    1.221558
 C    0.105426   -4.169501   -0.160812
 C   -2.011494   -2.983520   -1.116724
 C   -1.648766   -0.967648    0.383126
 N    1.527298   -3.307543   -1.658501
 O    0.276368   -2.864519   -1.929897
 C   -3.662885   -1.111096   -1.096651
 C   -0.585022   -3.380516   -1.034530
 C    2.640389   -4.720261   -0.043502
 C    1.454940   -4.092319   -0.606507
 C   -2.176182   -1.462933   -0.967756
 N   -3.886261    0.190282   -1.330299
 C   -5.216538    0.731661   -1.408883
 C   -5.417426    1.436291   -2.738595
 O   -4.576232    1.591833   -3.578685
 C   -5.494192    1.700663   -0.238744
 C   -5.350339    0.965137    1.062425
 C   -4.184474    1.067320    1.809908
 C   -6.355402    0.117034    1.507066
 C   -4.018651    0.339567    2.972568
 C   -6.201303   -0.615089    2.668508
 C   -5.027975   -0.512822    3.406367
 O   -4.828474   -1.225302    4.550412
 O   -6.672110    1.885149   -2.875977
 H    6.399813    4.659799    2.379350
 H    4.152153    4.682792    3.393795
 H    6.640356    4.743821   -0.076044
 H    2.150948    4.781331    1.958180
 H    4.635396    4.833916   -1.507078
 H    2.166845    5.533611   -1.586417
 H    1.148261    5.073321   -0.184386
 H   -0.250381    1.887639    1.817246
 H    0.720907   -0.539906   -1.266975
 H    1.737905    1.331238   -2.147102
 H    1.667648   -1.261929    0.794787
 H    1.772416    0.386152    1.436318
 H    3.676482    1.735579    1.074847
 H    5.944232    2.000896    0.183877
 H    6.867543    0.323713   -1.379596
 H    5.490536   -1.612784   -2.048837
 H    3.209396   -1.868641   -1.171672
 H    5.815169   -6.348678    1.428988
 H    5.881245   -5.321094   -0.813080
 H    3.719321   -6.333726    2.726959
 H    3.840157   -4.287996   -1.754885
 H    1.700384   -5.292386    1.801407
 H   -0.290630   -4.730450    0.658297
 H   -2.423813   -3.282902   -2.082976
 H   -2.580888   -3.487095   -0.335549
 H   -0.945164   -1.678709    0.816363
 H   -2.461487   -0.832838    1.099204
 H   -1.635993   -0.961978   -1.779345
 H   -3.111152    0.846211   -1.336952
 H   -5.911936   -0.115750   -1.355009
 H   -6.503260    2.098939   -0.351667
 H   -4.775440    2.520294   -0.288379
 H   -3.389043    1.716197    1.474550
 H   -7.268768    0.023688    0.938240
 H   -3.110243    0.413229    3.549256
 H   -6.990362   -1.276264    3.002469
 H   -5.601070   -1.775153    4.727804
 H   -6.776538    2.333347   -3.730538
