89 
4ca7_ligand_xtb.xyz
 O    5.635881   -0.990729   -1.158559
 C    4.139551    4.484125   -1.114448
 C    5.036649    4.633409   -0.069249
 C    4.055850    3.273180   -1.783743
 C    5.854614    3.578879    0.298034
 C    4.880441    2.223099   -1.423091
 C    6.678510    1.216430    0.008299
 O    5.935693    0.228474    0.728158
 C    5.425217   -0.789938    0.009316
 C    5.791588    2.371329   -0.383509
 O    1.503340   -1.077395    1.455607
 P    2.161047   -1.244911    0.141650
 O    2.851819    0.087713   -0.378469
 C    3.637301   -2.395122    0.228057
 N    4.694563   -1.613766    0.818541
 C    3.317633   -3.618128    1.078372
 C    2.158841   -4.374146    0.496756
 C    0.920300   -4.367141    1.123995
 C   -0.151287   -5.052662    0.574746
 C    0.003796   -5.749282   -0.611669
 C    1.237460   -5.765222   -1.242482
 C    2.307978   -5.084893   -0.690134
 O   -0.514720    1.147691   -2.091683
 C   -8.054776    1.513086   -1.824873
 C   -8.194121    0.282896   -1.202329
 C   -6.791164    2.030927   -2.055445
 C   -7.076058   -0.425926   -0.810491
 C   -5.667474    1.325832   -1.666695
 C   -3.272546   -0.458490   -0.982683
 C   -1.155554   -1.785164   -0.198503
 C    1.104843   -1.690438   -1.303955
 N   -4.713541   -1.628870    0.271782
 O   -3.459066   -2.098278    0.481349
 C   -0.294717    0.432262   -1.133867
 C   -2.589216   -1.397490   -0.269518
 C   -5.801840    0.090303   -1.038925
 C   -4.629639   -0.649120   -0.599552
 C   -0.305625   -1.094551   -1.265905
 N   -0.082947    0.925382    0.102431
 C   -0.139064    2.339798    0.370030
 C    1.239055    2.977098    0.400074
 O    1.218601    4.260948    0.092760
 C   -0.782230    2.603111    1.749309
 C   -2.176454    2.047627    1.820757
 C   -3.252171    2.769919    1.317811
 C   -2.416426    0.804266    2.388181
 C   -4.537059    2.272794    1.388418
 C   -3.699551    0.297741    2.467672
 C   -4.771505    1.027032    1.964560
 O   -6.046589    0.572476    2.023883
 O    2.255526    2.405647    0.725492
 H    3.523697    5.318154   -1.426079
 H    5.103637    5.574443    0.458364
 H    3.349285    3.149012   -2.590990
 H    6.552081    3.698295    1.114382
 H    4.819857    1.281390   -1.946056
 H    7.471989    1.541668    0.684930
 H    7.110569    0.747550   -0.882855
 H    2.694807    0.877808    0.177899
 H    3.958665   -2.669024   -0.779420
 H    4.493369   -1.240130    1.738048
 H    3.063675   -3.276463    2.083750
 H    4.204257   -4.254056    1.136577
 H    0.794899   -3.822401    2.047080
 H   -1.107932   -5.046187    1.076662
 H   -0.831214   -6.282417   -1.041153
 H    1.365954   -6.313446   -2.164082
 H    3.271227   -5.109311   -1.179111
 H   -8.930077    2.068780   -2.127799
 H   -9.179097   -0.121508   -1.020779
 H   -6.681157    2.991377   -2.537661
 H   -7.166945   -1.384604   -0.324403
 H   -4.685370    1.740802   -1.834789
 H   -2.882276    0.249751   -1.679855
 H   -0.768974   -1.582644    0.801730
 H   -1.089409   -2.868353   -0.342000
 H    1.646009   -1.317529   -2.175052
 H    1.034566   -2.775651   -1.383508
 H   -0.762931   -1.287345   -2.245090
 H    0.221797    0.318214    0.852159
 H   -0.725481    2.808684   -0.427177
 H    2.123717    4.628995    0.104383
 H   -0.154078    2.137837    2.512144
 H   -0.798957    3.681238    1.917896
 H   -3.080891    3.737978    0.869820
 H   -1.594325    0.228220    2.788069
 H   -5.376629    2.827938    1.001696
 H   -3.874459   -0.672233    2.912634
 H   -6.046863   -0.367340    2.247389
