40 
4cby_ligand_dft.xyz
 C   -2.652427    1.946432   -0.022186
 C   -1.543446    1.108330   -0.551562
 C   -0.753600    0.274862    0.421214
 C   -1.652041   -0.426828   -0.548657
 C    0.732975    0.178125    0.297142
 C    1.361450   -1.053791    0.119249
 C    2.745221   -1.143283    0.028287
 C    3.534134    0.007703    0.114523
 C    2.905289    1.245977    0.294010
 C    1.524197    1.326447    0.383876
 C   -2.893286   -1.178875   -0.198705
 C   -3.440804   -2.028372   -1.166015
 C   -4.595654   -2.758819   -0.908580
 C   -5.225563   -2.650366    0.327493
 C   -4.688206   -1.810317    1.298209
 C   -3.530473   -1.082919    1.041929
 C    4.987918   -0.066063    0.020042
 O    5.564388   -1.287689   -0.194511
 C    6.888098   -1.043979   -0.232835
 N    7.215484    0.193199   -0.067052
 C    6.001472    0.837251    0.097891
 O   -3.045579    1.954220    1.140414
 N   -3.211729    2.798043   -0.932667
 O   -4.373776    3.438154   -0.512775
 H   -1.012793    1.531188   -1.401155
 H   -1.128221    0.352368    1.440616
 H   -1.128769   -0.855897   -1.401309
 H    0.758703   -1.955635    0.053335
 H    3.218249   -2.109532   -0.110480
 H    3.498976    2.152944    0.359573
 H    1.047133    2.293201    0.520657
 H   -2.952794   -2.120236   -2.133737
 H   -5.000339   -3.414813   -1.673734
 H   -6.128853   -3.216852    0.533111
 H   -5.171489   -1.718260    2.266258
 H   -3.139443   -0.421367    1.806059
 H    7.534871   -1.892824   -0.396453
 H    5.947807    1.903215    0.262953
 H   -3.307275    2.493788   -1.892957
 H   -4.453832    3.113452    0.408310
