56 
4cd0_ligand_xtb.xyz
 C   -2.394818    1.637435   -0.662495
 C   -2.800914    2.940637   -0.268032
 N   -1.946232    3.819559    0.227738
 C   -0.672509    3.485778    0.376400
 C   -0.164124    2.249163    0.004782
 C   -1.067662    1.315681   -0.530527
 O   -3.368216    0.813132   -1.154079
 N   -4.115038    3.295447   -0.342128
 C   -3.003426   -0.543753   -1.396788
 C   -2.640746   -1.230813   -0.092017
 C   -4.218589   -1.221298   -2.028938
 C   -1.523094   -2.045331    0.124545
 C   -1.330348   -2.652784    1.366943
 C   -2.215278   -2.458525    2.404602
 C   -3.302539   -1.630061    2.188871
 C   -3.518288   -1.027645    0.967506
 F   -4.176039   -1.409965    3.190064
 N   -0.528051   -2.286968   -0.829068
 N   -0.391694   -1.633480   -1.967724
 C    0.705138   -2.120126   -2.515929
 C    1.217988   -3.098713   -1.655905
 N    0.423546   -3.175907   -0.607162
 C    1.218830    1.855152    0.162397
 C    2.380548    2.581443    0.079909
 N    3.514634    1.853660    0.247097
 C    3.284150    0.603297    0.451515
 S    1.602330    0.176671    0.464273
 C    2.505757    4.037800   -0.209963
 C    4.378823   -0.389792    0.696833
 C    4.115248   -1.699039   -0.071214
 O    5.595074    0.128405    0.192169
 C    4.482203   -0.661888    2.205806
 O    4.046588   -1.476121   -1.452224
 H   -0.052249    4.243491    0.830727
 H   -0.686050    0.361740   -0.852452
 H   -4.702545    2.742832   -0.942237
 H   -4.319019    4.275274   -0.246544
 H   -2.168323   -0.581353   -2.102998
 H   -3.976970   -2.252506   -2.269729
 H   -4.492472   -0.697219   -2.940517
 H   -5.064062   -1.203345   -1.346668
 H   -0.460909   -3.276775    1.494924
 H   -2.067036   -2.923921    3.365284
 H   -4.370322   -0.378688    0.836750
 H    1.071361   -1.764205   -3.454923
 H    2.090741   -3.707330   -1.754780
 H    2.484057    4.615437    0.714010
 H    1.691962    4.371386   -0.849132
 H    3.458294    4.220119   -0.701186
 H    4.924325   -2.402803    0.168978
 H    3.159791   -2.132134    0.232330
 H    5.560522    1.090174    0.285093
 H    4.649952    0.271909    2.737875
 H    3.566114   -1.120273    2.568093
 H    5.319654   -1.328443    2.393794
 H    4.824426   -0.949629   -1.683638
