56 
4cd0_ligand_dft.xyz
 C   -2.204130    1.848580   -0.449635
 C   -2.483063    3.187921   -0.071859
 N   -1.539546    4.010575    0.366906
 C   -0.285846    3.550779    0.473029
 C    0.093472    2.261521    0.131246
 C   -0.911377    1.393583   -0.341923
 O   -3.272550    1.145967   -0.923906
 N   -3.777405    3.643179   -0.123317
 C   -3.054227   -0.210711   -1.309556
 C   -2.875027   -1.080271   -0.073633
 C   -4.260253   -0.635148   -2.131669
 C   -1.885187   -2.058632    0.059581
 C   -1.754543   -2.799572    1.233221
 C   -2.617260   -2.583605    2.295821
 C   -3.605310   -1.619658    2.154954
 C   -3.743368   -0.874885    0.998582
 F   -4.447077   -1.399275    3.172615
 N   -0.930255   -2.286130   -0.971003
 N   -1.251818   -2.398218   -2.257215
 C   -0.077907   -2.573346   -2.856914
 C    0.934229   -2.568503   -1.885347
 N    0.368398   -2.389615   -0.696451
 C    1.478047    1.781490    0.227778
 C    2.639483    2.326351   -0.251471
 N    3.757350    1.536152   -0.082999
 C    3.474602    0.412265    0.504135
 S    1.815950    0.225675    0.932193
 C    2.782945    3.643421   -0.949792
 C    4.554973   -0.622196    0.761587
 C    4.153459   -1.991616    0.188008
 O    5.709460   -0.226825    0.039455
 C    4.871500   -0.720650    2.255116
 O    4.026709   -1.924834   -1.209527
 H    0.447043    4.254931    0.859669
 H   -0.639742    0.383048   -0.624416
 H   -4.402531    3.157687   -0.748045
 H   -3.872991    4.647028   -0.086527
 H   -2.167210   -0.260956   -1.945499
 H   -4.107823   -1.655999   -2.490414
 H   -4.376310    0.030411   -2.991486
 H   -5.174134   -0.600999   -1.530482
 H   -0.961682   -3.535301    1.302538
 H   -2.533318   -3.144622    3.219308
 H   -4.504127   -0.104032    0.944736
 H   -0.014930   -2.694048   -3.927793
 H    2.009435   -2.645263   -1.976778
 H    3.170054    4.410181   -0.268938
 H    1.821666    3.990702   -1.337659
 H    3.489810    3.551004   -1.779016
 H    4.922140   -2.721187    0.486076
 H    3.191312   -2.322015    0.592739
 H    5.565725    0.705213   -0.206507
 H    5.161009    0.260421    2.641731
 H    4.004584   -1.076776    2.822574
 H    5.703057   -1.414932    2.406805
 H    4.790130   -1.400584   -1.498434
