47 
4cd8_ligand_xtb.xyz
 C    2.433084    0.744588    1.020300
 N    2.866999   -0.465295    0.594971
 C    1.136843    0.968899   -1.064476
 C    1.095578   -0.567845   -1.075168
 C    2.408700   -1.181978   -0.566333
 C    3.506573   -1.216767   -1.641383
 C    4.027997    0.202375    2.318320
 C    3.892170   -0.821710    1.428001
 N    3.111795    1.172764    2.055607
 O    2.205123    1.404526   -1.863921
 O    1.548379    2.862398    0.332014
 C    1.302875    1.471815    0.378375
 O    4.465981   -2.169526   -1.242361
 C   -1.240036   -0.806285   -0.591369
 C   -2.126075   -1.860106    0.095684
 C   -3.604742   -1.527344   -0.140515
 C   -3.876310   -0.073582    0.291453
 C   -2.901749    0.866645   -0.424931
 C   -3.061414    2.316541    0.050072
 O    0.074696   -1.092487   -0.237286
 O   -1.908646   -1.871000    1.484107
 O   -4.445220   -2.410723    0.551214
 O   -5.192019    0.295246   -0.020754
 O   -1.562646    0.485498   -0.150561
 O   -2.223237    3.198937   -0.638803
 H    0.191696    1.358440   -1.470268
 H    0.919558   -0.900671   -2.108965
 H    2.203158   -2.220812   -0.276283
 H    3.058479   -1.500782   -2.602646
 H    3.948069   -0.219663   -1.744286
 H    4.717364    0.308889    3.130789
 H    4.421559   -1.741850    1.300819
 H    2.364124    2.326141   -1.607483
 H    2.048622    3.084667    1.128539
 H    0.371464    1.273521    0.932894
 H    5.208554   -2.143320   -1.854068
 H   -1.377411   -0.872023   -1.691153
 H   -1.888191   -2.847932   -0.330698
 H   -3.850926   -1.635986   -1.203108
 H   -3.700774    0.000155    1.377925
 H   -3.084193    0.816341   -1.509602
 H   -4.087395    2.629841   -0.147570
 H   -2.871812    2.351583    1.130757
 H   -0.968255   -1.717123    1.634855
 H   -4.072223   -2.523735    1.436529
 H   -5.757135   -0.463414    0.182606
 H   -1.306128    2.971026   -0.441006
