113 
4cdr_ligand_dft.xyz
 C   -5.581725    0.093547   -1.943540
 O   -6.297519    1.019532   -1.593413
 C   -4.914614    0.043469   -3.302376
 N   -5.282647   -0.957356   -1.118212
 C   -5.649430   -0.907870    0.279352
 C   -4.729339   -0.004652    1.111360
 O   -5.061896    0.408802    2.211956
 C   -5.757093   -2.306946    0.917268
 C   -6.905566   -3.096654    0.287534
 C   -4.444689   -3.095336    0.847943
 N   -3.519747    0.281809    0.549073
 C   -2.726095    1.380074    1.029967
 C   -2.179024    2.120203   -0.190756
 O   -2.151819    1.577123   -1.296283
 C   -1.534447    0.924288    1.910859
 O   -0.503251    0.359323    1.101219
 C   -1.960769   -0.024438    3.019484
 N   -1.628134    3.336248    0.008306
 C   -0.945957    4.021718   -1.088722
 C    0.570751    3.757015   -1.110192
 O    1.314869    4.522672   -1.706957
 C   -1.236285    5.496720   -0.809220
 C   -1.225716    5.554280    0.721613
 C   -1.881827    4.232958    1.146737
 N    1.011342    2.672842   -0.424436
 C    2.417729    2.355661   -0.367738
 C    2.609569    0.878385   -0.724207
 O    1.734173    0.219485   -1.266051
 C    3.050198    2.801552    0.975363
 C    2.397040    2.120158    2.177263
 C    2.983324    4.324443    1.114416
 C   10.083734   -1.136704   -0.712044
 C    8.625545   -1.219286   -1.161229
 C    7.753518   -0.211720   -0.419204
 O    6.419813   -0.154886   -0.894807
 C    5.632699   -1.268338   -0.551449
 C    4.196610   -0.961025   -0.970265
 C    3.300530   -2.116272   -0.519480
 O    3.249861   -3.148240   -1.186887
 N    3.816671    0.324345   -0.414279
 N    2.656119   -1.933733    0.643439
 C    1.676224   -2.838618    1.211249
 C    0.352925   -2.820595    0.414443
 O   -0.701648   -2.432959    0.920705
 C    1.445022   -2.397368    2.673673
 O    1.386189   -0.985693    2.753564
 C    2.582671   -2.843888    3.577310
 N    0.440969   -3.252723   -0.855861
 C   -0.726685   -3.385765   -1.718378
 C   -1.543148   -2.082849   -1.805110
 O   -2.763896   -2.130134   -1.943682
 C   -1.602518   -4.568619   -1.316466
 N   -0.843331   -0.941021   -1.802150
 H   -3.970375    0.595276   -3.237133
 H   -4.687990   -0.975372   -3.624494
 H   -5.556337    0.540891   -4.031450
 H   -4.541798   -1.587332   -1.411735
 H   -6.626079   -0.419664    0.338809
 H   -5.993761   -2.122099    1.971877
 H   -7.856327   -2.561898    0.386108
 H   -6.722956   -3.264635   -0.779379
 H   -7.013017   -4.073546    0.771485
 H   -4.189671   -3.360001   -0.183863
 H   -4.537330   -4.028381    1.414408
 H   -3.596703   -2.535316    1.255812
 H   -3.379157    0.034388   -0.422731
 H   -3.369334    2.021505    1.644251
 H   -1.072182    1.814002    2.348773
 H   -0.844952   -0.461655    0.695929
 H   -1.107283   -0.240546    3.669119
 H   -2.320679   -0.964041    2.591872
 H   -2.772034    0.409354    3.608859
 H   -1.354277    3.675869   -2.040873
 H   -0.492015    6.142442   -1.275569
 H   -2.226663    5.752626   -1.199003
 H   -1.756291    6.418540    1.126956
 H   -0.193212    5.595913    1.085070
 H   -2.961434    4.350277    1.291547
 H   -1.451465    3.843505    2.073296
 H    0.363511    1.978899   -0.064544
 H    2.894896    2.928866   -1.174030
 H    4.114367    2.528665    0.953723
 H    1.329148    2.363848    2.218352
 H    2.853037    2.472231    3.108185
 H    2.486631    1.030951    2.156524
 H    1.943881    4.654047    1.214478
 H    3.409127    4.833521    0.245293
 H    3.522942    4.645186    2.011525
 H   10.700468   -1.861458   -1.250896
 H   10.500282   -0.140398   -0.898054
 H   10.183046   -1.345263    0.359300
 H    8.543854   -1.020451   -2.235853
 H    8.250399   -2.236159   -0.995121
 H    8.152263    0.798029   -0.558857
 H    7.755715   -0.426549    0.662472
 H    5.952732   -2.183849   -1.063031
 H    5.674848   -1.444828    0.536563
 H    4.131423   -0.941396   -2.063459
 H    4.597519    0.931228   -0.201265
 H    2.675914   -1.020653    1.083066
 H    2.076844   -3.858643    1.180166
 H    0.500052   -2.837963    3.009433
 H    0.628802   -0.647377    2.235369
 H    2.422207   -2.455081    4.585908
 H    2.638508   -3.935859    3.625601
 H    3.540152   -2.460229    3.209261
 H    1.360114   -3.528298   -1.196386
 H   -0.330137   -3.554898   -2.726328
 H   -2.452674   -4.651740   -1.995763
 H   -1.018745   -5.492887   -1.354423
 H   -1.984553   -4.425804   -0.302956
 H   -1.339980   -0.054616   -1.837270
 H    0.160060   -0.899432   -1.673758
