31 
4ci3_ligand_dft.xyz
 C   -4.432541    0.626740    0.068657
 C   -4.555221   -0.750345    0.177236
 C   -3.443682   -1.607504    0.125578
 C   -2.217853   -1.002397   -0.035122
 C   -2.077073    0.378957   -0.144856
 C   -3.171447    1.243722   -0.100631
 C   -0.852778   -1.601656   -0.105231
 N    0.024684   -0.522345   -0.294574
 C   -0.649274    0.704349   -0.271737
 N   -3.018489    2.592271   -0.253753
 O   -0.116264    1.795769   -0.347879
 C    1.455111   -0.659200   -0.230779
 O   -0.515507   -2.758933   -0.027370
 C    2.181120   -0.107495   -1.458422
 C    1.972225   -0.036390    1.070091
 N    3.306853    0.338692    1.053944
 C    4.217774    0.287543   -0.001372
 C    3.687044   -0.297897   -1.292792
 O    1.292412    0.093298    2.060561
 O    5.353903    0.672463    0.153675
 H   -5.322346    1.249314    0.109471
 H   -5.546514   -1.174021    0.308042
 H   -3.541602   -2.683002    0.215818
 H   -3.757191    3.201439    0.059123
 H   -2.075741    2.953843   -0.193251
 H    1.639403   -1.739393   -0.152021
 H    1.826764   -0.631027   -2.350410
 H    1.939213    0.952884   -1.574835
 H    3.661751    0.727599    1.920696
 H    4.249988    0.158192   -2.109499
 H    3.938168   -1.367482   -1.288061
