68 
4cig_ligand_dft.xyz
 C   -5.049557    0.083792   -0.448658
 C   -4.578340   -1.241451   -0.644924
 C   -4.132044    1.071712   -0.009611
 C   -3.212682   -1.524697   -0.382936
 C    1.729411   -3.237572    1.913011
 C    0.798274    3.662080   -1.222631
 C    1.359039    3.523356    1.105118
 C    2.368380   -4.338130    1.360715
 C    2.085621    3.288833   -1.564575
 C    2.664354    3.155618    0.779818
 C   -2.813554    0.774624    0.236521
 C    2.486215   -1.871402    0.068787
 C    0.413534    3.773230    0.117293
 C   -2.334881   -0.564505    0.053421
 C    1.754019   -2.003048    1.255472
 C    3.049788   -4.232248    0.154434
 C    3.124002   -2.996488   -0.490478
 C    3.015920    3.022727   -0.559982
 C   -1.904716    1.846734    0.754473
 C    2.645475   -0.537947   -0.603271
 C   -7.267206   -0.605544   -1.124829
 C    4.465799   -3.859389   -2.254420
 C    5.330101    2.660030   -0.074445
 C   -1.017015    4.109212    0.476554
 C   -0.883742   -0.922513    0.246498
 C    1.028377   -0.833386    1.877439
 C   -1.173462   -1.885542    2.515384
 C   -6.796685   -1.924473   -1.325307
 N   -1.943041    3.030132    0.124209
 N   -0.471868   -0.868703    1.696218
 O    1.716143    0.153525   -0.969441
 O   -1.160842    1.665749    1.732789
 C   -6.413792    0.378360   -0.695552
 O    3.914247   -0.169026   -0.701134
 C   -5.482035   -2.237439   -1.091107
 O    3.752424   -2.788855   -1.659477
 O    4.241161    2.577769   -0.986982
 H   -4.499843    2.081070    0.159073
 H   -2.856901   -2.539150   -0.549891
 H    1.236425   -3.331123    2.875557
 H    0.079094    3.865137   -2.012767
 H    1.075609    3.602369    2.150584
 H    2.342966   -5.293214    1.875162
 H    2.387766    3.185127   -2.600858
 H    3.380523    2.966517    1.571559
 H    3.532620   -5.105956   -0.265841
 H   -8.311008   -0.376629   -1.313158
 H    3.792446   -4.678653   -2.531507
 H    5.250222   -4.230667   -1.585494
 H    4.920562   -3.444629   -3.152918
 H    5.234088    1.917675    0.726330
 H    5.400037    3.664914    0.353424
 H    6.225343    2.444440   -0.657420
 H   -1.110155    4.298632    1.548542
 H   -1.360737    5.002524   -0.051493
 H   -0.211124   -0.247135   -0.287432
 H   -0.679204   -1.935010   -0.108700
 H    1.193484   -0.806906    2.957717
 H    1.339887    0.125612    1.460097
 H   -0.865500   -1.780142    3.556630
 H   -0.927655   -2.882169    2.147056
 H   -2.246805   -1.715200    2.429752
 H   -7.485373   -2.690481   -1.666605
 H   -2.454173    3.089935   -0.743766
 H   -0.794956    0.087188    1.993528
 H   -6.773509    1.391668   -0.540614
 H    3.952986    0.733651   -1.093674
 H   -5.119404   -3.249900   -1.245173
