38 
4cik_ligand_xtb.xyz
 C   -1.195267    1.626621   -0.669368
 C    0.283531    1.833432   -0.964250
 N    1.073024    1.062825    0.022380
 C    0.817072   -0.408055   -0.070577
 C   -0.646815   -0.650262    0.264197
 C   -1.559518    0.134454   -0.693783
 C   -2.991151   -0.044428   -0.294523
 O   -3.337073    0.448901    0.929844
 N   -4.682482    0.149609    1.068944
 C   -5.201471   -0.489671   -0.037757
 C   -4.032544   -0.614319   -0.918741
 O   -6.344868   -0.832188   -0.163429
 C    1.809380   -1.121562    0.853522
 C    3.215950   -0.717632    0.482804
 C    3.831982    0.358216    1.118851
 C    5.098100    0.770961    0.734531
 C    5.753458    0.121824   -0.297386
 C    5.147742   -0.949772   -0.934011
 C    3.884989   -1.365148   -0.548957
 H   -1.788187    2.160275   -1.411410
 H   -1.443528    2.039650    0.310471
 H    0.547175    2.890191   -0.896986
 H    0.534603    1.473808   -1.963879
 H    2.097107    1.201386   -0.067340
 H    0.803889    1.367670    0.966364
 H    1.019391   -0.699223   -1.106603
 H   -0.854343   -0.347727    1.293007
 H   -0.866351   -1.714711    0.184000
 H   -1.445875   -0.256614   -1.708096
 H   -5.143991    0.497017    1.892867
 H   -4.056938   -1.076410   -1.882376
 H    1.599506   -0.871020    1.895156
 H    1.684949   -2.197689    0.737727
 H    3.347955    0.843271    1.957073
 H    5.571067    1.594180    1.246827
 H    6.738929    0.441631   -0.595801
 H    5.662139   -1.466760   -1.728420
 H    3.421621   -2.207617   -1.040469
