26 
4civ_ligand_xtb.xyz
 O   -2.807857    0.927780   -0.041931
 C   -1.512291    0.616623   -0.512111
 C   -0.527474    1.615723    0.118583
 O   -0.801604    2.924491   -0.310173
 C    0.895843    1.244168   -0.277955
 C    1.254281   -0.114662    0.352899
 C    2.536463   -0.579950   -0.340298
 O    2.582305   -1.250772   -1.333386
 O    3.628669   -0.097303    0.265353
 O    1.433314   -0.011932    1.748827
 C    0.156102   -1.118974    0.121456
 C   -1.077423   -0.802582   -0.246237
 C   -2.141785   -1.860149   -0.417061
 O   -3.147797   -1.762414    0.578603
 H   -3.264298    0.105474    0.194762
 H   -1.498298    0.773082   -1.607623
 H   -0.626343    1.546776    1.214459
 H   -1.756780    3.047127   -0.240350
 H    0.964003    1.182564   -1.364997
 H    1.581666    2.016613    0.073034
 H    4.429114   -0.375258   -0.207683
 H    2.233658    0.500499    1.918800
 H    0.433277   -2.147407    0.301461
 H   -1.687089   -2.857326   -0.408832
 H   -2.663332   -1.719033   -1.368301
 H   -2.744115   -1.913105    1.441256
