39 
4ciy_ligand_xtb.xyz
 C   -4.001087   -0.533211    1.135900
 C   -5.356120   -0.298705    0.971561
 C   -5.900438   -0.236824   -0.299032
 C   -5.085043   -0.413674   -1.404907
 C   -3.732106   -0.646080   -1.239727
 C   -3.174929   -0.711442    0.032388
 C   -1.693477   -0.894192    0.200214
 C   -1.001545    0.473808    0.083963
 O   -1.313051    1.299026    1.199632
 C    0.508509    0.408475    0.001627
 C    1.223734   -0.626946    0.414620
 C    2.728704   -0.697445    0.380999
 C    3.153642   -1.963531   -0.368450
 O    4.328608   -2.431869    0.070500
 O    2.549786   -2.464971   -1.275966
 O    3.167992   -0.722369    1.720068
 C    3.343429    0.481702   -0.399151
 C    2.603351    1.763910   -0.041133
 O    3.251392    2.864057   -0.627493
 C    1.156215    1.653658   -0.553036
 O    0.447946    2.838512   -0.266514
 H   -3.585002   -0.593740    2.132632
 H   -5.986559   -0.165071    1.838392
 H   -6.956850   -0.054853   -0.428055
 H   -5.505382   -0.369741   -2.398819
 H   -3.097268   -0.784327   -2.103174
 H   -1.473573   -1.317220    1.180996
 H   -1.297689   -1.551474   -0.573765
 H   -1.362996    0.968007   -0.835087
 H   -2.270633    1.286050    1.322748
 H    0.757436   -1.499956    0.841524
 H    4.591929   -3.215602   -0.437596
 H    4.104591   -0.956076    1.733510
 H    3.258257    0.310052   -1.473479
 H    4.399405    0.586446   -0.145815
 H    2.581454    1.876692    1.055585
 H    2.601864    3.578933   -0.668661
 H    1.190786    1.584890   -1.652017
 H   -0.048193    2.700874    0.554251
