32 
4ckj_ligand_xtb.xyz
 O    1.827768   -1.597212    1.659163
 C    2.957556   -1.831533    0.846803
 C    3.074192   -0.724393   -0.206288
 O    2.024145   -0.821369   -1.163276
 C    2.985607    0.686891    0.391250
 O    3.739573    1.585184   -0.370821
 C    1.482679    0.986743    0.297213
 O    1.244951    2.352482    0.151019
 C    1.058823    0.159047   -0.942026
 N   -0.246212   -0.420796   -0.725582
 C   -0.671905   -1.708140   -0.880228
 N   -1.925794   -1.886105   -0.593965
 C   -2.383222   -0.646778   -0.221496
 C   -3.627538   -0.143200    0.197727
 N   -4.722241   -0.909776    0.321308
 N   -3.718791    1.158225    0.492191
 C   -2.648783    1.923993    0.384233
 N   -1.429790    1.582443    0.002962
 C   -1.332202    0.281623   -0.297078
 H    1.716079   -2.341112    2.260828
 H    3.875194   -1.840943    1.450589
 H    2.865115   -2.790031    0.320778
 H    4.016028   -0.846220   -0.749859
 H    3.326243    0.695228    1.435164
 H    3.244273    2.417653   -0.388359
 H    0.977822    0.578948    1.182470
 H    0.272575    2.460519    0.102635
 H    0.997362    0.818935   -1.825614
 H   -0.005816   -2.478069   -1.212790
 H   -5.588277   -0.485251    0.599689
 H   -4.671518   -1.881292    0.075320
 H   -2.788013    2.965504    0.641400
