73 
4ckr_ligand_dft.xyz
 C  -10.559196   -0.875769    2.581535
 C   -9.066310   -1.115191    2.706014
 N   -8.263253   -0.396025    1.624133
 C   -8.565033   -0.897335    0.241856
 C   -7.744302   -0.173005   -0.817003
 N   -6.274389   -0.253692   -0.542917
 C   -5.984460    0.265842    0.833856
 C   -6.785594   -0.481948    1.885224
 C   -5.455098    0.444869   -1.644457
 C   -3.983413    0.243426   -1.415776
 C   -3.451793   -1.027758   -1.630632
 C   -2.107226   -1.294911   -1.383976
 C   -1.274050   -0.282697   -0.917465
 C   -1.795993    0.998260   -0.714402
 C   -3.129403    1.272288   -0.971560
 C   -3.634914    2.686974   -0.799064
 F   -4.216251    3.135526   -1.923235
 F   -2.688818    3.533096   -0.442870
 F   -4.606469    2.734213    0.164700
 C    0.169201   -0.494041   -0.504275
 N    0.862287   -1.381416   -1.257820
 C    2.217659   -1.782781   -1.104361
 C    2.796899   -2.487635   -2.158225
 C    4.109580   -2.928371   -2.052193
 C    4.879830   -2.685327   -0.915406
 C    6.294067   -3.181122   -0.794353
 C    4.269997   -1.966265    0.121429
 C    2.956316   -1.516293    0.046474
 O    4.935979   -1.735477    1.297070
 C    6.012930   -0.865998    1.281607
 C    6.968437   -1.047300    2.274686
 C    8.069019   -0.195327    2.361804
 C    8.182551    0.821954    1.427114
 C    7.222492    1.003785    0.424772
 C    7.631192    2.181572   -0.415166
 C    8.941390    2.650582    0.234170
 N    9.177383    1.793202    1.294029
 O    9.640348    3.578373   -0.096788
 C    6.124889    0.165686    0.346272
 O    0.582650    0.123933    0.461400
 H  -10.808251    0.190602    2.581036
 H  -11.001964   -1.357581    1.706482
 H  -11.039853   -1.314105    3.460394
 H   -8.804159   -2.173679    2.627496
 H   -8.681690   -0.730321    3.653619
 H   -8.540089    0.591955    1.672173
 H   -9.625486   -0.743449    0.036504
 H   -8.370204   -1.974359    0.248460
 H   -7.996470    0.890444   -0.873574
 H   -7.943908   -0.619351   -1.794025
 H   -5.981729   -1.237640   -0.572558
 H   -6.203123    1.335104    0.823984
 H   -4.916038    0.149273    1.025595
 H   -6.533077   -1.546263    1.924999
 H   -6.583749   -0.048622    2.867400
 H   -5.768415    1.488027   -1.647023
 H   -5.784700   -0.023711   -2.576005
 H   -4.082851   -1.825301   -2.021975
 H   -1.724248   -2.299159   -1.538166
 H   -1.132883    1.770710   -0.340756
 H    0.432216   -1.688361   -2.118831
 H    2.229700   -2.699083   -3.061846
 H    4.547055   -3.486147   -2.875077
 H    6.514527   -3.920899   -1.567960
 H    7.011657   -2.359131   -0.892223
 H    6.463839   -3.638671    0.184836
 H    2.542211   -0.963513    0.877362
 H    6.842221   -1.862382    2.979042
 H    8.813206   -0.337992    3.138412
 H    6.907618    3.003165   -0.401448
 H    7.819722    1.928263   -1.463628
 H    9.988556    1.888873    1.885592
 H    5.370212    0.301687   -0.422066
