80 
4cl9_ligand_xtb.xyz
 C    2.827069    5.269226   -1.832190
 C    3.727852    4.799732   -0.698934
 C    4.939022    5.707221   -0.510934
 O    4.159584    3.470454   -1.028509
 C    4.490349    2.669846    0.006018
 O    4.418374    2.975995    1.170989
 N    4.927413    1.477845   -0.460769
 C    5.218066    0.358017    0.417145
 C    6.583387   -0.253600    0.097953
 C    6.487115   -1.418902   -0.893762
 C    5.959576   -1.017504   -2.272595
 N    5.633112   -2.444281   -0.313945
 C    6.059994   -3.693552    0.050702
 C    7.446933   -4.103926   -0.405859
 O    5.372561   -4.450096    0.701934
 C    4.331167   -2.000628    0.007274
 C    3.242366   -2.867601   -0.066368
 C    1.969452   -2.431766    0.232878
 C    1.735578   -1.110611    0.611421
 C    2.821953   -0.245786    0.659550
 C    4.108482   -0.667392    0.360019
 C    0.387709   -0.642349    0.956865
 C   -0.732708   -1.087024    0.258836
 C   -2.003318   -0.654621    0.584563
 C   -2.182649    0.240249    1.634057
 N   -3.438304    0.719984    2.031591
 C   -4.667411    0.453388    1.520696
 O   -4.865210   -0.276636    0.569023
 C   -5.773418    1.177834    2.275991
 C   -7.156456    0.906597    1.686394
 C   -7.329207    1.551850    0.311596
 C   -8.586877    1.052491   -0.406336
 C   -8.438629    1.009973   -1.928309
 C   -7.393140   -0.007721   -2.408429
 C   -7.703531   -1.382941   -1.862387
 O   -8.583632   -2.121041   -2.285184
 N   -6.941955   -1.761023   -0.828389
 O   -7.214830   -3.010067   -0.253361
 C   -1.068290    0.691652    2.339057
 C    0.196728    0.258987    2.003326
 H    1.990827    4.586234   -1.956872
 H    2.444801    6.261302   -1.610943
 H    3.389832    5.303164   -2.761499
 H    3.166004    4.745544    0.242707
 H    5.536467    5.725080   -1.419746
 H    5.550967    5.339831    0.309221
 H    4.611648    6.716656   -0.279363
 H    4.847517    1.316117   -1.451340
 H    5.239951    0.800493    1.421014
 H    7.020488   -0.637808    1.021729
 H    7.245631    0.518942   -0.294123
 H    7.491713   -1.823131   -1.021862
 H    6.046733   -1.857868   -2.958363
 H    6.538907   -0.187825   -2.669330
 H    4.910583   -0.737500   -2.222375
 H    7.569075   -5.154789   -0.155992
 H    7.567395   -3.978281   -1.479077
 H    8.214599   -3.537271    0.117165
 H    3.401403   -3.894175   -0.349904
 H    1.148448   -3.130971    0.190651
 H    2.673484    0.790056    0.927370
 H   -0.608927   -1.770748   -0.567363
 H   -2.855308   -1.010200    0.030816
 H   -3.404511    1.347244    2.824384
 H   -5.561896    2.250582    2.259690
 H   -5.742712    0.843781    3.316661
 H   -7.921177    1.279087    2.370639
 H   -7.285707   -0.173393    1.596679
 H   -7.366753    2.638648    0.416981
 H   -6.451793    1.314347   -0.286914
 H   -9.434235    1.692645   -0.152417
 H   -8.830016    0.047715   -0.057304
 H   -9.402518    0.736784   -2.361534
 H   -8.167032    1.999571   -2.302576
 H   -6.388452    0.287823   -2.108865
 H   -7.431693   -0.061399   -3.497394
 H   -6.197697   -1.255741   -0.359570
 H   -7.941929   -3.344143   -0.821777
 H   -1.199051    1.383675    3.160080
 H    1.045303    0.606544    2.572721
