34 
4clp_ligand_xtb.xyz
 P    3.389111    0.947153   -0.112276
 O    4.881027    0.711244   -0.546105
 O    2.872640    2.305089   -0.242652
 O    3.378348    0.342618    1.381811
 C    2.115265   -0.008789    1.926302
 C    1.505417   -1.024833    0.973938
 O    0.219178   -1.495513    1.287820
 C    1.346596   -0.372842   -0.399921
 O    2.610485   -0.166879   -0.998861
 C    0.460483   -1.399612   -1.104887
 O    1.194228   -2.478688   -1.608090
 C   -0.418725   -1.889892    0.076454
 N   -1.743681   -1.353583    0.048843
 C   -2.917011   -2.037742    0.253234
 N   -3.973077   -1.291991    0.250690
 C   -3.505477   -0.016017    0.049368
 C   -4.125750    1.243114   -0.049260
 N   -5.454376    1.410149    0.037259
 N   -3.353045    2.314967   -0.247798
 C   -2.045321    2.156465   -0.349610
 N   -1.345690    1.037778   -0.280000
 C   -2.106768   -0.036944   -0.072845
 H    5.287708    1.554500   -0.746472
 H    2.305354   -0.426793    2.917375
 H    1.467980    0.870845    2.008492
 H    2.206628   -1.872132    0.879660
 H    0.794122    0.573235   -0.306056
 H   -0.158544   -0.946426   -1.890146
 H    2.015288   -2.127557   -1.979273
 H   -0.492809   -2.986005    0.038257
 H   -2.929324   -3.101118    0.389680
 H   -6.038492    0.615603    0.223067
 H   -5.833715    2.338467   -0.009268
 H   -1.471275    3.058433   -0.512166
