49 
4cmo_ligand_dft.xyz
 C    0.442833    2.052405    0.477963
 C   -0.010116    3.347181    0.088674
 N   -1.185991    3.488184   -0.493813
 C   -1.921120    2.380468   -0.696228
 C   -1.487045    1.122443   -0.325176
 N   -0.277189    0.983576    0.278461
 N    0.753355    4.448285    0.361793
 O    1.659522    2.003456    1.056282
 C    2.160530    0.718417    1.467916
 C    2.464108   -0.164103    0.265509
 C    2.141185   -1.529034    0.195676
 C    2.593527   -2.279963   -0.895767
 C    3.306250   -1.702444   -1.935288
 C    3.583916   -0.346612   -1.857202
 C    3.190259    0.418131   -0.775040
 F    4.265974    0.240457   -2.850961
 C   -2.216926   -0.135826   -0.595036
 C   -3.612538   -0.283000   -0.428570
 N   -4.262869   -1.419759   -0.612068
 C   -3.559963   -2.496201   -0.985833
 C   -2.192311   -2.476411   -1.196640
 C   -1.522199   -1.270301   -0.997547
 O   -4.304953    0.805852   -0.048913
 C   -5.702624    0.647387    0.153980
 C    1.309648   -2.313899    1.187482
 N    0.204912   -1.686094    1.664272
 O    1.600138   -3.467855    1.473278
 C   -0.788217   -2.412153    2.426301
 C    3.413515    1.006851    2.281279
 H   -2.882125    2.518811   -1.177279
 H    1.735607    4.301512    0.532837
 H    0.495490    5.290813   -0.129607
 H    1.416399    0.251779    2.112668
 H    2.368172   -3.341055   -0.911563
 H    3.643338   -2.279023   -2.789252
 H    3.446630    1.471996   -0.747493
 H   -4.133052   -3.410392   -1.120874
 H   -1.661992   -3.369983   -1.505366
 H   -0.449223   -1.202054   -1.152614
 H   -6.201133    0.341079   -0.769751
 H   -5.904585   -0.100840    0.925294
 H   -6.058728    1.627786    0.471994
 H   -0.074838   -0.819911    1.208990
 H   -1.435183   -3.013428    1.775010
 H   -1.405419   -1.699873    2.978509
 H   -0.286440   -3.080623    3.127496
 H    3.169309    1.645290    3.134957
 H    3.833397    0.067137    2.650689
 H    4.171146    1.505877    1.669615
