108 
4cps_ligand_xtb.xyz
 C   -5.261162    0.581792    2.233306
 C   -4.126097   -0.203973    2.154145
 C   -4.197364   -1.514604    1.699714
 C   -2.949535   -2.344687    1.574604
 C   -5.438311   -2.021474    1.333767
 C   -6.570249   -1.232970    1.405634
 C   -6.498114    0.080799    1.851274
 C   -7.757009    0.909441    1.930165
 C   -7.511220    2.386621    1.991890
 C   -7.177129    3.156901    0.965774
 C   -6.950667    2.677253   -0.438565
 N   -5.541546    2.382498   -0.658097
 C   -5.104553    1.162695   -0.989258
 O   -5.826610    0.209838   -1.206709
 C   -3.577689    1.012689   -1.096372
 C   -3.043849    1.401410   -2.496391
 C   -3.248927    2.886134   -2.779965
 C   -3.682164    0.545779   -3.586941
 N   -3.330369   -0.382192   -0.819097
 C   -2.237100   -0.886813   -0.282703
 O   -1.204077   -0.229883   -0.096098
 C   -2.367121   -2.355318    0.132527
 O   -3.245741   -2.964230   -0.787005
 C   -1.004269   -3.075676    0.172978
 C   -0.420185   -3.412576   -1.202038
 C   -0.091701   -2.210400   -2.083659
 N    0.771502   -1.230687   -1.388512
 N    1.944781   -1.832632   -0.900209
 C    2.299262   -1.656594    0.404005
 O    1.542509   -1.162673    1.204130
 C    3.707487   -2.211667    0.665092
 C    4.066140   -2.380072    2.160758
 C    5.433690   -3.064426    2.259862
 C    4.103444   -1.030034    2.880593
 C    3.016435   -3.282148    2.816826
 N    4.674921   -1.370059   -0.018722
 C    4.986039   -1.501567   -1.322569
 O    4.300030   -2.113240   -2.127152
 O    6.112695   -0.858596   -1.625439
 C    6.531057   -0.902003   -2.987100
 C    1.075170   -0.041518   -2.231506
 C    2.057362    0.846681   -1.517016
 C    1.716264    1.427538   -0.299757
 C    2.654274    2.152345    0.408184
 C    3.330165    1.046195   -2.034626
 C    4.261874    1.788166   -1.334482
 C    3.943426    2.329632   -0.091383
 C    5.852383    3.933614    0.062569
 C    4.955535    3.064353    0.681133
 C    5.060783    2.902966    2.062183
 C    6.045831    3.601762    2.741085
 N    6.895472    4.422110    2.149648
 C    6.794622    4.584714    0.842674
 H   -5.182611    1.596591    2.595093
 H   -3.170400    0.205151    2.451516
 H   -3.160053   -3.380413    1.855787
 H   -2.179943   -1.957714    2.244094
 H   -5.527606   -3.042005    0.990308
 H   -7.523067   -1.643183    1.107374
 H   -8.311008    0.601351    2.821265
 H   -8.377372    0.668473    1.063306
 H   -7.621365    2.842917    2.966361
 H   -7.019622    4.215253    1.123692
 H   -7.489269    1.750227   -0.640249
 H   -7.267961    3.443351   -1.153574
 H   -4.883486    3.110978   -0.430116
 H   -3.069970    1.619123   -0.337723
 H   -1.964384    1.203992   -2.476321
 H   -2.764233    3.151212   -3.716327
 H   -4.306488    3.117548   -2.872831
 H   -2.816538    3.499321   -1.991828
 H   -3.267680    0.807717   -4.557381
 H   -3.505947   -0.512347   -3.407995
 H   -4.756129    0.707276   -3.618058
 H   -4.153585   -0.972002   -0.944841
 H   -3.592518   -3.777818   -0.402911
 H   -1.139671   -4.019254    0.706019
 H   -0.315298   -2.471376    0.762720
 H    0.480697   -4.009404   -1.051936
 H   -1.139191   -4.021540   -1.752362
 H   -1.009596   -1.697479   -2.375030
 H    0.426366   -2.549600   -2.984371
 H    0.179232   -0.862853   -0.545165
 H    2.684595   -2.084156   -1.580329
 H    3.737594   -3.203306    0.190308
 H    5.704200   -3.191092    3.304402
 H    5.407094   -4.047626    1.795383
 H    6.215863   -2.480949    1.780143
 H    4.263057   -1.193007    3.943019
 H    4.912868   -0.398436    2.519008
 H    3.161642   -0.505099    2.752389
 H    2.049489   -2.790288    2.850982
 H    3.316811   -3.510778    3.835389
 H    2.916915   -4.219808    2.274187
 H    5.290480   -0.808665    0.548789
 H    5.927302   -0.222273   -3.591139
 H    7.570152   -0.584484   -2.991196
 H    6.437691   -1.913938   -3.383281
 H    0.132089    0.479790   -2.409457
 H    1.489822   -0.385626   -3.182589
 H    0.721931    1.298686    0.100038
 H    2.382384    2.597741    1.352580
 H    3.589518    0.618521   -2.992453
 H    5.254356    1.922583   -1.736650
 H    5.800880    4.116241   -0.999643
 H    4.399428    2.234473    2.592258
 H    6.162376    3.499678    3.811769
 H    7.505405    5.269547    0.400206
