106 
4cpu_ligand_dft.xyz
 C    5.289066   -1.525557   -2.682598
 C    4.514924   -2.444522   -1.979210
 C    4.779701   -2.740943   -0.639202
 C    3.850863   -3.605495    0.187348
 C    5.915010   -2.154869   -0.063162
 C    6.703432   -1.254083   -0.773367
 C    6.379110   -0.892837   -2.085970
 C    7.189075    0.139114   -2.850213
 C    7.504595    1.419875   -2.098784
 C    6.636290    2.255607   -1.523817
 C    5.142413    2.066876   -1.455992
 N    4.801826    1.369369   -0.220573
 C    3.692482    1.559692    0.517943
 O    2.854894    2.426788    0.273396
 C    3.533552    0.557076    1.669161
 C    4.716550    0.598815    2.661765
 C    4.844634    2.011688    3.238076
 C    4.558741   -0.438623    3.773631
 N    3.334588   -0.740142    1.032701
 C    2.581377   -1.745582    1.509219
 O    1.934295   -1.698556    2.552777
 C    2.477106   -3.006658    0.616489
 O    1.832715   -3.994948    1.377467
 C    1.580219   -2.658956   -0.592071
 C    0.217830   -2.112813   -0.164500
 C   -0.716134   -2.017084   -1.363380
 N   -1.985969   -1.337256   -1.008768
 N   -1.886918   -0.051758   -0.509278
 C   -1.234321    0.913970   -1.270470
 O   -0.981506    0.733550   -2.440992
 C   -0.930462    2.162560   -0.418260
 C   -0.554259    3.433760   -1.220784
 C   -0.316090    4.568705   -0.210287
 C    0.700098    3.258900   -2.092003
 C   -1.753916    3.802424   -2.109293
 N    0.050947    1.811331    0.605038
 C   -0.353596    1.329374    1.803257
 O   -1.464804    0.833964    2.010087
 O    0.587335    1.431618    2.737437
 C    0.318765    0.769077    3.981624
 C   -3.145709   -1.920473   -1.110550
 C   -4.468286   -1.450141   -0.823966
 C   -5.503872   -2.356819   -1.146170
 C   -6.826631   -2.034190   -0.937538
 C   -4.823690   -0.206629   -0.259915
 C   -6.152769    0.104924   -0.054653
 C   -7.186434   -0.785464   -0.399032
 C   -8.592134   -0.417309   -0.175028
 C   -9.636053   -1.014097   -0.764258
 C  -11.000644   -0.501462   -0.435074
 S  -10.765291    0.758002    0.873598
 C   -8.942619    0.739898    0.734528
 H    5.035009   -1.295610   -3.714165
 H    3.680872   -2.925498   -2.482424
 H    4.352234   -3.914720    1.109761
 H    3.609249   -4.526794   -0.354930
 H    6.165888   -2.385281    0.969463
 H    7.569028   -0.805254   -0.291603
 H    8.134438   -0.319734   -3.160898
 H    6.660695    0.383682   -3.780174
 H    8.558113    1.684912   -2.044188
 H    7.024976    3.134328   -1.014361
 H    4.620860    3.026353   -1.447863
 H    4.772944    1.491555   -2.313058
 H    5.452354    0.646922    0.057556
 H    2.614678    0.818439    2.195685
 H    5.641676    0.360386    2.116133
 H    5.670954    2.059399    3.953072
 H    3.926731    2.297077    3.765425
 H    5.030363    2.759914    2.460488
 H    5.383109   -0.349998    4.488130
 H    3.617274   -0.297024    4.313582
 H    4.563290   -1.459506    3.381586
 H    3.849701   -0.917585    0.182647
 H    1.583708   -3.554574    2.211717
 H    2.074763   -1.929570   -1.242083
 H    1.452886   -3.585048   -1.167032
 H   -0.214036   -2.763668    0.601773
 H    0.347753   -1.117865    0.275071
 H   -0.975369   -3.006115   -1.748185
 H   -0.275967   -1.435041   -2.175486
 H   -1.874762    0.048225    0.522864
 H   -1.863612    2.392016    0.114200
 H    0.584522    4.401715    0.388022
 H   -0.184843    5.514250   -0.745773
 H   -1.166138    4.686120    0.472668
 H    1.578360    2.991441   -1.497065
 H    0.547382    2.502275   -2.863731
 H    0.919980    4.211606   -2.586255
 H   -1.546027    4.738901   -2.636247
 H   -2.662294    3.955631   -1.513252
 H   -1.952018    3.034534   -2.862061
 H    1.018489    2.139534    0.524340
 H   -0.601778    1.153374    4.422738
 H    0.254079   -0.307648    3.823144
 H    1.173906    1.004342    4.613891
 H   -3.074266   -2.940414   -1.479221
 H   -5.258064   -3.329634   -1.563354
 H   -7.590534   -2.766538   -1.172101
 H   -4.066050    0.509014    0.024334
 H   -6.393494    1.066854    0.383405
 H   -9.541950   -1.817996   -1.488803
 H  -11.651558   -1.302168   -0.069190
 H  -11.477863   -0.064808   -1.319799
 H   -8.588336    1.690342    0.318681
 H   -8.500698    0.620408    1.729175
