39 
4cqf_ligand_xtb.xyz
 O   -3.588227    0.650139   -1.614747
 C   -3.980593    0.430110   -0.486916
 C   -5.003376    1.347525    0.175997
 S   -6.210150    0.482899    1.233488
 N   -3.568662   -0.592790    0.275696
 C   -2.541295   -1.523381   -0.132417
 C   -1.236880   -1.311605    0.637833
 C   -0.633238    0.081060    0.450297
 C   -0.314157    0.451403   -1.000547
 C    0.589442   -0.568862   -1.705068
 C    1.826856   -0.877460   -0.878673
 O    1.984140   -1.930862   -0.301447
 N    2.708072    0.162147   -0.853013
 C    3.921182    0.282942   -0.168149
 C    4.426602   -0.716875    0.657064
 C    5.631512   -0.524065    1.308096
 C    6.343746    0.652326    1.148784
 C    5.842081    1.647987    0.327062
 C    4.639122    1.467205   -0.326995
 H   -5.530997    1.917525   -0.587982
 H   -4.485445    2.043223    0.838801
 H   -6.755454   -0.248978    0.264615
 H   -3.932972   -0.675217    1.214353
 H   -2.392012   -1.374145   -1.202645
 H   -2.902803   -2.542834    0.034616
 H   -0.515773   -2.066625    0.326231
 H   -1.428631   -1.462849    1.703319
 H    0.282890    0.129520    1.044057
 H   -1.321644    0.831639    0.847638
 H    0.171611    1.431093   -0.996508
 H   -1.239926    0.555398   -1.568411
 H    0.883281   -0.179999   -2.682402
 H    0.051773   -1.503842   -1.859162
 H    2.455950    0.977128   -1.395507
 H    3.875765   -1.633772    0.780823
 H    6.015992   -1.304726    1.947505
 H    7.283647    0.794271    1.660447
 H    6.388778    2.569963    0.194306
 H    4.249180    2.247267   -0.967347
