24 
4cr9_ligand_xtb.xyz
 C    0.752862    2.859053    0.002235
 C    0.908756    1.365753   -0.001191
 C    2.173429    0.842719    0.000344
 C    2.368367   -0.558742    0.000917
 N    1.372117   -1.411400    0.006809
 C    0.114308   -0.929905   -0.000314
 C   -0.192895    0.460990   -0.002563
 C   -1.543957    0.846886   -0.007099
 C   -2.561372   -0.083146   -0.001360
 C   -2.242111   -1.456290    0.001711
 C   -0.941203   -1.864693    0.001162
 N   -3.887720    0.310305    0.075479
 N    3.637148   -1.076473   -0.068559
 H    1.219335    3.276839    0.893901
 H    1.254844    3.284161   -0.866236
 H   -0.285136    3.170160   -0.016342
 H    3.036815    1.493489   -0.000154
 H   -1.812115    1.893358   -0.011684
 H   -3.046522   -2.178808    0.004740
 H   -0.682235   -2.911885   -0.000119
 H   -4.083327    1.255198   -0.215049
 H   -4.564428   -0.364651   -0.243241
 H    4.393312   -0.507661    0.272708
 H    3.701535   -2.062984    0.122322
