62 
4crf_ligand_xtb.xyz
 C    0.318172   -1.135991   -1.210861
 O    0.111734   -0.851208   -2.384089
 C    1.575553   -0.784014   -0.504810
 C    2.110905   -1.615503    0.486431
 C    3.288025   -1.277115    1.106336
 C    3.953111   -0.088818    0.779350
 C    3.420636    0.763461   -0.214146
 C    2.248303    0.373613   -0.863992
 C    4.148223    1.986940   -0.503451
 C    5.317271    2.241678    0.149682
 C    5.878057    1.374755    1.146014
 O    6.907594    1.551430    1.768015
 N    5.112558    0.239004    1.404190
 O    3.730286    2.890517   -1.390767
 N   -0.597335   -1.775813   -0.453050
 C   -1.830259   -2.346601   -0.972943
 C   -2.860899   -1.205202   -1.101464
 O   -3.768710   -1.034471   -0.315960
 C   -2.331736   -3.444347   -0.030954
 C   -1.225365   -4.403859    0.303578
 C   -0.817681   -5.358109   -0.620500
 C   -0.551927   -4.316593    1.516038
 C    0.240301   -6.203698   -0.340392
 C    0.508356   -5.161448    1.798266
 C    0.909232   -6.104579    0.868323
 C   -1.607029    3.654531    1.616521
 C   -2.736401    3.360316    2.341924
 C   -3.707603    2.525956    1.787694
 C   -3.568021    2.011691    0.517949
Cl   -5.108408    2.136606    2.716882
 C   -2.436214    2.321112   -0.248634
 C   -1.438829    3.138247    0.328494
 N   -0.291495    3.399418   -0.369003
 C   -0.006275    2.921169   -1.623650
 C   -1.071579    2.172722   -2.240869
 C   -2.220840    1.859365   -1.596108
 O    1.096869    3.111829   -2.121344
 C   -3.172115    0.908278   -2.283869
 N   -2.609741   -0.424412   -2.169730
 H    1.629541   -2.550365    0.735488
 H    3.718609   -1.929596    1.851656
 H    1.842456    0.964698   -1.670499
 H    5.859189    3.145816   -0.074870
 H    5.483438   -0.389307    2.106969
 H    2.814239    2.775427   -1.715379
 H   -0.418287   -1.916719    0.528325
 H   -1.614821   -2.748371   -1.970197
 H   -3.157592   -3.962181   -0.520658
 H   -2.722457   -2.969022    0.871072
 H   -1.337045   -5.440124   -1.564370
 H   -0.868638   -3.591591    2.254722
 H    0.544908   -6.942403   -1.066691
 H    1.020898   -5.082314    2.746095
 H    1.736391   -6.763246    1.086298
 H   -0.838022    4.284721    2.038025
 H   -2.872329    3.757915    3.334743
 H   -4.321380    1.341552    0.139229
 H    0.428530    3.955731    0.078754
 H   -0.876487    1.821043   -3.242421
 H   -4.162890    0.901272   -1.832448
 H   -3.256933    1.159824   -3.343107
 H   -1.708693   -0.564967   -2.631158
