26 
4csd_ligand_xtb.xyz
 C   -1.134564   -0.003412    0.659001
 C   -0.185895   -1.210325    0.588076
 C    0.756779   -1.029434   -0.608768
 C    1.494226    0.308956   -0.468638
 C    0.467947    1.444825   -0.329065
 C    1.147620    2.773103   -0.035133
 O   -1.979008   -0.101661   -0.464675
 O   -0.892900   -2.419528    0.492169
 O    1.713957   -2.063827   -0.644874
 O    2.347409    0.280526    0.644585
 O   -0.451246    1.204829    0.731401
 C   -3.063146    0.804948   -0.439197
 H   -1.735310   -0.044510    1.583111
 H    0.405812   -1.256610    1.507999
 H    0.159791   -1.028670   -1.534697
 H    2.081471    0.483324   -1.385915
 H   -0.089782    1.498006   -1.278047
 H    1.750988    2.665629    0.860352
 H    1.783140    3.055369   -0.868902
 H    0.396794    3.539997    0.129042
 H   -1.595148   -2.288881   -0.159650
 H    1.259833   -2.881004   -0.399396
 H    2.811794   -0.567132    0.609813
 H   -3.728239    0.585015    0.403014
 H   -2.709523    1.835507   -0.355071
 H   -3.595128    0.669288   -1.378172
