45 
4cst_ligand_xtb.xyz
Cl   -0.202851   -2.689163   -1.441671
 C   -2.474575   -0.338704    1.241292
 O   -1.618734   -0.978054    0.329750
 C   -3.803512   -1.105851    1.187443
 O   -4.578949   -0.731969    2.291179
 C   -4.527903   -0.797815   -0.126643
 O   -5.804171   -1.386870   -0.059190
 C   -4.641431    0.721059   -0.317062
 O   -5.281641    0.940846   -1.549760
 C   -3.239561    1.339948   -0.251433
 O   -2.609769    1.025700    0.980207
 C   -3.278785    2.869246   -0.312035
 O   -3.783423    3.271942   -1.568546
 C   -0.289007   -0.666121    0.331157
 C    0.301845    0.343810    1.079382
 C    1.666955    0.555940    1.011860
 C    2.478923   -0.218300    0.188748
 C    1.885471   -1.219950   -0.578435
 C    0.526205   -1.440202   -0.503526
 C    3.928117    0.010324    0.121548
 C    4.652699    0.305941    1.277005
 C    6.013888    0.519741    1.223090
 C    6.679897    0.444870   -0.001071
 C    5.965626    0.150976   -1.163510
 C    4.605331   -0.065195   -1.096257
 C    8.073892    0.667539   -0.062593
 N    9.204756    0.850512   -0.111375
 H   -2.077540   -0.389091    2.265306
 H   -3.574175   -2.182243    1.223434
 H   -5.480705   -1.027689    2.097663
 H   -3.952434   -1.215659   -0.965784
 H   -6.311314   -1.035875   -0.801920
 H   -5.244683    1.133989    0.509867
 H   -5.026676    1.818879   -1.868070
 H   -2.646129    0.959172   -1.097099
 H   -3.914316    3.236907    0.503934
 H   -2.259798    3.242731   -0.156311
 H   -3.757033    4.232782   -1.624660
 H   -0.309926    0.975186    1.702963
 H    2.100558    1.356610    1.591456
 H    2.485099   -1.850443   -1.215586
 H    4.143499    0.346162    2.228106
 H    6.571666    0.742041    2.120886
 H    6.484796    0.097371   -2.109102
 H    4.053319   -0.274930   -1.999933
