15 
4ctk_ligand_dft.xyz
 C    2.046688   -0.349938   -0.004271
 S    1.039286   -1.788202   -0.006965
 C   -0.391726   -0.796193    0.007580
 N   -1.639154   -1.250157    0.002715
 C   -2.571137   -0.299138   -0.000621
 C   -2.262944    1.069302   -0.008733
 N   -1.012972    1.521877   -0.004565
 C   -0.069013    0.576502    0.011467
 C    1.355815    0.820434    0.012770
 N    1.846248    2.114165    0.082201
 H    3.121878   -0.468212    0.001728
 H   -3.606305   -0.629220   -0.001069
 H   -3.057947    1.809908   -0.021400
 H    2.746883    2.263586   -0.348709
 H    1.161966    2.808164   -0.190716
