13 
4cts_ligand_xtb.xyz
 O   -1.369379   -1.384341    0.349155
 O   -2.807879    0.271090    0.142375
 O    1.329924   -1.495526    0.128510
 O    2.808952    0.129552   -0.196798
 O    0.559166    1.795340    0.700551
 C   -1.639732   -0.296695   -0.093601
 C   -0.631023    0.493073   -0.919900
 C    0.538471    0.809304    0.022011
 C    1.683463   -0.229914   -0.010477
 H   -2.900144    1.167068   -0.211335
 H    0.364581   -1.651195    0.276228
 H   -1.051591    1.427441   -1.294541
 H   -0.286186   -0.126840   -1.748889
