24 
4cu7_ligand_dft.xyz
 C    0.767164   -1.786112   -0.046711
 N    1.734332   -0.641494   -0.003928
 O    0.655135    1.221026    1.530311
 C   -0.675202   -1.302001    0.032053
 O   -2.229489    0.337553   -0.543381
 C   -0.958777   -0.130812   -0.924662
 O   -0.955332   -0.948483    1.373881
 C    0.118111    0.980775   -0.882358
 C    1.496752    0.355343   -1.103891
 C    0.107459    1.863976    0.380428
 H    0.940842   -2.318934   -0.984922
 H    0.986665   -2.448697    0.792317
 H    1.590413   -0.080912    0.873609
 H    2.694464   -0.991574   -0.026425
 H   -0.033283    0.625260    1.880158
 H   -1.312647   -2.145272   -0.261050
 H   -2.650258    0.808745   -1.272461
 H   -0.975398   -0.543092   -1.945109
 H   -1.895025   -0.711144    1.408798
 H   -0.069543    1.650691   -1.730683
 H    2.292550    1.101396   -1.045733
 H    1.574700   -0.172651   -2.058711
 H    0.732520    2.742511    0.202798
 H   -0.911869    2.206342    0.579274
