40 
4cwb_ligand_dft.xyz
 C    8.556877    1.205008   -0.049284
 C    7.906174    1.019783    1.167407
 C    7.888179    0.926678   -1.238163
 C    6.595141    0.557827    1.195241
 C    6.576176    0.467449   -1.210502
 C    3.570680    0.253150   -0.885035
 C    4.103747   -1.157919    0.989628
 C    2.260886   -0.206114   -0.858633
 C    2.797545   -1.615249    1.020699
 C    5.912776    0.276627    0.006521
 C    4.513408   -0.214371    0.036910
 C    1.857445   -1.144343    0.096959
 C   -4.699129   -0.256586   -0.238886
 C   -4.672671    1.166272    0.208032
 C   -2.736843    0.541777   -0.127946
 C   -6.008900   -0.984212   -0.387927
 C   -7.062619    1.027930    0.344262
 C    0.467672   -1.670242    0.187035
 C   -0.604465   -1.110830   -0.755118
 N   -3.482526   -0.630975   -0.440412
 N   -5.791924    1.753633    0.479652
 N   -3.407154    1.622706    0.259215
 N   -7.096853   -0.242210   -0.064683
 N   -8.023876    1.814154    0.673181
 O   -6.008366   -2.139764   -0.774204
 O    0.151401   -2.522557    0.989292
 S   -1.038071    0.597214   -0.253963
 H    9.581171    1.564313   -0.070861
 H    8.418370    1.241674    2.098720
 H    8.391647    1.060382   -2.190839
 H    6.086193    0.437495    2.147530
 H    6.068948    0.229105   -2.141303
 H    3.861657    1.000518   -1.616794
 H    4.827426   -1.550792    1.697452
 H    1.562201    0.183275   -1.593902
 H    2.481128   -2.349842    1.753604
 H   -1.500863   -1.726009   -0.670881
 H   -0.272878   -1.082655   -1.795712
 H   -5.855985    2.718234    0.793553
 H   -8.900286    1.300488    0.576256
