42 
4cwn_ligand_xtb.xyz
 N   -1.034591    4.342919    0.269948
 C   -1.284573    3.026874    0.080347
 N   -0.556689    2.255032   -0.714880
 N   -1.192097    1.072626   -0.659220
 C   -2.286780    1.183679    0.173089
 N   -2.351783    2.409712    0.647725
 C   -0.868961   -0.089464   -1.288907
 N   -1.582238   -1.150540   -1.139527
 C   -2.690484   -1.126698   -0.341334
 C   -3.454215   -2.294900   -0.209131
 C   -4.576429   -2.298593    0.582447
 C   -4.974084   -1.146375    1.267061
 C   -4.244478    0.012080    1.158723
 C   -3.099165    0.035271    0.356004
 C    0.377544   -0.096384   -2.113329
 C    1.550119   -0.269835   -1.177128
 C    2.314836    0.815088   -0.804270
 C    3.380183    0.647667    0.084476
 O    4.079709    1.776571    0.386801
 C    5.181369    1.668967    1.254849
 C    3.658481   -0.609774    0.591636
 C    2.872192   -1.703402    0.221560
 C    1.817721   -1.534612   -0.661449
 O    3.232045   -2.890107    0.788288
 C    2.482975   -4.037098    0.467462
 H   -0.105658    4.653916    0.042837
 H   -1.477202    4.756975    1.072339
 H   -3.137035   -3.175609   -0.744871
 H   -5.162926   -3.200584    0.679088
 H   -5.861182   -1.171645    1.882050
 H   -4.529234    0.915884    1.674265
 H    0.460635    0.853203   -2.641254
 H    0.324500   -0.926151   -2.817092
 H    2.100051    1.801877   -1.179242
 H    4.879913    1.315237    2.246050
 H    5.947707    1.000779    0.849239
 H    5.589364    2.674994    1.340334
 H    4.467982   -0.791876    1.278529
 H    1.187519   -2.357254   -0.957270
 H    1.435156   -3.929199    0.765244
 H    2.534302   -4.263783   -0.602315
 H    2.936348   -4.851672    1.030389
