41 
4cxw_ligand_xtb.xyz
 O   -7.200572    1.531025   -0.227592
 C   -6.115386    1.064687   -0.438027
 O   -5.261114    1.614495   -1.286440
 C   -5.634952   -0.212551    0.259449
 C   -4.361871   -0.004062    1.095320
 C   -3.107024   -0.126861    0.261001
 O   -3.030751    0.196663   -0.921261
 N   -2.039297   -0.612351    0.906589
 N   -0.822839   -0.788495    0.250347
 C    0.154347   -1.505526    0.873998
 O   -0.000070   -1.898661    2.013403
 C    1.350133   -1.763853    0.034411
 C    1.786056   -3.088003   -0.062588
 N    2.812145   -3.468667   -0.791411
 C    3.473583   -2.539017   -1.462639
 C    3.148172   -1.195411   -1.417120
 C    2.065417   -0.776611   -0.647629
 C    1.770630    0.694352   -0.529236
 C    3.016038    1.425899   -0.090893
 C    3.556223    1.163048    1.162349
 C    4.706443    1.807559    1.578173
 C    5.330208    2.721880    0.745179
 C    4.798213    2.987745   -0.504008
 C    3.647412    2.340337   -0.920974
 H   -4.403414    1.118904   -1.331820
 H   -5.457771   -0.974457   -0.503870
 H   -6.445151   -0.550845    0.904884
 H   -4.329458   -0.731976    1.906919
 H   -4.376978    0.993796    1.543717
 H   -2.009775   -0.964203    1.858051
 H   -0.852507   -0.556799   -0.734354
 H    1.265586   -3.866946    0.478112
 H    4.309494   -2.892770   -2.050666
 H    3.736532   -0.469917   -1.957280
 H    0.977872    0.869083    0.199761
 H    1.442067    1.079163   -1.498224
 H    3.070854    0.448566    1.812233
 H    5.117413    1.596176    2.554133
 H    6.228096    3.225824    1.070024
 H    5.279293    3.700014   -1.157766
 H    3.235998    2.553136   -1.898012
