53 
4cxx_ligand_dft.xyz
 O    6.369856   -3.741623   -1.082909
 C    6.033559   -2.834999   -0.139758
 O    6.437765   -2.953269    0.985835
 C    5.144219   -1.702412   -0.620287
 C    4.777144   -0.753705    0.509262
 C    3.872177    0.359680    0.025198
 O    3.365028    0.399789   -1.076930
 N    3.696588    1.381171    0.947517
 N    2.636090    2.243790    0.754486
 C    1.359160    1.706323    0.774812
 O    1.146903    0.590910    1.210797
 C    0.304880    2.637435    0.271272
 C    0.244681    3.942035    0.772450
 N   -0.669298    4.840270    0.417004
 C   -1.573387    4.443633   -0.483426
 C   -1.597420    3.175443   -1.046917
 C   -0.641202    2.229767   -0.678095
 C   -0.658134    0.854810   -1.314137
 C   -1.861267    0.049248   -0.865548
 C   -1.940199   -0.443407    0.435750
 C   -3.056186   -1.159557    0.857556
 C   -4.133598   -1.408368    0.002714
 C   -5.379842   -2.191430    0.434510
 C   -5.298654   -2.655528    1.895267
 C   -6.623650   -1.294922    0.284194
 C   -5.534989   -3.437891   -0.457421
 C   -4.041667   -0.908806   -1.301028
 C   -2.929253   -0.193973   -1.728360
 H    5.961565   -3.513550   -1.928900
 H    4.234625   -2.114365   -1.072838
 H    5.658992   -1.159621   -1.422859
 H    5.679168   -0.338566    0.971102
 H    4.254256   -1.301567    1.302216
 H    3.885288    1.178948    1.920236
 H    2.823564    2.988898    0.097624
 H    0.969403    4.265931    1.517789
 H   -2.316240    5.184453   -0.770555
 H   -2.363072    2.916193   -1.772266
 H    0.265378    0.318002   -1.086571
 H   -0.695121    0.986280   -2.401649
 H   -1.114954   -0.263828    1.119642
 H   -3.072792   -1.525971    1.878215
 H   -4.447007   -3.324207    2.062031
 H   -5.214086   -1.809266    2.585882
 H   -6.208481   -3.206771    2.156716
 H   -6.534455   -0.399049    0.908149
 H   -6.767458   -0.969842   -0.751320
 H   -7.524599   -1.838998    0.591564
 H   -5.650745   -3.170454   -1.512719
 H   -4.658721   -4.089330   -0.370331
 H   -6.420407   -4.011733   -0.159158
 H   -4.851495   -1.078671   -2.005702
 H   -2.890923    0.173759   -2.751734
