22 
4d1c_ligand_dft.xyz
 N   -2.509869    0.811687   -0.332695
 C   -2.348690   -0.252174    0.356164
 C   -1.175043   -0.609713    1.206753
 C    0.083779    0.171151    0.919517
 C    0.155497    1.539914    1.183670
 C    1.321958    2.245497    0.916484
 C    2.434888    1.599496    0.384826
 C    2.355328    0.238232    0.125507
 C    1.193956   -0.480079    0.385940
 C   -3.552677   -1.190807    0.263106
 N   -4.398180   -0.493828   -0.564955
 C   -3.807069    0.717841   -0.953766
Br    3.857658   -0.665162   -0.596483
 O   -4.296712    1.537327   -1.674914
 O   -3.702783   -2.265852    0.786849
 H   -1.009230   -1.688306    1.106830
 H   -1.490795   -0.468355    2.251180
 H   -0.709648    2.056327    1.587388
 H    1.369519    3.310360    1.120990
 H    3.348574    2.144121    0.174979
 H    1.159906   -1.543985    0.173275
 H   -5.305627   -0.802461   -0.878857
