58 
4d2r_ligand_xtb.xyz
 C   -7.768244   -0.718729   -0.166671
 N   -6.455753   -1.267895   -0.534769
 O   -3.330535   -0.466811    0.509446
 C   -5.593735   -0.243242   -1.181959
 N    1.192939    2.738658    0.071625
 O   -1.179107    3.849269    0.588533
 C   -4.294759   -0.871965   -1.661949
 N    3.309495    3.463980   -0.318136
 C   -3.562832   -1.472215   -0.445866
 N    2.885702    1.142591   -0.054089
 C   -4.463185   -2.525732    0.207567
 N    5.786992   -2.408799   -0.745238
 C   -5.764643   -1.866291    0.638203
 N    3.031364   -4.250336    0.855910
 C   -2.158045    0.294617    0.344209
 C   -0.927601   -0.269401    0.071074
 C    0.183192    0.541241   -0.047261
 C    0.105577    1.917706    0.147270
 C   -1.161890    2.483558    0.427519
 C   -2.279107    1.673637    0.506934
 C   -2.383934    4.465825    0.950278
 C    2.528440    2.404631   -0.108277
 C    4.598551    3.171125   -0.535030
 C    5.089695    1.894152   -0.545352
 C    4.184770    0.835175   -0.274602
 C    4.562550   -0.522952   -0.252881
 C    5.740276   -1.095066   -0.803506
 C    4.631548   -2.787936   -0.110572
 C    3.826824   -1.651641    0.220537
 C    2.650215   -1.870226    0.929510
 C    2.310868   -3.180060    1.200883
 C    4.179722   -4.054053    0.225991
 H   -8.394526   -1.493579    0.271994
 H   -7.634974    0.079266    0.561901
 H   -8.270258   -0.314121   -1.043853
 H   -6.589109   -2.021490   -1.219600
 H   -5.356413    0.517367   -0.434915
 H   -6.143492    0.213062   -2.006835
 H    1.025848    3.732982    0.130664
 H   -3.667761   -0.096544   -2.102680
 H   -4.474910   -1.638117   -2.417493
 H   -2.628746   -1.935653   -0.776699
 H   -3.963233   -2.921688    1.090582
 H   -4.643358   -3.349624   -0.484728
 H   -6.433210   -2.587195    1.111770
 H   -5.531188   -1.065679    1.342369
 H   -0.801562   -1.335838   -0.035433
 H    1.152328    0.125048   -0.265466
 H   -3.253237    2.082845    0.728439
 H   -3.145591    4.358237    0.168340
 H   -2.774109    4.068241    1.893851
 H   -2.150757    5.522198    1.076083
 H    5.238435    4.030047   -0.708037
 H    6.132222    1.693661   -0.728350
 H    6.543525   -0.556324   -1.282474
 H    2.033994   -1.053065    1.274453
 H    1.395094   -3.410071    1.740357
 H    4.751412   -4.943981   -0.011487
