58 
4d2s_ligand_xtb.xyz
 C    1.348785   -3.858980    0.036015
 N   -0.071341   -3.743812    0.429877
 O   -2.913252   -2.038683   -0.856293
 C   -0.397836   -2.359536    0.846311
 N   -1.717536    3.332746   -0.530683
 O   -3.685589    2.351380    1.134941
 C   -1.823073   -2.268638    1.369464
 N    0.165815    4.560707    0.045882
 C   -2.847574   -2.780124    0.341854
 N    0.318707    2.268672   -0.520143
 C   -2.435225   -4.192476   -0.098242
 N    2.214883   -1.310008   -0.780189
 C   -1.006921   -4.169551   -0.632643
 N    5.593905   -1.303970    0.661940
 C   -2.818748   -0.656190   -0.818486
 C   -2.050125   -0.072443   -1.813227
 C   -1.779365    1.278753   -1.753902
 C   -2.255892    2.058210   -0.708507
 C   -3.167431    1.495471    0.201529
 C   -3.442250    0.134874    0.142182
 C   -4.662970    1.870746    2.020767
 C   -0.342226    3.392582   -0.335870
 C    1.488843    4.560714    0.219845
 C    2.281909    3.445846    0.075763
 C    1.640638    2.244775   -0.289885
 C    2.240543    0.955908   -0.394769
 C    1.541514   -0.166391   -0.869511
 C    3.425109   -0.970029   -0.229431
 C    3.499937    0.437186    0.025580
 C    4.669136    0.920059    0.609655
 C    5.663948    0.008295    0.896940
 C    4.495676   -1.783143    0.107191
 H    1.967409   -3.959949    0.924503
 H    1.495871   -4.726262   -0.600388
 H    1.684284   -2.910098   -0.487148
 H   -0.243891   -4.356165    1.235778
 H   -0.259924   -1.704921   -0.016971
 H    0.314979   -2.045811    1.610571
 H   -2.248914    3.995565    0.015507
 H   -2.024784   -1.224907    1.609352
 H   -1.938448   -2.855597    2.284419
 H   -3.839733   -2.817178    0.820137
 H   -3.103536   -4.518299   -0.894396
 H   -2.527779   -4.888706    0.737847
 H   -0.718424   -5.160522   -0.988082
 H   -0.933222   -3.457237   -1.456097
 H   -1.643202   -0.689846   -2.598150
 H   -1.137184    1.736995   -2.485699
 H   -4.104384   -0.324068    0.860526
 H   -5.522663    1.454956    1.484980
 H   -4.256534    1.113553    2.700975
 H   -4.984603    2.733486    2.601990
 H    1.909533    5.517964    0.506225
 H    3.345088    3.491024    0.236666
 H    0.550765   -0.137673   -1.290763
 H    4.809958    1.966072    0.841173
 H    6.592457    0.334172    1.351451
 H    4.478159   -2.853978   -0.072107
