45 
4d2t_ligand_dft.xyz
 N    3.593001    1.756559    1.016749
 C    2.143950    1.611342    1.348412
 C    1.268548    2.494711    0.440497
 C   -0.161328    1.976456    0.174505
 O   -0.299379    1.154113   -0.988390
 C    0.312953   -0.087157   -0.847871
 C    1.656470   -0.146288   -1.165218
 C    2.463966   -1.197838   -0.713986
 C    1.814519   -2.314147   -0.165847
 C    0.439750   -2.307689    0.017744
 C   -0.345387   -1.182198   -0.267186
 C   -1.797056   -1.259553    0.122774
 O   -2.209883   -2.191431    0.797322
 N   -2.586923   -0.239956   -0.336714
 C   -3.962783   -0.033745   -0.132259
 C   -4.776882   -0.890744    0.615521
 C   -6.127456   -0.588945    0.765108
 C   -6.684393    0.546289    0.185774
 C   -5.870329    1.395105   -0.559749
 C   -4.521473    1.109436   -0.717798
 C    3.886203   -0.913289   -0.527145
 C    4.552522   -1.072392    0.697725
 N    5.626873   -0.262122    0.773628
 N    5.725720    0.414046   -0.400905
 C    4.691592    0.046331   -1.179524
 H    4.217982    1.088639    1.517869
 H    3.810176    1.473814    0.033868
 H    3.950208    2.701988    1.157614
 H    2.021872    1.876936    2.401172
 H    1.922071    0.551075    1.234926
 H    1.751484    2.640093   -0.531806
 H    1.184037    3.489609    0.892630
 H   -0.814084    2.829190   -0.021633
 H   -0.554419    1.443785    1.051178
 H    2.115883    0.734265   -1.600772
 H    2.402330   -3.165046    0.163907
 H   -0.062937   -3.161412    0.460029
 H   -2.113821    0.457645   -0.897906
 H   -4.349199   -1.775583    1.064666
 H   -6.751274   -1.261382    1.346852
 H   -7.739893    0.766805    0.310260
 H   -6.285426    2.284848   -1.024024
 H   -3.892398    1.774236   -1.306166
 H    4.260468   -1.687248    1.543105
 H    4.590023    0.442481   -2.185406
