45 
4d4d_ligand_dft.xyz
 O    4.366188   -1.358089   -1.039669
 C    3.423741   -1.172541   -0.004599
 C    3.718181    0.243891    0.528750
 O    2.932677    0.578376    1.656293
 C    3.426343    1.286707   -0.536853
 N    2.006858    1.156187   -0.998485
 C    1.694505   -0.205355   -1.553255
 C    1.984008   -1.314622   -0.543997
 C    0.945663   -1.423362    0.572178
 O   -0.343000   -1.579559    0.004173
 C   -1.363716   -1.215613    0.904820
 C   -2.720701   -1.510393    0.246114
 C   -3.068415   -0.467288   -0.820556
 C   -2.852742    0.956762   -0.292888
 C   -1.422708    1.041819    0.212667
 C   -0.947194    2.391257    0.701119
 O   -3.752506   -1.424601    1.211827
 O   -4.381598   -0.630212   -1.288788
 O   -3.002393    1.895624   -1.328830
 O   -1.240947    0.129484    1.287355
 O    0.463531    2.333828    0.957201
 H    4.439108   -2.297099   -1.248890
 H    3.581778   -1.890267    0.813697
 H    4.789604    0.302364    0.752552
 H    3.290252    0.137424    2.436813
 H    4.077990    1.139182   -1.399571
 H    3.549785    2.292247   -0.131952
 H    1.367627    1.441879   -0.208331
 H    1.833988    1.852511   -1.727352
 H    2.327558   -0.328425   -2.434311
 H    0.647084   -0.213879   -1.856546
 H    1.938179   -2.248582   -1.118151
 H    1.185017   -2.293394    1.201538
 H    0.965091   -0.536086    1.207458
 H   -1.270277   -1.779935    1.841333
 H   -2.684159   -2.504173   -0.215509
 H   -2.407655   -0.602762   -1.684546
 H   -3.546998    1.151369    0.538368
 H   -0.774495    0.757047   -0.629287
 H   -1.100973    3.145140   -0.071842
 H   -1.481631    2.696162    1.606201
 H   -3.855364   -2.274163    1.655159
 H   -4.924813   -0.799471   -0.503060
 H   -3.835465    1.683835   -1.774468
 H    0.603370    1.849391    1.782596
