45 
4d4d_ligand_xtb.xyz
 O    4.396441   -1.319865   -1.020415
 C    3.428020   -1.165157   -0.013736
 C    3.671179    0.247573    0.571001
 O    2.852799    0.540784    1.678707
 C    3.397675    1.292328   -0.510218
 N    1.997545    1.175371   -0.964485
 C    1.726758   -0.152415   -1.561272
 C    2.004096   -1.307130   -0.596002
 C    0.955818   -1.452563    0.510216
 O   -0.344760   -1.574570   -0.056491
 C   -1.350676   -1.234685    0.865205
 C   -2.734759   -1.512432    0.244278
 C   -3.092675   -0.464069   -0.825690
 C   -2.850741    0.958870   -0.274493
 C   -1.403424    1.008739    0.208887
 C   -0.916930    2.374065    0.679927
 O   -3.743916   -1.428798    1.218163
 O   -4.407665   -0.609079   -1.266921
 O   -3.014300    1.915483   -1.285589
 O   -1.208764    0.093912    1.278266
 O    0.479967    2.310995    0.946618
 H    4.499986   -2.249859   -1.249613
 H    3.565051   -1.905456    0.786850
 H    4.734549    0.312298    0.831621
 H    3.231202    0.165020    2.479752
 H    4.079364    1.113218   -1.343004
 H    3.555214    2.289086   -0.097462
 H    1.364612    1.422692   -0.132704
 H    1.811503    1.896149   -1.666988
 H    2.383026   -0.267010   -2.427845
 H    0.688649   -0.207559   -1.891382
 H    1.967347   -2.222012   -1.196875
 H    1.176124   -2.352316    1.100605
 H    0.978277   -0.588261    1.180176
 H   -1.240660   -1.825678    1.789798
 H   -2.708234   -2.507524   -0.221042
 H   -2.455259   -0.609781   -1.705766
 H   -3.533605    1.143843    0.568112
 H   -0.781594    0.701922   -0.645493
 H   -1.067568    3.104542   -0.115105
 H   -1.465674    2.684900    1.569427
 H   -3.657079   -2.141686    1.859797
 H   -4.968644   -0.754027   -0.491686
 H   -3.831205    1.701549   -1.758494
 H    0.607339    1.878706    1.801388
