40 
4d63_ligand_xtb.xyz
 C   -2.828753   -1.083453    0.946409
 C   -2.554491   -0.389505   -0.404818
 C   -2.574334    1.136532   -0.287806
 C   -1.335961    1.696797    0.428375
 C   -0.091484    1.117427   -0.266232
 C   -0.139683   -0.411583   -0.173795
 C    1.097179   -1.080618   -0.836273
 C    1.996338   -1.734194    0.225073
 C    3.251739   -2.319442   -0.425613
 C    1.683377    2.776379   -0.155212
 C    3.004390    3.122323    0.486918
 N    1.132540    1.630872    0.299153
 O   -2.310238   -0.786773    1.988014
 O   -3.653489   -2.121691    0.814074
 O   -3.478231   -0.747634   -1.364782
 O   -1.345471    3.097675    0.427667
 O   -1.290310   -0.897891   -0.843131
 O    0.746617   -2.072681   -1.762214
 O    2.356282   -0.784387    1.202291
 O    4.056186   -2.834721    0.618489
 O    1.139079    3.466362   -0.998623
 H   -3.479156    1.442018    0.236481
 H   -2.618169    1.534372   -1.303741
 H   -1.349159    1.384626    1.480288
 H   -0.122332    1.419699   -1.324291
 H   -0.179176   -0.695846    0.886926
 H    1.679916   -0.298161   -1.349185
 H    1.436962   -2.557567    0.695058
 H    2.954890   -3.096815   -1.134928
 H    3.785557   -1.523978   -0.963272
 H    2.817211    3.521575    1.481592
 H    3.505843    3.882260   -0.105057
 H    3.633344    2.241012    0.576328
 H    1.612251    1.048513    0.970711
 H   -3.783649   -2.566712    1.668027
 H   -3.556766   -1.709959   -1.401217
 H   -0.801675    3.422783   -0.307782
 H   -0.177605   -1.923192   -2.006800
 H    3.089614   -1.179635    1.694586
 H    4.811023   -3.291141    0.235780
