79 
4d85_ligand_xtb.xyz
 F    8.631707    0.505324    1.521552
 C    7.423359    0.331287    0.914945
 C    7.508990   -0.792425   -0.108195
 C    6.150618   -0.988820   -0.774992
 C    5.042327   -1.279006    0.245136
 C    5.184354   -2.677406    0.902639
 N    3.856990   -3.267465    0.841454
 C    3.081127   -2.582468   -0.036819
 C    3.688849   -1.379752   -0.423878
 C    3.051594   -0.494248   -1.257917
 C    1.776320   -0.789904   -1.748007
 C    1.176899   -1.990207   -1.382045
 C    1.818423   -2.873061   -0.533403
 F    1.199078   -4.028983   -0.190673
 C    1.066212    0.187691   -2.646985
 C    0.243251    1.246379   -1.870898
 C   -0.829869    0.587458   -0.981589
 C   -1.724002    1.643540   -0.299931
 C   -0.981920    2.435699    0.741803
 S    0.204072    3.442822   -0.254071
 C    1.163163    2.121703   -1.037685
 O   -0.597606    4.098385   -1.243447
 O    1.020018    4.211571    0.624225
 N   -2.923772    0.931321    0.240136
 C   -4.158226    1.752802    0.412570
 C   -5.238532    0.892871    1.010354
 C   -6.056769    0.134530    0.185741
 C   -7.046709   -0.696110    0.704579
 C   -7.183485   -0.745215    2.088281
 C   -6.368192    0.004269    2.919869
 C   -5.389842    0.823407    2.389819
 C   -7.926495   -1.492809   -0.242976
 C   -7.039630   -2.394667   -1.114274
 C   -8.708523   -0.513079   -1.129627
 C   -8.930688   -2.379852    0.496123
 O   -1.732680   -0.219063   -1.711282
 C    4.999452   -0.150305    1.291624
 C    6.349104    0.083078    1.964672
 F    7.176955    1.517488    0.277562
 H    8.261605   -0.530731   -0.853493
 H    7.835800   -1.694840    0.409189
 H    5.896981   -0.077182   -1.318787
 H    6.209605   -1.802996   -1.498925
 H    5.908948   -3.291891    0.355319
 H    5.503846   -2.615864    1.944859
 H    3.737626   -4.256318    0.986760
 H    3.541382    0.418843   -1.558288
 H    0.212297   -2.284545   -1.768895
 H    1.800549    0.722555   -3.249848
 H    0.414936   -0.344729   -3.343790
 H   -0.265026    1.886953   -2.599303
 H   -0.325551   -0.027409   -0.215792
 H   -2.085610    2.337127   -1.068614
 H   -1.613395    3.139884    1.276167
 H   -0.413184    1.829332    1.440370
 H    1.906422    2.613971   -1.659711
 H    1.660830    1.576009   -0.240710
 H   -3.106787    0.177328   -0.448988
 H   -2.701498    0.484390    1.137356
 H   -4.450671    2.133217   -0.567113
 H   -3.927815    2.594551    1.067041
 H   -5.926996    0.211359   -0.883660
 H   -7.937150   -1.367858    2.538664
 H   -6.501796   -0.049155    3.988978
 H   -4.764326    1.417657    3.039961
 H   -6.367418   -1.815696   -1.742225
 H   -7.662268   -3.003425   -1.764180
 H   -6.445714   -3.059167   -0.489972
 H   -9.314744    0.149250   -0.515950
 H   -8.046027    0.096019   -1.738804
 H   -9.368498   -1.063823   -1.794524
 H   -9.524041   -2.931739   -0.228531
 H   -8.425062   -3.102454    1.132406
 H   -9.612870   -1.784783    1.097975
 H   -1.238248   -0.802074   -2.299484
 H    4.698059    0.772422    0.791236
 H    4.249970   -0.385885    2.049294
 H    6.658568   -0.776339    2.559842
 H    6.295098    0.951994    2.622631
