79 
4d89_ligand_dft.xyz
 F    0.387360    0.758326   -0.577146
 C    0.163824    1.449996    0.566309
 F   -0.826243    0.782688    1.204072
 F    1.255245    1.324630    1.325577
 C   -0.189242    2.925292    0.327397
 O   -1.126078    3.082935   -0.720877
 C   -2.366649    2.511192   -0.518913
 C   -3.230520    3.041987    0.445870
 C   -4.434194    2.360336    0.635383
 C   -4.775275    1.218993   -0.067556
 C   -3.914091    0.729948   -1.053050
 C   -2.724235    1.419180   -1.294815
 C   -4.186060   -0.587376   -1.742221
 C   -3.400393   -1.775714   -1.114616
 C   -1.889348   -1.552540   -1.259561
 C   -0.975701   -2.610110   -0.612903
 C   -1.203043   -2.747764    0.883903
 S   -2.909801   -3.306965    1.134019
 C   -3.796227   -1.954500    0.355313
 O   -3.064773   -4.494824    0.300018
 O   -3.180522   -3.322972    2.558591
 N    0.417606   -2.134922   -0.916209
 C    1.566925   -3.079886   -0.674118
 C    2.852009   -2.321028   -0.843103
 C    3.467431   -1.757204    0.272150
 C    4.625346   -0.978455    0.159967
 C    5.132983   -0.775337   -1.126234
 C    4.524006   -1.331912   -2.249963
 C    3.383341   -2.109832   -2.116963
 C    5.299005   -0.425714    1.421614
 C    6.491233    0.481379    1.088281
 C    4.285450    0.393341    2.241719
 C    5.806388   -1.610961    2.266481
 O   -1.479869   -1.393599   -2.607669
 F   -5.276500    2.848138    1.561127
 N   -2.872442    4.145382    1.216462
 C    1.047096    3.731460   -0.035873
 O    1.644321    3.149893   -1.158364
 C    2.918437    3.684300   -1.482398
 C    4.034728    3.041315   -0.670347
 H   -0.599810    3.293287    1.277435
 H   -5.720010    0.733130    0.155737
 H   -2.029919    1.095166   -2.063784
 H   -5.252750   -0.829573   -1.693518
 H   -3.926802   -0.518426   -2.803212
 H   -3.675341   -2.694888   -1.649512
 H   -1.653879   -0.603675   -0.770741
 H   -1.089835   -3.582787   -1.101726
 H   -1.072713   -1.798508    1.413215
 H   -0.580223   -3.515472    1.350602
 H   -4.857523   -2.201904    0.454456
 H   -3.597304   -1.057771    0.950672
 H    0.396481   -1.858976   -1.910167
 H    0.600294   -1.252495   -0.420640
 H    1.451880   -3.899926   -1.386991
 H    1.456034   -3.474450    0.337360
 H    3.043153   -1.945237    1.256307
 H    6.028279   -0.181012   -1.267389
 H    4.954479   -1.164012   -3.231783
 H    2.921211   -2.559972   -2.992769
 H    7.284172   -0.059890    0.561210
 H    6.924578    0.868550    2.015562
 H    6.190696    1.342060    0.480132
 H    4.768497    0.789871    3.140802
 H    3.431935   -0.209083    2.569708
 H    3.900375    1.236142    1.660451
 H    4.987807   -2.266888    2.581833
 H    6.524877   -2.215092    1.702917
 H    6.303993   -1.242365    3.169735
 H   -1.981868   -2.000051   -3.169535
 H   -2.419377    4.875236    0.679309
 H   -3.639128    4.515835    1.763529
 H    0.726411    4.764203   -0.238727
 H    1.721174    3.751282    0.831991
 H    2.914592    4.776078   -1.352729
 H    3.058579    3.479213   -2.546795
 H    3.941153    3.260672    0.398657
 H    4.015254    1.954663   -0.803734
 H    5.008518    3.417453   -1.000711
