57 
4d8n_ligand_xtb.xyz
 C    4.941079   -0.338562   -0.898177
 C    5.542479   -0.970374   -1.972888
 C    5.528068   -2.351976   -2.063456
 C    4.911915   -3.101488   -1.075234
 C    4.315904   -2.471767    0.002590
 C    4.327466   -1.085785    0.098354
 C    3.683341   -0.401861    1.280533
 N    2.364526   -0.919182    1.552310
 C    1.959690   -1.583711    2.673232
 C    0.627746   -1.830458    2.514931
 N    0.213891   -1.333000    1.318917
 C    1.280277   -0.802817    0.753721
 C    1.278610   -0.108850   -0.565909
 N    1.295130    1.329292   -0.385084
 C    1.845763    2.121142   -1.374889
 C    1.796620    3.458131   -1.327614
 C    1.107144    4.104505   -0.237766
 C    0.414028    3.364523    0.629352
 O   -0.266379    3.823481    1.718500
 C    0.251086    1.872204    0.462630
 C   -1.175742    1.617218   -0.096270
 O   -1.734563    2.396750   -0.830434
 N   -1.709550    0.425006    0.322314
 C   -2.988813   -0.037278    0.123488
 C   -3.287972   -1.332779    0.566758
 C   -4.559962   -1.841546    0.436300
 C   -4.003595    0.729493   -0.460788
 C   -5.275152    0.213821   -0.579696
 C   -5.573539   -1.070723   -0.129827
 C   -6.950454   -1.625609   -0.307228
 N   -7.072054   -2.174961   -1.717028
 H    4.949605    0.739958   -0.829785
 H    6.021979   -0.382042   -2.740358
 H    5.997444   -2.843973   -2.901365
 H    4.899968   -4.178872   -1.140312
 H    3.838453   -3.059157    0.774244
 H    3.610402    0.674670    1.093776
 H    4.292788   -0.558076    2.176060
 H    2.630636   -1.816180    3.473727
 H   -0.055241   -2.325622    3.174433
 H    0.393650   -0.444028   -1.129426
 H    2.171534   -0.392532   -1.129269
 H    2.381645    1.586951   -2.144229
 H    2.275633    4.057956   -2.080221
 H    1.176277    5.176056   -0.130368
 H   -0.206345    4.785750    1.754936
 H    0.310307    1.400077    1.454254
 H   -1.083923   -0.240632    0.810243
 H   -2.504726   -1.922872    1.016440
 H   -4.777176   -2.837655    0.794545
 H   -3.782364    1.725315   -0.805469
 H   -6.053641    0.827620   -1.010805
 H   -7.147184   -2.440268    0.389461
 H   -7.711375   -0.853673   -0.188893
 H   -6.865860   -1.416413   -2.380521
 H   -6.367613   -2.911820   -1.849837
 H   -8.006859   -2.555183   -1.908673
