27 
4daf_ligand_dft.xyz
 O    1.709244    2.538236   -0.425268
 C    1.962080    1.352158   -0.218077
 N    3.254495    0.920076    0.005478
 C    3.571180   -0.411280    0.229316
 N    4.905920   -0.673456    0.384125
 N    2.710805   -1.372554    0.250724
 C    1.389702   -1.051538    0.022511
 C    0.984698    0.283289   -0.193939
 C   -0.368127    0.537535   -0.400520
 O   -0.857431    1.749304   -0.637480
 N    0.521607   -2.067437    0.025390
 N   -0.762426   -1.801403   -0.163596
 C   -1.228524   -0.576063   -0.360852
 C   -2.713933   -0.388010   -0.549921
 C   -3.481991   -1.711081   -0.681208
 C   -3.279570    0.420594    0.608724
 O   -4.498605    0.911672    0.313011
 O   -2.751166    0.596194    1.678849
 H    3.979248    1.620874   -0.083038
 H    5.086178   -1.627250    0.666189
 H    5.478105    0.015612    0.850399
 H   -0.104208    2.383307   -0.619148
 H   -2.881849    0.208222   -1.455210
 H   -3.376012   -2.313025    0.223927
 H   -4.540581   -1.507916   -0.860395
 H   -3.082583   -2.293817   -1.513913
 H   -4.800523    1.380538    1.107239
