18 
4ddk_ligand_xtb.xyz
 O   -2.954156   -1.516897    0.001185
 C   -2.634092   -0.359411    0.000246
 O   -3.577130    0.597979    0.000875
 C   -1.205635    0.076958   -0.001138
 C   -0.255468   -0.958316   -0.001706
 C    1.067120   -0.606819   -0.000776
 O    2.174238   -1.405715   -0.000322
 C    3.285420   -0.536017    0.000925
 O    2.827303    0.802519    0.000979
 C    1.468778    0.734739    0.000017
 C    0.550786    1.757395   -0.000318
 C   -0.796456    1.406914   -0.000655
 H   -3.210346    1.490718   -0.000860
 H   -0.583315   -1.984083   -0.002610
 H    3.897563   -0.714306   -0.897062
 H    3.896232   -0.714919    0.899675
 H    0.865212    2.787284    0.000032
 H   -1.510108    2.219554   -0.000491
