32 
4de0_ligand_dft.xyz
 O    1.612387   -2.694446   -0.000020
 C    1.664196   -1.470797    0.000148
 C    2.921342   -0.708747   -0.000099
 C    2.997033    0.718436    0.000215
 N    2.025219    1.634346    0.000704
 C    2.730265    2.834459    0.000888
 N    4.034288    2.762524    0.000468
 C    4.266725    1.389388   -0.000032
 C    5.434577    0.674826   -0.000587
 C    5.351261   -0.744367   -0.000933
 C    4.136376   -1.411471   -0.000712
 N    0.538177   -0.656065    0.000396
 C   -0.779098   -1.029281    0.000201
 C   -1.758794   -0.044979   -0.000276
 C   -1.168265   -2.405349    0.000589
 C   -2.518962   -2.767223    0.000614
 C   -3.492143   -1.797224    0.000262
 C   -3.111911   -0.406503   -0.000156
 C   -4.138678    0.545833   -0.000298
 N   -5.489903    0.249621   -0.000229
 N   -6.100155    1.358587   -0.000266
 N   -5.125420    2.423278   -0.000462
 N   -3.965132    1.914642   -0.000430
 H    2.192856    3.775385    0.001270
 H    6.397790    1.174470   -0.000717
 H    6.270282   -1.321714   -0.001382
 H    4.099079   -2.495043   -0.001001
 H    0.729902    0.359376    0.000532
 H   -1.490670    1.006411   -0.000686
 H   -0.385704   -3.153848    0.000781
 H   -2.787103   -3.817642    0.000899
 H   -4.548597   -2.042366    0.000247
