28 
4de7_ligand_dft.xyz
 N    0.706197    0.027317   -0.354361
 C    1.442093   -1.107863   -0.078533
 N    2.777288   -0.892771    0.142584
 C    3.474249    0.332721    0.121548
 C    2.613258    1.459731   -0.196246
 C    1.300637    1.266030   -0.423967
 O    0.940146   -2.226457   -0.030263
 O    4.665159    0.361614    0.351439
 C   -0.733922   -0.179845   -0.665204
 C   -1.517088   -0.770570    0.534151
 O   -1.762475   -2.142169    0.436571
 C   -2.847479   -0.014454    0.442271
 C   -2.407990    1.342657   -0.095903
 O   -1.313184    1.042703   -0.986577
 O   -3.680778   -0.632796   -0.501686
 C   -1.971239    2.331300    0.975488
 H    3.323157   -1.718504    0.355557
 H    3.057373    2.443507   -0.254763
 H    0.618854    2.064973   -0.682020
 H   -0.784408   -0.860667   -1.521642
 H   -0.993773   -0.517325    1.467571
 H   -0.894444   -2.555460    0.278414
 H   -3.339113    0.071472    1.421740
 H   -3.197356    1.769268   -0.718695
 H   -3.491303   -1.582326   -0.438727
 H   -1.566894    3.235240    0.511215
 H   -2.823336    2.619942    1.599095
 H   -1.199207    1.906650    1.627180
