40 
4dea_ligand_xtb.xyz
 C    3.823627    2.044530    0.017100
 N   -2.987160   -1.860521   -0.247881
 O    4.411286    0.849229    0.018935
 N   -2.439801    0.362708   -0.032519
 O    4.488832    3.048747   -0.047271
 N   -4.697846   -0.345281    0.006342
 N   -1.831166    2.578133    0.201601
 C    0.594799   -1.695208   -0.978763
 C    1.088113   -2.729773   -0.181919
 C    0.185562   -3.576704    0.461371
 C   -1.171224   -3.327190    0.396478
 C   -1.650667   -2.224433   -0.311656
 C   -0.755545   -1.458644   -1.063150
 C    2.552278   -2.791871    0.026486
 C   -3.390373   -0.559541   -0.097005
 C   -2.803314    1.627887    0.129372
 C   -4.166498    1.970567    0.207873
 C   -5.062214    0.925021    0.148641
 C   -0.449332    2.393396    0.181682
 C    0.354922    3.443469   -0.266219
 C    1.724044    3.301139   -0.306913
 C    2.332312    2.109847    0.090281
 C    1.531747    1.080522    0.576377
 C    0.158167    1.222527    0.630318
 O    3.241076   -1.801127   -0.029297
 O    3.093114   -3.983994    0.311144
 H   -3.680120   -2.554582   -0.007402
 H    3.826551    0.071010    0.019156
 H   -2.144996    3.536676    0.136538
 H    1.293698   -1.077251   -1.520349
 H    0.533462   -4.394790    1.078895
 H   -1.862026   -3.958214    0.936632
 H   -1.126566   -0.654609   -1.673468
 H   -4.487821    2.992288    0.321991
 H   -6.128615    1.093002    0.221084
 H   -0.102387    4.369414   -0.586112
 H    2.354026    4.106850   -0.651634
 H    1.972028    0.163717    0.940913
 H   -0.450765    0.423249    1.014937
 H    2.442465   -4.698125    0.285798
