44 
4deh_ligand_dft.xyz
 C    2.149216    0.230318    1.151662
 C    2.993031    1.114107    0.432201
 C    2.984176    2.516591    0.629514
 C    3.827887    3.299172   -0.111903
 C    4.682203    2.673834   -1.052534
 N    4.723657    1.380524   -1.270850
 C    3.886860    0.591006   -0.539652
 C    3.909724   -0.810385   -0.767137
 C    3.084427   -1.640774   -0.058713
 C    2.193770   -1.120421    0.917552
 C    1.272827   -2.063323    1.655735
 N    0.240317   -2.586005    0.767206
 C   -0.836025   -1.949509    0.254569
 C   -1.397013   -0.635096    0.598883
 O   -1.024200    0.033028    1.552492
 N    0.358561   -3.799571    0.220386
 N   -0.632356   -3.976760   -0.616744
 C   -1.382523   -2.852486   -0.620891
 C   -2.624358   -2.519880   -1.373793
 C   -2.670193   -0.994489   -1.514606
 N   -2.429074   -0.282256   -0.242369
 C   -3.045316    0.999549   -0.089348
 C   -2.285355    2.167203   -0.130001
 C   -2.914609    3.401895   -0.017089
 C   -4.298191    3.476703    0.122782
 C   -5.054377    2.308750    0.159769
 C   -4.428394    1.070523    0.060953
 H    1.444291    0.635363    1.872314
 H    2.309836    2.949013    1.364428
 H    3.854060    4.377180    0.008017
 H    5.359639    3.283819   -1.648181
 H    4.597213   -1.189737   -1.515771
 H    3.093058   -2.712036   -0.243478
 H    0.772221   -1.556942    2.481723
 H    1.807398   -2.938549    2.031467
 H   -3.507825   -2.882388   -0.833532
 H   -2.629344   -2.979771   -2.365789
 H   -3.647532   -0.675129   -1.879740
 H   -1.920433   -0.672958   -2.251033
 H   -1.208047    2.101944   -0.236957
 H   -2.320635    4.310342   -0.044649
 H   -4.785371    4.443355    0.205830
 H   -6.132643    2.359029    0.275986
 H   -5.006618    0.152009    0.108306
