16 
4del_ligand_dft.xyz
 C   -1.519437    0.201933   -0.071337
 C   -0.523293    1.350707   -0.122955
 N   -2.798202    0.509382    0.113757
 O   -3.746037   -0.489013    0.121316
 O   -1.187012   -0.986354   -0.235919
 O    0.638257    1.030105    0.593584
 O    3.122505    0.438377    0.192041
 O    1.409455   -1.365287    0.883384
 O    1.292353   -0.342527   -1.461594
 P    1.752263   -0.043387    0.050548
 H   -0.939451    2.256094    0.327786
 H   -0.302622    1.558158   -1.177047
 H   -3.180690    1.410378    0.351771
 H   -3.196868   -1.290397    0.004419
 H    0.457179   -1.560293    0.832482
 H    0.486142   -0.887031   -1.470678
