46 
4dem_ligand_dft.xyz
 O   -5.416341   -1.802543   -1.306995
 P   -4.189630   -1.977034   -0.296407
 O   -4.814632   -2.066977    1.180931
 O   -3.225483   -3.050115   -0.588877
 C   -3.365127   -0.323377   -0.397928
 P   -4.472164    0.911086    0.397787
 O   -3.885595    0.996278    1.888099
 O   -4.210200    2.299828   -0.313561
 O   -5.888244    0.444099    0.324123
 N   -2.053066   -0.402662    0.229137
 C   -1.082049    0.544475   -0.098421
 C    0.273551    0.215678    0.024348
 N   -1.498386    1.758916   -0.470796
 C   -0.559298    2.682407   -0.736766
 C    0.795469    2.447653   -0.648942
 C    1.240695    1.172280   -0.256638
 C    2.681631    0.858136   -0.154959
 C    3.594948    1.808541    0.323485
 C    4.941513    1.514557    0.427561
 C    3.175244   -0.391610   -0.531407
 C    4.528362   -0.699659   -0.439562
 C    5.425885    0.256900    0.044198
 O    6.760105    0.089462    0.167309
 C    7.364625   -1.176984   -0.115287
 C    7.119379   -2.155231    1.028099
 C    8.842159   -0.887849   -0.323176
 H   -5.971001   -1.043996   -1.026086
 H   -5.520942   -1.405499    1.309853
 H   -3.299053   -0.079990   -1.467978
 H   -3.069292    0.464150    1.942808
 H   -3.223174    2.351351   -0.447011
 H   -1.698773   -1.355507    0.220707
 H    0.556880   -0.777705    0.358216
 H   -0.933896    3.655409   -1.042241
 H    1.500631    3.228862   -0.908511
 H    3.240680    2.783527    0.646159
 H    5.647664    2.244092    0.809274
 H    2.497753   -1.139986   -0.933136
 H    4.864740   -1.680464   -0.753404
 H    6.946357   -1.570225   -1.051333
 H    7.562110   -1.765742    1.950302
 H    6.051945   -2.316514    1.203451
 H    7.579568   -3.122573    0.802948
 H    8.983093   -0.177561   -1.142183
 H    9.275670   -0.460336    0.586413
 H    9.377325   -1.811603   -0.563186
