30 
4der_ligand_xtb.xyz
 C   -2.617325   -1.117318    0.337194
 C   -3.962132   -1.412087    0.345822
 C   -4.893161   -0.432329    0.008206
 O   -6.207787   -0.759986    0.026550
 C   -4.448534    0.840110   -0.338862
 C   -3.099943    1.131560   -0.343626
 C   -2.161218    0.159439   -0.001096
 C   -0.722956    0.443034    0.004196
 O    0.033801   -0.677475   -0.056755
 C   -0.175525    1.674749    0.078893
 C    1.264376    1.903541    0.086653
 O    1.745214    3.021066    0.142668
 C    2.045015    0.655223    0.024084
 C    1.382393   -0.577253   -0.042758
 C    2.076146   -1.780751   -0.101183
 C    3.460335   -1.769666   -0.092073
 O    4.111845   -2.954334   -0.148660
 C    4.143350   -0.557550   -0.025248
 C    3.456304    0.645471    0.032230
 O    4.107363    1.815948    0.096693
 H   -1.901730   -1.879280    0.602812
 H   -4.317523   -2.394845    0.610806
 H   -6.744590    0.001419   -0.225832
 H   -5.166630    1.602628   -0.610709
 H   -2.777039    2.118291   -0.634567
 H   -0.796426    2.551448    0.151861
 H    1.540658   -2.712782   -0.153820
 H    5.066397   -2.812318   -0.135851
 H    5.227410   -0.552308   -0.018062
 H    5.063246    1.678956    0.094803
