31 
4det_ligand_xtb.xyz
 C   -4.217573   -0.677704   -0.002994
 C   -3.520755    0.517004    0.012687
 C   -2.101870    0.492391    0.008052
 C   -1.429574   -0.737641   -0.007789
 C   -2.144004   -1.930177   -0.022624
 C   -3.532338   -1.892507   -0.022113
 C   -1.332880    1.703064    0.015447
 C    0.113701    1.544216    0.002985
 C    0.692053    0.304537   -0.004830
 C    2.120623    0.006213   -0.004530
 C    3.092566    1.008655   -0.084566
 C    4.432752    0.692520   -0.082375
 C    4.845484   -0.635542    0.001332
 C    3.886597   -1.641028    0.081223
 C    2.545606   -1.323448    0.077235
 O   -0.086432   -0.812340   -0.009793
 O   -1.811772    2.855422    0.031428
 O    6.174645   -0.900485    0.001975
 O    0.791328    2.714922    0.007803
 O   -4.269523   -3.023496   -0.040268
 O   -4.174185    1.676814    0.030479
 H   -5.294122   -0.674218   -0.001513
 H   -1.608330   -2.867158   -0.036073
 H    2.794402    2.039962   -0.150183
 H    5.184327    1.462936   -0.145058
 H    4.197444   -2.675691    0.147227
 H    1.813859   -2.112823    0.140974
 H    6.324382   -1.851903    0.064905
 H    0.090007    3.402477    0.022992
 H   -3.694165   -3.798675   -0.055931
 H   -3.502613    2.405092    0.036814
