31 
4dew_ligand_dft.xyz
 C   -2.207834    1.811499   -0.193492
 O   -4.166587    3.084408   -0.267385
 C   -3.601655    1.860479   -0.162889
 O   -4.497860   -1.630521    0.199221
 C   -4.376422    0.705041   -0.031632
 O   -2.257982   -2.970919    0.284010
 C   -3.753228   -0.533501    0.072643
 O   -0.245109    0.544647   -0.127271
 C   -2.338066   -0.619160    0.044265
 O    4.332595    2.197912    0.614641
 C   -1.607796    0.568753   -0.087966
 O    5.981708    0.234673   -0.110194
 C   -1.649699   -1.894024    0.161130
 C   -0.203592   -1.809612    0.137658
 C    0.428162   -0.623103   -0.015491
 C    1.887571   -0.427868   -0.065379
 C    2.437890    0.811405    0.287165
 C    3.809011    1.000000    0.264057
 C    4.648166   -0.056652   -0.121015
 C    4.108500   -1.281974   -0.482887
 C    2.730186   -1.468875   -0.458265
 H   -1.619980    2.714226   -0.298338
 H   -5.127118    2.996730   -0.235571
 H   -3.869124   -2.396110    0.260463
 H   -5.461147    0.748921   -0.008014
 H    5.295501    2.136429    0.539512
 H    6.493132   -0.536739   -0.379802
 H    0.360801   -2.723420    0.269937
 H    1.805069    1.637405    0.589035
 H    4.762712   -2.091728   -0.796627
 H    2.318871   -2.421769   -0.772180
