37 
4dff_ligand_dft.xyz
 C   -0.760453   -0.704413   -0.313307
 C   -3.009795    0.813696    0.270493
 C    2.161256   -1.380821    1.024150
 C    2.002836    3.084523   -0.291402
 C    4.022388   -2.312218    0.349460
 C   -0.620511    0.662479   -0.028033
 C   -1.753380    1.428180    0.248298
 C   -2.000603   -1.316326   -0.275284
 C   -3.149481   -0.544994    0.024790
 C    2.012178    0.967306    0.006139
 C    0.678425    1.335442   -0.057631
 C    2.606158   -0.340514    0.253979
 C   -1.590956    2.906045    0.524222
 C   -0.504333    3.500127   -0.371044
 C   -1.096196   -3.441245   -0.773255
 C   -5.493106   -0.503384    0.333355
 N    2.956989   -2.497337    1.069999
 N    2.819992    2.070033   -0.156320
 N    0.702156    2.703846   -0.224666
 O   -2.221126   -2.628302   -0.514910
 O   -4.319789   -1.222951    0.035634
 S    4.136956   -0.775419   -0.436221
 H    0.120738   -1.277628   -0.569309
 H   -3.882989    1.419788    0.487581
 H    1.242098   -1.363159    1.597626
 H    2.293662    4.117438   -0.428342
 H    4.807802   -3.051122    0.242024
 H   -1.311365    3.067643    1.574058
 H   -2.531844    3.438240    0.352724
 H   -0.275191    4.532324   -0.094246
 H   -0.824981    3.483629   -1.419707
 H   -0.586060   -3.139500   -1.697062
 H   -0.379027   -3.416074    0.057314
 H   -1.481700   -4.454531   -0.889067
 H   -5.448579   -0.056300    1.335224
 H   -5.680863    0.286008   -0.406477
 H   -6.306212   -1.229127    0.298737
