87 
4dfg_ligand_xtb.xyz
 O    6.319730   -3.292980    0.157615
 C    5.898045   -4.630529    0.006222
 C    5.579563   -2.305819   -0.395442
 C    6.061644   -1.004812   -0.203400
 C    5.375780    0.074138   -0.715357
 C    4.204385   -0.134263   -1.424582
 C    3.720463   -1.410741   -1.628107
 C    4.403652   -2.501608   -1.118114
 S    3.309398    1.282751   -2.052768
 O    2.245261    0.790533   -2.893244
 O    4.228673    2.210154   -2.638186
 N    2.610263    2.009730   -0.724382
 C    3.304063    3.144904   -0.152023
 C    2.448582    4.421521   -0.138645
 C    3.354194    5.629509    0.093913
 C    1.351551    4.373556    0.921413
 C    1.911935    1.101668    0.162420
 C    0.462107    0.835079   -0.288972
 O    0.387287   -0.179192   -1.257707
 C   -0.437559    0.425733    0.891786
 N   -1.811996    0.504193    0.444855
 C   -2.815302    0.698567    1.322598
 O   -2.682055    0.954059    2.495050
 O   -4.012740    0.606337    0.689743
 C   -5.182627    0.596968    1.509200
 C   -6.233107    1.573258    0.962355
 C   -7.293517    0.746638    0.217736
 O   -7.273252    1.015839   -1.175508
 C   -7.338556   -0.211548   -1.865125
 C   -6.509447   -1.184463   -1.017373
 C   -6.925724   -0.743371    0.406263
 C   -5.843088   -0.790785    1.482167
 N   -5.114257   -0.989368   -1.298291
 C   -4.228773   -2.000671   -1.393760
 O   -4.491765   -3.177365   -1.378774
 O   -2.973490   -1.501119   -1.542230
 C   -1.948326   -2.463901   -1.750666
 C   -0.128269   -0.987926    1.425477
 C    1.273281   -0.363545    3.406021
 C    2.455796   -0.399476    4.122342
 C    3.531826   -1.134190    3.652229
 C    3.413590   -1.841781    2.468825
 C    2.229733   -1.803959    1.752518
 C    1.150245   -1.056322    2.206647
 H    5.864022   -4.923126   -1.047150
 H    4.918402   -4.796303    0.464889
 H    6.643807   -5.231882    0.523057
 H    6.977256   -0.876556    0.351020
 H    5.741857    1.079749   -0.584794
 H    2.809300   -1.542665   -2.189742
 H    4.012993   -3.491944   -1.288124
 H    3.654807    2.910320    0.860408
 H    4.168469    3.325036   -0.793066
 H    1.985681    4.510151   -1.125884
 H    4.110211    5.697605   -0.684089
 H    3.854418    5.548872    1.056969
 H    2.770589    6.546648    0.087262
 H    0.799753    5.310847    0.928586
 H    1.783425    4.226671    1.909875
 H    0.650062    3.568784    0.723442
 H    1.907177    1.530212    1.164542
 H    2.441468    0.143312    0.209094
 H    0.063629    1.774484   -0.705454
 H    0.937283    0.106035   -2.015932
 H   -0.333224    1.151169    1.705204
 H   -2.030776    0.093823   -0.453517
 H   -4.861994    0.869164    2.520761
 H   -5.773315    2.277988    0.271186
 H   -6.685202    2.132866    1.778534
 H   -8.298389    0.966100    0.603120
 H   -6.931423   -0.058996   -2.864359
 H   -8.378936   -0.559823   -1.940547
 H   -6.734825   -2.234563   -1.211646
 H   -7.795094   -1.331741    0.703613
 H   -6.297541   -0.988775    2.452480
 H   -5.107670   -1.569171    1.281708
 H   -4.750716   -0.053254   -1.193536
 H   -1.016019   -1.903051   -1.765952
 H   -1.951984   -3.200976   -0.944595
 H   -2.103542   -2.981519   -2.699200
 H   -0.958979   -1.267340    2.078581
 H   -0.095472   -1.674622    0.580372
 H    0.430614    0.199320    3.780506
 H    2.538205    0.143375    5.052643
 H    4.455959   -1.162582    4.210164
 H    4.248169   -2.422554    2.104593
 H    2.141070   -2.358102    0.828519
