61 
4dfn_ligand_xtb.xyz
 C   -2.961107    1.662763    0.116894
 C   -2.671668    0.312819   -0.060413
 C   -4.254911    2.036355    0.478322
 C   -3.646923   -0.665146    0.110575
 C   -5.231654    1.072138    0.642812
 C   -4.937513   -0.265381    0.460617
 C    0.055789    4.514114   -0.301424
 C    0.335357    3.147067   -0.041676
 N   -0.641320    2.261861    0.073309
 C   -2.163080    4.004665   -0.377787
 C   -1.906595    2.664307   -0.058901
 N    1.026789    5.432898   -0.360573
 C   -3.335085   -2.075538   -0.054054
 C   -2.094995   -2.698013   -0.044341
 C   -4.236743   -3.146785   -0.232132
 C    3.000592    0.572551    0.437791
 C    3.398437   -0.040252   -0.915747
 C    2.893339   -0.544838    1.480710
 C    2.273934   -2.186811   -0.299476
 C    4.677557   -1.814652    0.280871
 C    3.646489   -2.854247   -0.157569
 O    2.717749    3.360545   -0.022877
 C    1.726807    2.644492    0.089384
 N    1.777640    1.328183    0.343417
 C    4.261717   -1.212476    1.623290
 O    1.280315   -3.140136   -0.656420
 C    1.865637   -1.589711    1.047524
 C    2.361270   -1.074260   -1.349306
 C    4.764318   -0.709135   -0.771187
 N   -1.212468    4.906982   -0.495554
 N   -3.602127   -4.297047   -0.319315
 N   -2.308353   -4.014844   -0.199058
 C   -1.323926   -5.056999   -0.212672
 H   -1.670951    0.032372   -0.350806
 H   -4.493435    3.074496    0.652480
 H   -6.232009    1.367194    0.925501
 H   -5.706634   -1.008326    0.605328
 H   -3.164996    4.361144   -0.573451
 H    0.792761    6.380188   -0.596982
 H    1.981805    5.101519   -0.289000
 H   -1.101332   -2.314988    0.065455
 H   -5.304541   -3.120479   -0.317777
 H    3.774375    1.290689    0.735612
 H    3.451799    0.760321   -1.660375
 H    2.588111   -0.113263    2.439325
 H    5.654792   -2.297890    0.385206
 H    3.942137   -3.295716   -1.113630
 H    3.579913   -3.659470    0.577236
 H    0.881288    0.862676    0.387798
 H    4.213126   -1.995139    2.383023
 H    5.002427   -0.477719    1.944287
 H    1.499869   -3.494648   -1.525674
 H    1.807788   -2.389765    1.787840
 H    0.869122   -1.152789    0.964235
 H    2.648912   -1.502909   -2.314190
 H    1.381364   -0.608130   -1.473056
 H    5.508905    0.031142   -0.473580
 H    5.075134   -1.129100   -1.730352
 H   -0.335115   -4.606265   -0.160213
 H   -1.473259   -5.723040    0.639250
 H   -1.419251   -5.643772   -1.127317
