82 
4dgb_ligand_dft.xyz
 N   -3.381996   -0.590625    0.617972
 C   -3.228857   -0.080792   -0.780361
 C   -2.900397    1.404343   -0.698693
 O   -3.171406    2.040003    0.309985
 C   -4.604927   -0.337613   -1.450763
 C   -5.430764   -1.094945   -0.395431
 C   -4.841573   -0.615584    0.924907
 N   -2.388368    1.933768   -1.832002
 C   -1.887733    3.300288   -1.867524
 C   -0.392015    3.241194   -1.569526
 O    0.355648    2.795829   -2.446513
 N    0.031139    3.573007   -0.338200
 C    1.451348    3.438882    0.021065
 C    1.780138    1.951653    0.261967
 O    1.821338    1.497833    1.407620
 C    1.574493    4.270143    1.298844
 C    0.187978    4.148316    1.939282
 C   -0.761547    4.191744    0.743186
 N    2.050994    1.263727   -0.862409
 C    2.339775   -0.152171   -0.963818
 C    1.036837   -0.971081   -0.930091
 O   -0.045768   -0.454600   -0.661209
 C    3.390353   -0.645008    0.052202
 C    4.662179    0.212436    0.120840
 C    5.324198    0.378662   -1.248738
 C    5.632466   -0.411563    1.126994
 N    1.113931   -2.307272   -1.195800
 C   -0.133527   -3.078128   -1.232931
 C   -0.913135   -2.982186    0.072754
 O   -2.145828   -2.938232    0.055370
 C    0.327730   -4.494810   -1.603686
 C    1.541181   -4.223524   -2.496280
 C    2.235696   -3.062547   -1.782725
 N   -0.179501   -2.978361    1.203756
 C   -0.696100   -2.441304    2.460602
 C   -0.393920   -0.938891    2.424316
 O   -1.237775   -0.065948    2.359677
 C   -0.072104   -3.142549    3.661375
 O    0.908212   -0.734844    2.405461
 H   -2.817782   -0.045681    1.291767
 H   -2.996218   -1.555484    0.622319
 H   -2.408161   -0.636853   -1.235237
 H   -5.081659    0.614400   -1.699528
 H   -4.493531   -0.905514   -2.375686
 H   -5.287313   -2.175340   -0.496703
 H   -6.498873   -0.884404   -0.469542
 H   -5.136152    0.406646    1.169275
 H   -5.023378   -1.271629    1.776874
 H   -1.976310    1.303251   -2.506887
 H   -2.469139    3.894904   -1.164829
 H   -2.016390    3.701067   -2.874425
 H    2.068514    3.817497   -0.798992
 H    2.373620    3.906782    1.945828
 H    1.785650    5.310183    1.030184
 H   -0.023396    4.945300    2.655043
 H    0.097847    3.186291    2.450079
 H   -1.682609    3.633627    0.914124
 H   -1.006382    5.225375    0.469675
 H    1.752202    1.738520   -1.714845
 H    2.767778   -0.282715   -1.965441
 H    3.687666   -1.658807   -0.236017
 H    2.942589   -0.715576    1.044843
 H    4.385289    1.204263    0.496432
 H    5.533315   -0.597778   -1.705498
 H    4.700639    0.955903   -1.940227
 H    6.277710    0.907279   -1.154600
 H    5.165955   -0.526383    2.111314
 H    6.523107    0.212703    1.247690
 H    5.964461   -1.401832    0.790460
 H   -0.804047   -2.675167   -2.000009
 H   -0.464063   -5.060905   -2.096707
 H    0.629115   -5.042012   -0.703197
 H    1.215959   -3.914429   -3.495064
 H    2.196128   -5.090324   -2.603845
 H    2.899481   -3.437639   -0.996241
 H    2.824805   -2.437081   -2.457703
 H    0.822336   -2.885136    1.082249
 H   -1.777372   -2.579593    2.455616
 H    1.013713   -3.013684    3.667249
 H   -0.468526   -2.724947    4.590956
 H   -0.305446   -4.209636    3.629572
 H    1.143498    0.194729    2.126705
