31 
4dgn_ligand_xtb.xyz
 C   -2.214713    1.807662    0.023955
 O   -4.183568    3.086274    0.028486
 C   -3.603597    1.865558    0.018438
 O   -4.487471   -1.649939   -0.022229
 C   -4.363701    0.699997    0.002935
 O   -2.261039   -2.979493   -0.031569
 C   -3.748067   -0.543462   -0.007906
 O   -0.235513    0.557516    0.017162
 C   -2.334794   -0.616897   -0.003909
 O    4.288272    2.308005   -0.067334
 C   -1.589853    0.569726    0.012280
 O    5.997436    0.204678    0.014386
 C   -1.653281   -1.900300   -0.018077
 C   -0.212651   -1.808690   -0.016311
 C    0.431072   -0.613942    0.001999
 C    1.887694   -0.445926    0.005503
 C    2.423983    0.843974   -0.031989
 C    3.790685    1.049476   -0.029408
 C    4.653614   -0.056770    0.012744
 C    4.126299   -1.336015    0.050520
 C    2.758378   -1.533556    0.047132
 H   -1.635729    2.714744    0.036759
 H   -5.144820    2.995127    0.021627
 H   -3.857246   -2.424003   -0.028761
 H   -5.442739    0.742143   -0.001124
 H    5.254001    2.252348   -0.059505
 H    6.489868   -0.622749    0.045315
 H    0.329365   -2.737687   -0.032547
 H    1.779160    1.706023   -0.064664
 H    4.794463   -2.185643    0.083755
 H    2.382328   -2.541633    0.080498
