24 
4dhl_ligand_dft.xyz
 C   -1.587720   -1.164016   -0.150299
 C   -2.947295   -1.434970   -0.148795
 C   -3.890033   -0.412992   -0.000027
 C   -5.364434   -0.721976    0.029168
 C   -3.424124    0.894996    0.144790
 C   -2.064200    1.176196    0.146470
 C   -1.128545    0.149634   -0.002915
 C    0.317367    0.409249   -0.010416
 N    1.229697   -0.520631    0.027005
 S    0.986040    2.027471   -0.087607
 C    2.569482    1.368478   -0.056379
 C    2.494424    0.011755    0.001752
 C    3.669897   -0.906132    0.044541
 O    4.811334   -0.523228    0.021541
 O    3.338345   -2.202192    0.111612
 H   -0.866701   -1.965050   -0.271736
 H   -3.285818   -2.460816   -0.269296
 H   -5.614843   -1.532006   -0.662752
 H   -5.674323   -1.039472    1.031942
 H   -5.962424    0.153499   -0.239957
 H   -4.135852    1.707877    0.261191
 H   -1.738512    2.205755    0.271911
 H    3.462046    1.976388   -0.081778
 H    2.365571   -2.259269    0.120585
