39 
4dho_ligand_dft.xyz
 O   -2.117543   -3.058337   -0.599592
 P   -1.520202   -1.574349   -0.487678
 O   -1.261535   -1.212335   -2.033716
 O   -0.320685   -1.452888    0.382984
 C   -2.932333   -0.595168    0.031244
 C   -4.132360   -1.137090    0.482989
 C   -5.152081   -0.300356    0.929513
 C   -4.967195    1.077826    0.919466
 C   -3.775950    1.639776    0.462780
 C   -2.764448    0.795532    0.021569
 O   -1.566660    1.223692   -0.471526
 C   -1.049470    2.481110   -0.065324
 C    0.479306    2.483437   -0.137469
 O    1.046400    3.551811   -0.292661
 N    1.058330    1.268575    0.033225
 C    2.439085    0.964600    0.054581
 C    2.760903   -0.381682    0.276950
 C    3.439776    1.914854   -0.136125
 C    4.769512    1.492685   -0.101526
 C    5.110400    0.168781    0.116076
 C    4.094345   -0.773646    0.307225
 O    4.500702   -2.053415    0.515245
 C    3.507614   -3.032689    0.717615
 H   -1.447288   -3.710867   -0.354790
 H   -0.915969   -0.308692   -2.107270
 H   -4.260312   -2.214243    0.487459
 H   -6.085641   -0.723938    1.283859
 H   -5.760807    1.733489    1.264237
 H   -3.650286    2.716785    0.440231
 H   -1.346268    2.694823    0.968991
 H   -1.413310    3.282225   -0.714481
 H    0.444133    0.473130    0.201539
 H    1.954717   -1.091998    0.420583
 H    3.184014    2.950823   -0.302881
 H    5.556306    2.226759   -0.248904
 H    6.143709   -0.159619    0.143720
 H    2.901565   -2.815846    1.606624
 H    2.843026   -3.119232   -0.151907
 H    4.039090   -3.974429    0.862318
