39 
4dho_ligand_xtb.xyz
 O   -1.901831   -3.048621   -0.618811
 P   -1.479632   -1.525650   -0.454343
 O   -1.153593   -1.136951   -1.983085
 O   -0.350362   -1.361056    0.465110
 C   -2.983811   -0.618428   -0.002443
 C   -4.202152   -1.171542    0.332142
 C   -5.233943   -0.344240    0.748617
 C   -5.031308    1.022140    0.836322
 C   -3.808156    1.587938    0.508313
 C   -2.782481    0.758347    0.083377
 O   -1.535759    1.139775   -0.301742
 C   -1.058629    2.421383    0.057787
 C    0.475277    2.476392   -0.086156
 O    1.016554    3.526625   -0.356850
 N    1.069156    1.290730    0.139054
 C    2.434259    0.971708    0.079921
 C    2.764048   -0.359181    0.332914
 C    3.423220    1.899474   -0.214769
 C    4.744016    1.480354   -0.254992
 C    5.084175    0.167248   -0.008674
 C    4.088667   -0.766657    0.289002
 O    4.509767   -2.040702    0.516445
 C    3.544842   -3.016603    0.833878
 H   -2.412554   -3.207003   -1.413365
 H   -0.643249   -0.328608   -2.027296
 H   -4.337421   -2.241615    0.280971
 H   -6.191304   -0.766504    1.011821
 H   -5.834246    1.663864    1.166276
 H   -3.667910    2.655047    0.580945
 H   -1.307287    2.649849    1.102446
 H   -1.487554    3.199075   -0.585477
 H    0.475392    0.494317    0.363393
 H    1.969099   -1.051654    0.556981
 H    3.163022    2.925674   -0.407711
 H    5.518448    2.196942   -0.483444
 H    6.109451   -0.164497   -0.039057
 H    3.014103   -2.770831    1.758646
 H    2.817170   -3.142880    0.026457
 H    4.098876   -3.944090    0.970229
