35 
4dhq_ligand_dft.xyz
 O   -3.105046   -2.910610   -0.277131
 P   -2.171773   -1.608146   -0.310442
 O   -1.826639   -1.496168   -1.878102
 O   -0.982073   -1.674187    0.579908
 C   -3.307282   -0.267062    0.053025
 C   -4.613908   -0.448084    0.497847
 C   -5.400572    0.655271    0.818813
 C   -4.876439    1.936993    0.690639
 C   -3.573154    2.138472    0.238580
 C   -2.796681    1.030474   -0.077059
 O   -1.519221    1.098516   -0.554141
 C   -0.708218    2.211986   -0.217482
 C    0.770686    1.822627   -0.202957
 O    1.597145    2.695948   -0.405108
 N    1.021218    0.520331    0.091786
 C    2.281590   -0.101576    0.214616
 C    3.486907    0.574038    0.003950
 C    4.674369   -0.134681    0.143654
Cl    6.185445    0.710866   -0.121691
 C    4.705647   -1.479858    0.484369
 C    3.493042   -2.131818    0.690903
 C    2.287659   -1.458601    0.558998
 H   -2.612172   -3.670397    0.062318
 H   -1.272780   -0.716501   -2.040205
 H   -5.006900   -1.454332    0.596493
 H   -6.417556    0.513357    1.168240
 H   -5.487733    2.799465    0.937569
 H   -3.181307    3.143181    0.122783
 H   -0.973578    2.585348    0.779419
 H   -0.829343    3.019623   -0.944568
 H    0.224398   -0.088368    0.283260
 H    3.491791    1.622093   -0.257719
 H    5.651069   -2.000297    0.585538
 H    3.489960   -3.183742    0.959382
 H    1.344443   -1.971350    0.719599
