35 
4dhu_ligand_dft.xyz
 O   -2.533873   -1.930565    1.507447
 P   -2.538585   -1.675693   -0.090094
 O   -3.488221   -2.882196   -0.554356
 O   -1.208671   -1.644825   -0.741381
 C   -3.493633   -0.171592   -0.338723
 C   -4.661769   -0.109581   -1.093175
 C   -5.302814    1.111337   -1.288401
 C   -4.776641    2.265375   -0.717706
 C   -3.615716    2.221138    0.053189
 C   -2.979133    0.999462    0.231630
 O   -1.855414    0.819725    0.987665
 C   -0.914241    1.876936    1.126989
 C    0.505346    1.309923    1.166684
 O    1.342812    1.821309    1.882549
 N    0.725066    0.278380    0.301802
 C    1.965221   -0.393373    0.210368
 C    3.127941    0.259794   -0.224059
Cl    3.063991    1.912729   -0.733986
 C    4.326557   -0.458078   -0.290563
Cl    5.802978    0.311411   -0.796841
 C    4.362959   -1.811926    0.025242
 C    3.196378   -2.461732    0.405336
 C    2.006863   -1.754941    0.503250
 H   -2.081197   -1.197030    1.953886
 H   -3.888106   -3.339037    0.198040
 H   -5.057273   -1.018241   -1.535610
 H   -6.208333    1.160259   -1.883545
 H   -5.277070    3.217797   -0.862460
 H   -3.228024    3.122789    0.515145
 H   -1.086973    2.426378    2.055282
 H   -0.987699    2.562998    0.274983
 H   -0.067098   -0.210444   -0.119594
 H    5.304560   -2.344962   -0.041050
 H    3.219526   -3.521601    0.635438
 H    1.085549   -2.246587    0.796592
