35 
4dhu_ligand_xtb.xyz
 O   -2.498006   -1.787430    1.652898
 P   -2.601503   -1.624148    0.053571
 O   -3.478051   -2.894212   -0.317462
 O   -1.309500   -1.623415   -0.640377
 C   -3.639761   -0.166684   -0.243481
 C   -4.881981   -0.147909   -0.842546
 C   -5.506660    1.068271   -1.073343
 C   -4.879566    2.248004   -0.711087
 C   -3.628343    2.240284   -0.112691
 C   -3.010705    1.022195    0.121821
 O   -1.804515    0.822670    0.718434
 C   -0.875096    1.886885    0.786663
 C    0.549623    1.319229    0.908342
 O    1.355374    1.813992    1.659875
 N    0.772130    0.268416    0.084397
 C    1.987989   -0.426022   -0.002357
 C    3.201292    0.236333   -0.205052
Cl    3.251001    1.933097   -0.473461
 C    4.382413   -0.502260   -0.249221
Cl    5.884266    0.305852   -0.478825
 C    4.361548   -1.882005   -0.132710
 C    3.149399   -2.536119    0.007325
 C    1.972984   -1.816295    0.073607
 H   -1.818346   -1.216789    2.011094
 H   -4.155431   -3.081942    0.333086
 H   -5.349269   -1.074976   -1.138969
 H   -6.478309    1.095067   -1.541345
 H   -5.367398    3.193310   -0.894734
 H   -3.155156    3.168391    0.167667
 H   -1.069479    2.522918    1.658544
 H   -0.915549    2.499023   -0.122893
 H   -0.030976   -0.241309   -0.287129
 H    5.288679   -2.430546   -0.171309
 H    3.126665   -3.612526    0.071003
 H    1.021433   -2.315724    0.170935
