75 
4djh_ligand_xtb.xyz
 C    3.372070   -0.318545   -1.963443
 N    1.965180   -0.039447   -1.609880
 C    1.845505    1.160562   -0.746894
 C    2.417995    0.791546    0.620778
 C    3.792039    0.173540    0.480503
 C    4.636583    0.123753    1.584099
 C    5.889568   -0.445444    1.501087
 C    6.333123   -0.987224    0.293935
 O    7.532549   -1.554615    0.136199
 C    5.486278   -0.945136   -0.813479
 C    4.230079   -0.371688   -0.723014
 C    0.355332    1.525919   -0.702447
 O   -0.409453    0.872700   -1.413021
 N    0.000839    2.491177    0.131164
 C   -1.314059    3.007993    0.529147
 C   -1.222571    4.553649    0.645088
 C   -0.189465    4.965923    1.695687
 C   -0.914324    5.221072   -0.693279
 C   -2.487629    2.614406   -0.376442
 N   -2.799744    1.167253   -0.387517
 C   -3.056183    0.578218    0.952769
 C   -4.056752   -0.588226    0.948427
 C   -3.945399   -1.282772    2.306142
 C   -3.885014   -1.553670   -0.258963
 C   -3.762700   -0.719007   -1.566469
 C   -3.863928    0.785484   -1.342187
 C   -5.173867   -2.380387   -0.379566
 C   -2.665242   -2.447393   -0.039868
 C   -1.372391   -1.972384   -0.247272
 C   -0.264849   -2.764489    0.012388
 O    0.997635   -2.213426   -0.194160
 C   -0.411749   -4.058249    0.478115
 C   -1.690865   -4.543479    0.676030
 C   -2.798307   -3.751217    0.428699
 H    3.426682   -1.267105   -2.501351
 H    3.735953    0.467863   -2.632795
 H    1.566135   -0.862284   -1.082919
 H    1.374914    0.080229   -2.443722
 H    2.424947    1.974709   -1.197883
 H    1.748275    0.079095    1.115076
 H    2.492778    1.671994    1.260049
 H    4.306486    0.540489    2.523081
 H    6.529754   -0.467412    2.370167
 H    8.059106   -1.527128    0.946162
 H    5.839487   -1.362437   -1.742258
 H    0.737398    2.975535    0.629980
 H   -1.500320    2.620929    1.540351
 H   -2.200360    4.898156    0.991864
 H   -0.307368    4.400061    2.617024
 H    0.831321    4.856338    1.332676
 H   -0.324878    6.016142    1.936326
 H   -0.747378    6.282032   -0.534111
 H   -0.015801    4.806449   -1.145187
 H   -1.737287    5.124354   -1.395185
 H   -2.268456    2.909057   -1.404696
 H   -3.369115    3.162826   -0.037074
 H   -1.933214    0.743634   -0.796458
 H   -2.108134    0.230278    1.368707
 H   -3.458665    1.357075    1.603989
 H   -5.067733   -0.178157    0.879072
 H   -2.969640   -1.743403    2.437561
 H   -4.100875   -0.563246    3.106285
 H   -4.700755   -2.053472    2.409625
 H   -4.556157   -1.011150   -2.253233
 H   -2.822365   -0.938105   -2.073681
 H   -3.700601    1.309614   -2.285228
 H   -4.835960    1.081373   -0.947234
 H   -5.069818   -3.128899   -1.160319
 H   -6.005006   -1.729020   -0.639902
 H   -5.433403   -2.880105    0.547148
 H   -1.179927   -0.991058   -0.643787
 H    1.654846   -2.888813    0.021291
 H    0.451764   -4.675524    0.677578
 H   -1.826171   -5.551987    1.031628
 H   -3.769895   -4.175608    0.605444
