77 
4djo_ligand_xtb.xyz
 C   -3.643600    6.457232    0.715641
 O   -2.667944    5.781364   -0.045439
 C   -2.125383    4.643988    0.442859
 C   -1.148856    4.042104   -0.359858
 C   -0.526599    2.879677    0.042920
 C   -2.470263    4.056021    1.660243
 C   -1.846463    2.885955    2.056451
 C   -0.882408    2.308557    1.255385
 S   -0.141562    0.783686    1.803732
 O    1.155530    0.662105    1.177680
 O   -0.168496    0.715305    3.233909
 N   -1.093449   -0.448995    1.220396
 C   -2.162894   -0.942680    2.060745
 C   -2.167114   -2.478967    2.080877
 C   -0.911538   -2.972623    2.797281
 C   -3.451116   -2.990899    2.739445
 C   -3.583783   -4.507856    2.671137
 C   -1.328793   -0.434625   -0.208170
 C   -0.132116   -1.054220   -0.949413
 O   -0.053195   -2.441059   -0.732230
 C   -0.169100   -0.770907   -2.469393
 C   -0.896731   -1.859672   -3.264391
 C   -2.334963   -1.967715   -2.844724
 C   -2.772301   -3.040073   -2.077468
 C   -4.086972   -3.111396   -1.649776
 C   -4.983613   -2.112681   -1.989502
 C   -4.560060   -1.046334   -2.765150
 C   -3.245022   -0.975177   -3.189345
 N    1.188588   -0.628958   -2.958674
 C    1.869588    0.513012   -2.684044
 O    1.355099    1.573322   -2.411107
 O    3.194235    0.302085   -2.798551
 C    4.080825    1.390030   -2.573106
 C    3.899377    2.064504   -1.199235
 N    3.611047    1.101985   -0.160245
 C    4.535799    0.227139    0.262510
 O    5.689768    0.204299   -0.092464
 C    3.943089   -0.773917    1.271742
Cl    3.080029   -2.007901    0.334985
Cl    5.214817   -1.517623    2.236094
 H   -4.531823    5.837342    0.870789
 H   -3.914697    7.334063    0.130291
 H   -3.246177    6.776939    1.683452
 H   -0.893926    4.509043   -1.297093
 H    0.229966    2.421681   -0.575788
 H   -3.214322    4.498804    2.302375
 H   -2.087455    2.420434    2.998970
 H   -1.968467   -0.565502    3.065161
 H   -3.131713   -0.557504    1.714531
 H   -2.150689   -2.830930    1.043529
 H   -0.727537   -4.024152    2.594883
 H   -1.012698   -2.834915    3.871565
 H   -0.047701   -2.396782    2.470591
 H   -3.474365   -2.669016    3.782759
 H   -4.308274   -2.538733    2.233660
 H   -3.511697   -4.849149    1.640907
 H   -2.803866   -4.993385    3.250452
 H   -4.546354   -4.819577    3.069844
 H   -1.483326    0.592758   -0.559980
 H   -2.227160   -1.014456   -0.422927
 H    0.767334   -0.567026   -0.552417
 H    0.151471   -2.584270    0.198639
 H   -0.650595    0.199133   -2.628469
 H   -0.389595   -2.808605   -3.093167
 H   -0.830131   -1.604888   -4.323926
 H   -2.070286   -3.812975   -1.804474
 H   -4.414421   -3.948896   -1.050835
 H   -6.009639   -2.167607   -1.656340
 H   -5.257574   -0.269003   -3.041466
 H   -2.920675   -0.142293   -3.796509
 H    1.743102   -1.472923   -2.986568
 H    3.960330    2.140477   -3.361503
 H    5.069830    0.933375   -2.635092
 H    3.074723    2.774560   -1.232219
 H    4.832343    2.583645   -0.961058
 H    2.660900    1.034814    0.188109
 H    3.210558   -0.308001    1.934563
