35 
4dju_ligand_xtb.xyz
 O    0.308638    1.029851    2.153899
 C    0.492318    1.167171    0.969534
 C    0.093730    0.204599   -0.156851
 N    0.491792    0.954000   -1.329444
 C    1.164831    2.093137   -1.024930
 N    1.085608    2.235996    0.375440
 N    1.708553    2.842294   -1.879282
 C    1.594698    3.368122    1.104594
 C    0.829496   -1.123226   -0.102132
 C    0.436896   -2.127549   -0.980266
 C    1.105912   -3.336928   -1.003009
 C    2.173695   -3.555095   -0.148067
 C    2.567967   -2.558551    0.726607
 C    1.903065   -1.343616    0.747942
 C   -1.406768   -0.007034   -0.070583
 C   -1.911857   -0.813895    0.941101
 C   -3.276175   -1.005762    1.057206
 C   -4.143735   -0.396139    0.165801
 C   -3.641794    0.414494   -0.837232
 C   -2.277038    0.615101   -0.953606
 H    0.603956    0.522736   -2.229895
 H    2.144761    3.675928   -1.506630
 H    2.675904    3.455517    0.973790
 H    1.112648    4.287376    0.765790
 H    1.368239    3.205010    2.157487
 H   -0.402720   -1.958994   -1.639794
 H    0.792355   -4.110906   -1.687773
 H    2.695174   -4.500489   -0.163263
 H    3.398177   -2.723621    1.397073
 H    2.214397   -0.576627    1.440507
 H   -1.232578   -1.280245    1.638154
 H   -3.663256   -1.632623    1.846549
 H   -5.208933   -0.549545    0.255601
 H   -4.313740    0.897208   -1.531691
 H   -1.886617    1.255465   -1.730756
