49 
4djv_ligand_dft.xyz
 O    3.315205    0.192978   -1.939408
 C    3.219566   -0.047017   -0.757706
 C    1.949813    0.049950    0.115197
 N    2.488640   -0.258594    1.435338
 C    3.788938   -0.718833    1.375556
 N    4.232517   -0.475387    0.064526
 N    4.406746   -1.243697    2.353503
 C    5.586544   -0.696214   -0.383689
 C    1.389021    1.469765    0.023675
 C    0.831521    1.907399   -1.181927
 C    0.278967    3.177920   -1.277089
 C    0.275581    4.025834   -0.169780
 C    0.839613    3.597094    1.025970
 C    1.399122    2.323623    1.122279
 C    0.906945   -0.991360   -0.302683
 C    1.259660   -2.176213   -0.948574
 C    0.281567   -3.118935   -1.249313
 C   -1.049500   -2.887165   -0.921463
 C   -1.421171   -1.707425   -0.270137
 C   -0.425243   -0.780560    0.043485
 C   -5.498170   -0.775203    0.654135
 C   -3.305441   -0.092019   -0.096916
 C   -2.838350   -1.405480    0.053396
 C   -3.710292   -2.396116    0.502019
 C   -5.034484   -2.073057    0.796304
 C   -4.626833    0.224313    0.207619
 O   -5.157518    1.468053    0.093937
 C   -4.303246    2.516995   -0.306352
 H    1.892823   -0.710055    2.114353
 H    5.356160   -1.507836    2.101423
 H    5.853915   -1.755220   -0.304995
 H    5.637884   -0.388506   -1.428910
 H    6.286079   -0.099232    0.209033
 H    0.834543    1.246783   -2.042769
 H   -0.149695    3.508763   -2.218517
 H   -0.161726    5.017234   -0.243862
 H    0.847082    4.253084    1.891556
 H    1.844988    1.986715    2.052094
 H    2.290022   -2.363582   -1.235476
 H    0.557794   -4.033179   -1.765824
 H   -1.809934   -3.610368   -1.201242
 H   -0.699443    0.131573    0.564528
 H   -6.525280   -0.509988    0.881068
 H   -2.627848    0.664483   -0.476490
 H   -3.351182   -3.410422    0.647355
 H   -5.711314   -2.844675    1.151129
 H   -3.912161    2.356161   -1.319196
 H   -4.913077    3.421241   -0.296354
 H   -3.461226    2.638748    0.387254
