46 
4djy_ligand_xtb.xyz
 C    2.658071   -0.292585    0.090837
 N    2.543368    0.351732   -1.193966
 C    3.219726    1.541271   -1.246284
 N    3.694456    1.786792    0.036843
 C    3.440045    0.763942    0.888679
 C    3.469100   -1.587373    0.063882
 O    3.783434    0.696066    2.043907
 C    1.309988   -0.557396    0.740577
 C    0.136783   -0.456048    0.010944
 C   -1.095907   -0.720320    0.601366
 C   -1.141149   -1.082192    1.943923
 C    0.028453   -1.178909    2.674768
 C    1.250958   -0.923054    2.080472
 N    3.425169    2.350074   -2.192540
 C    4.409381    2.985513    0.386566
 C    4.454211   -1.863558   -1.029638
 C    3.176875   -2.645744   -0.955053
 C   -2.326350   -0.628059   -0.194348
 C   -3.481547   -0.043471    0.312803
 C   -4.623805    0.016168   -0.483882
 C   -4.548490   -0.521884   -1.773198
 C   -2.383240   -1.137416   -1.493560
 C   -5.820172    0.604382   -0.015534
 N   -3.458885   -1.083802   -2.256608
 C   -6.845224    1.101480    0.371001
 C   -8.074082    1.699134    0.836041
 H    2.300949   -0.159680   -2.024631
 H    3.731029   -1.912233    1.062207
 H    0.164232   -0.142115   -1.021605
 H   -2.091337   -1.302409    2.408061
 H   -0.010850   -1.458199    3.717068
 H    2.157262   -0.977982    2.661565
 H    3.033922    2.070636   -3.084149
 H    3.728401    3.837295    0.400473
 H    5.185843    3.170006   -0.354243
 H    4.842334    2.838182    1.374309
 H    4.570121   -1.136293   -1.819929
 H    5.376837   -2.358082   -0.768012
 H    3.219211   -3.678043   -0.644388
 H    2.409370   -2.455558   -1.690773
 H   -3.493081    0.379803    1.307407
 H   -5.405431   -0.494161   -2.433126
 H   -1.524575   -1.629812   -1.931601
 H   -8.862968    1.556465    0.097811
 H   -8.379815    1.239403    1.775924
 H   -7.929427    2.767375    0.998091
