40 
4dk7_ligand_xtb.xyz
 C    1.587181   -0.491721    0.506198
 C    0.989320   -1.108735   -0.587718
 C    0.833459   -0.266347    1.650728
 C   -0.332854   -1.496845   -0.528315
 C   -0.493052   -0.643087    1.707239
 C   -1.105425   -1.254560    0.611035
 N   -2.440206   -1.643270    0.631748
 S   -3.436653   -1.159720   -0.666954
 O   -4.743222   -1.668983   -0.385801
 O   -2.816930   -1.520559   -1.901465
 C   -3.409957    0.616362   -0.456750
 C   -2.329396    1.333587   -0.933638
 C   -4.418807    1.219355    0.268677
 C   -4.347005    2.580393    0.518870
 C   -2.259259    2.692646   -0.674556
 C   -3.265137    3.311130    0.052546
 C   -3.142974   -1.675894    1.894015
 C    3.022952    0.008055    0.483738
 C    3.019218    1.446667   -0.086217
 C    3.953215   -0.883579   -0.379094
 F    4.240425    1.944361   -0.261051
 F    2.364765    2.271724    0.731977
 F    2.395775    1.507910   -1.268652
 F    5.236778   -0.629506   -0.124759
 F    3.782140   -0.756278   -1.694406
 F    3.756950   -2.177460   -0.075051
 O    3.594659    0.121422    1.755398
 H    1.541055   -1.295233   -1.494099
 H    1.284961    0.228826    2.497214
 H   -0.789597   -1.975056   -1.377397
 H   -1.047331   -0.442207    2.608588
 H   -1.568775    0.827827   -1.506258
 H   -5.247531    0.618395    0.608800
 H   -5.131456    3.067804    1.077488
 H   -1.420533    3.265391   -1.038498
 H   -3.207469    4.370299    0.253204
 H   -3.298033   -0.676705    2.316050
 H   -4.111442   -2.129951    1.699699
 H   -2.590214   -2.292457    2.601563
 H    3.577825   -0.734882    2.204553
