44 
4dkq_ligand_dft.xyz
 C    0.967966   -0.481123   -0.132215
 C    3.396740    0.041243   -0.078281
 C    6.143735   -0.441207    0.093548
 C    5.657389    0.853991   -0.059724
 C    4.300285    1.104463   -0.145948
 C   -5.001195   -2.943176   -1.307670
 C   -4.083314   -1.911730   -1.501576
 C   -3.756774   -1.100456   -0.423172
 C   -4.323232   -1.308978    0.836474
 C   -5.237387   -2.336956    1.028857
 C   -5.573049   -3.151024   -0.052843
 C   -2.783775    0.053836   -0.370645
 C   -3.237684    0.818130    0.913153
 C   -3.788511   -0.297430    1.825074
 N   -4.293021    1.769364    0.638228
 N   -1.426728   -0.467082   -0.245927
 C   -0.344295    0.316774   -0.257603
 N    2.031854    0.352419   -0.167479
 O    0.966542   -1.696531   -0.017682
 O   -0.335308    1.540440   -0.354967
 C    3.868125   -1.265891    0.074011
 C    5.236609   -1.491655    0.158610
Cl    7.853466   -0.721767    0.200377
 F    6.505857    1.879813   -0.125637
 C   -4.039784    2.941017   -0.082862
 N   -2.925596    3.422914   -0.471152
 N   -5.233366    3.610247   -0.373780
 H    3.966323    2.130155   -0.265766
 H   -5.278039   -3.584044   -2.139116
 H   -3.638176   -1.742401   -2.478092
 H   -5.689632   -2.503158    2.002634
 H   -6.293365   -3.952496    0.081909
 H   -2.824403    0.711622   -1.244740
 H   -2.400765    1.355198    1.365135
 H   -2.981525   -0.736660    2.423803
 H   -4.541109    0.087578    2.518971
 H   -5.177449    1.341285    0.389047
 H   -1.263210   -1.462809   -0.157458
 H    1.766118    1.327689   -0.269274
 H    3.169855   -2.089391    0.124591
 H    5.610656   -2.502585    0.278018
 H   -2.133812    2.798529   -0.323490
 H   -5.855272    3.694855    0.421333
 H   -5.030783    4.513080   -0.784365
