44 
4dkr_ligand_dft.xyz
 C   -0.967966   -0.481122   -0.132220
 C    2.783776    0.053835   -0.370646
 C    3.788509   -0.297429    1.825075
 C    5.237384   -2.336956    1.028863
 C    5.573047   -3.151026   -0.052835
 C    4.083315   -1.911733   -1.501572
 C   -5.236607   -1.491656    0.158602
 C   -6.143735   -0.441208    0.093548
 C   -5.657389    0.853991   -0.059718
 C   -4.300285    1.104464   -0.145943
 C   -3.396740    0.041244   -0.078285
 C   -3.868124   -1.265891    0.074000
Cl   -7.853464   -0.721768    0.200380
 F   -6.505857    1.879814   -0.125622
 N   -2.031854    0.352420   -0.167486
 O   -0.966543   -1.696529   -0.017685
 C    0.344295    0.316775   -0.257610
 N    1.426729   -0.467082   -0.245931
 O    0.335309    1.540440   -0.354978
 C    3.237683    0.818130    0.913152
 C    4.323230   -1.308978    0.836476
 C    3.756774   -1.100457   -0.423170
 N    4.293020    1.769364    0.638227
 C    5.001196   -2.943179   -1.307663
 C    4.039785    2.941018   -0.082862
 N    5.233367    3.610248   -0.373778
 N    2.925597    3.422915   -0.471154
 H    2.824406    0.711620   -1.244743
 H    4.541106    0.087581    2.518972
 H    2.981521   -0.736656    2.423804
 H    5.689628   -2.503158    2.002640
 H    6.293362   -3.952499    0.081919
 H    3.638178   -1.742405   -2.478089
 H   -5.610655   -2.502586    0.278006
 H   -3.966324    2.130157   -0.265756
 H   -3.169854   -2.089391    0.124574
 H   -1.766119    1.327690   -0.269282
 H    1.263210   -1.462809   -0.157458
 H    2.400763    1.355199    1.365132
 H    5.177448    1.341285    0.389048
 H    5.278040   -3.584049   -2.139108
 H    5.855271    3.694857    0.421337
 H    5.030784    4.513080   -0.784363
 H    2.133812    2.798530   -0.323493
