42 
4dkt_ligand_dft.xyz
 N    0.385422   -2.758156    1.002301
 C   -0.575719   -1.930700    0.221841
 C   -0.387572   -0.504689    0.780062
 O    0.037550   -0.376862    1.927700
 C   -2.015781   -2.425625    0.364030
 C   -2.893439   -1.806429   -0.709638
 O   -4.174917   -2.082252   -0.512382
 O   -2.465929   -1.163169   -1.642028
 N   -0.651234    0.493407   -0.065606
 C   -0.456439    1.884468    0.289420
 C   -1.827078    2.579552    0.229345
 O   -2.744325    2.082966   -0.398848
 C    0.523545    2.571766   -0.693219
 C    1.768520    1.748164   -1.034410
 C    2.792890    1.574174    0.097759
 N    3.754269    0.522389   -0.217118
 C    3.466648   -0.802986   -0.127397
 C    4.324252   -1.721097   -0.950626
 N    2.521238   -1.280863    0.617764
 N   -1.898718    3.776187    0.856255
 H    0.290352   -3.757932    0.822213
 H    1.410328   -2.387933    0.775080
 H    0.249975   -2.561717    2.000761
 H   -0.266505   -1.973998   -0.824185
 H   -2.427041   -2.195475    1.352472
 H   -2.073137   -3.514461    0.239967
 H   -4.688976   -1.658698   -1.221406
 H   -1.189053    0.292647   -0.906156
 H   -0.061786    1.897340    1.308831
 H   -0.015513    2.772738   -1.626254
 H    0.801587    3.548844   -0.281436
 H    2.269874    2.215809   -1.889082
 H    1.451974    0.753677   -1.367579
 H    2.304986    1.344537    1.050568
 H    3.350679    2.499383    0.265430
 H    4.496696    0.776439   -0.852898
 H    4.153132   -1.551071   -2.018735
 H    4.100802   -2.760454   -0.710730
 H    5.384195   -1.537937   -0.747041
 H    2.084874   -0.557624    1.186822
 H   -2.774677    4.277975    0.832856
 H   -1.167591    4.122109    1.456813
