46 
4dlj_ligand_xtb.xyz
 N    0.336527    0.119599   -0.401530
 C    1.129530    1.175324   -0.151782
 N    2.418907    1.128280    0.079423
 C    3.015348   -0.083481    0.051316
 C    2.279823   -1.271641   -0.213414
 C    0.879318   -1.082448   -0.432403
 N    6.388571   -1.471605    0.547173
 C   -6.160028   -0.855827    0.112365
 C   -0.781913    4.966348   -0.051500
 C   -5.207501    0.129615    0.309760
 C   -5.776060   -2.185475    0.085976
 C    0.564076    4.858263    0.261763
 C   -1.502305    3.836003   -0.403112
 C   -3.878380   -0.213719    0.478613
 C   -4.445650   -2.526773    0.253905
 C    1.188531    3.626473    0.227544
 C   -0.881566    2.602288   -0.440313
 C    4.310651   -2.550294   -0.013934
 C    2.963677   -2.496847   -0.240840
 C    4.394918   -0.161649    0.282256
 C   -1.367566   -1.942602   -0.797411
 C   -2.033721   -1.904942    0.590120
 N    0.059669   -2.122424   -0.720600
 C    5.048350   -1.377162    0.254699
 C   -3.483539   -1.545550    0.454504
 C    0.469470    2.486071   -0.122608
 H    6.869507   -2.300830    0.240739
 H    6.923249   -0.620367    0.498977
 H   -7.198474   -0.588946   -0.018287
 H   -1.268603    5.930759   -0.022867
 H   -5.501886    1.168735    0.333973
 H   -6.515025   -2.959016   -0.065541
 H    1.125607    5.740570    0.534187
 H   -2.551264    3.919788   -0.650133
 H   -3.136777    0.555763    0.637872
 H   -4.151732   -3.567110    0.234733
 H    2.234437    3.520879    0.469185
 H   -1.426597    1.713962   -0.719132
 H    4.830569   -3.497803   -0.037864
 H    2.431841   -3.414280   -0.453112
 H    4.931775    0.753126    0.479671
 H   -1.544328   -0.990321   -1.300552
 H   -1.790296   -2.751695   -1.398195
 H   -1.516436   -1.153029    1.188172
 H   -1.923356   -2.878183    1.074391
 H    0.399294   -3.050834   -0.530495
