40 
4dmn_ligand_dft.xyz
Cl    0.869091    5.517996    0.038776
 C    0.723264    3.777453    0.005850
 C    0.932115    3.052190    1.173604
 C    0.817598    1.666599    1.140656
 C    0.402691    3.141000   -1.188205
 C    0.288887    1.755334   -1.207086
 C    0.498471    1.005824   -0.047458
 C    0.370333   -0.479793   -0.078613
 C    1.468888   -1.307786   -0.127694
 C    2.867142   -0.722757   -0.209922
 O    3.455703   -1.104779   -1.419039
 C    4.532518   -0.281498   -1.820161
 C    3.729866   -1.113156    0.994805
 O    4.818052   -1.626563    0.951355
 O    3.125155   -0.767183    2.148206
 C   -0.932568   -1.064035   -0.059996
 C   -2.123654   -0.297208   -0.000737
 C   -3.336093   -0.933139    0.000173
Br   -4.930296    0.088787    0.072872
 C   -3.436005   -2.340680   -0.052786
 C   -2.292477   -3.093427   -0.102099
 C   -1.016661   -2.476042   -0.104630
 N    0.081017   -3.278509   -0.143226
 C    1.273236   -2.730484   -0.146903
 C    2.440593   -3.682285   -0.149391
 H    1.179973    3.564982    2.096449
 H    0.991287    1.088678    2.042891
 H    0.243584    3.721224   -2.090389
 H    0.038114    1.248584   -2.134169
 H    2.782631    0.372708   -0.158337
 H    5.362564   -0.326090   -1.107173
 H    4.867576   -0.662118   -2.786345
 H    4.203381    0.761711   -1.938567
 H    3.733453   -1.015515    2.863230
 H   -2.072141    0.784575    0.045269
 H   -4.413482   -2.809929   -0.051108
 H   -2.329528   -4.176865   -0.140176
 H    2.894635   -3.738277    0.847367
 H    2.077767   -4.677768   -0.409244
 H    3.218727   -3.368280   -0.847450
