39 
4dmw_ligand_xtb.xyz
 N   -0.888330    1.441640    0.809357
 C   -0.178584    2.200670   -0.093919
 N    1.131080    2.410563    0.234189
 C    1.814979    1.855305    1.304477
 C    0.955338    1.274888    2.295262
 C   -0.337749    1.053535    1.991357
 O   -0.669823    2.662049   -1.105844
 O    3.038422    1.879604    1.314241
 C   -2.273074    1.072596    0.467191
 C   -2.385127    0.513545   -0.978987
 O   -2.953449    1.412525   -1.877813
 C   -3.303381   -0.709875   -0.802065
 C   -3.026357   -1.117557    0.650033
 O   -2.744981    0.097596    1.336461
 O   -4.650629   -0.376143   -0.956266
 C   -1.893267   -2.143755    0.775428
 O   -0.805265   -1.817501   -0.075553
 P    0.679159   -1.799418    0.534658
 O    1.435206   -2.993383   -0.130268
 O    0.720270   -1.730089    1.984340
 O    1.227402   -0.467761   -0.214749
 P    2.544500   -0.411778   -1.157888
 O    2.277572    0.932444   -1.956435
 O    2.658970   -1.608507   -1.992000
 O    3.744789   -0.127671   -0.225253
 H    1.691164    2.860303   -0.483895
 H    1.384670    0.918269    3.213624
 H   -1.011500    0.536974    2.656991
 H   -2.892795    1.979013    0.566246
 H   -1.395128    0.176242   -1.310744
 H   -2.328517    2.152394   -1.968627
 H   -3.024234   -1.511319   -1.498343
 H   -3.928446   -1.527959    1.112682
 H   -4.692878    0.360972   -1.583575
 H   -1.540412   -2.179297    1.809855
 H   -2.269842   -3.127464    0.482188
 H    1.901764   -2.752356   -0.959448
 H    1.915899    0.760884   -2.825633
 H    3.671581    0.654445    0.372750
