70 
4dn0_ligand_xtb.xyz
 P    2.278332   -0.334189   -2.598414
 O    1.888354   -1.735756   -2.669793
 O    2.825612    0.314886   -3.939678
 O    1.090040    0.617504   -2.142509
 C    1.210558    2.028256   -2.275898
 C   -0.052286    2.714185   -1.759676
 O   -1.177973    2.374851   -2.559455
 C   -0.452734    2.357144   -0.320222
 O    0.199522    3.160484    0.629683
 C   -1.962374    2.646345   -0.351773
 O   -2.217479    4.017936   -0.283441
 C   -2.304779    2.132590   -1.759072
 N   -2.595096    0.714445   -1.702195
 C   -1.960147   -0.312160   -2.351549
 N   -2.397529   -1.483673   -2.007719
 C   -3.385834   -1.246230   -1.085445
 C   -4.146316   -2.149110   -0.276257
 O   -4.078604   -3.363920   -0.219953
 N   -5.013231   -1.448312    0.566948
 C   -5.051528   -0.093000    0.710113
 N   -5.932063    0.415184    1.604684
 N   -4.337883    0.731888   -0.006471
 C   -3.513605    0.125602   -0.883739
 P    0.747253    2.446537    1.968343
 O   -0.477445    1.597140    2.446507
 O    1.367112    3.416155    2.855576
 O    1.755342    1.322340    1.385615
 C    3.083315    1.751480    1.155687
 C    3.926611    0.538546    0.767490
 O    4.158398   -0.296240    1.895378
 C    3.225659   -0.361062   -0.265780
 O    3.510502   -0.003739   -1.599930
 C    3.706960   -1.760260    0.149860
 O    5.047605   -1.988647   -0.184446
 C    3.604817   -1.566642    1.668128
 N    2.215354   -1.576726    2.099030
 C    1.738101   -0.858595    3.164815
 N    0.441770   -0.816969    3.224479
 C    0.002092   -1.563487    2.154650
 C   -1.323373   -1.888245    1.704597
 O   -2.402198   -1.554245    2.156434
 N   -1.259719   -2.694250    0.560059
 C   -0.140150   -2.950185   -0.172477
 N   -0.295680   -3.533325   -1.374076
 N    1.067011   -2.679062    0.261491
 C    1.103780   -2.021127    1.432402
 H    3.132231   -0.366872   -4.536965
 H    2.074872    2.386758   -1.708985
 H    1.345863    2.277452   -3.331200
 H    0.108959    3.801957   -1.816899
 H   -0.272572    1.294075   -0.131535
 H   -2.511034    2.103514    0.426758
 H   -1.668585    4.384392    0.424281
 H   -3.166265    2.667936   -2.178579
 H   -1.177032   -0.139196   -3.059738
 H   -5.530937   -2.028677    1.216358
 H   -6.219375   -0.161544    2.377572
 H   -5.828437    1.399311    1.790114
 H   -0.270426    0.776584    2.958015
 H    3.102845    2.495743    0.352300
 H    3.476562    2.211135    2.066243
 H    4.897406    0.876134    0.383947
 H    2.143821   -0.317940   -0.109720
 H    3.048196   -2.547937   -0.228112
 H    5.149005   -1.818403   -1.128681
 H    4.195700   -2.291622    2.237444
 H    2.396596   -0.374284    3.857352
 H   -2.143867   -3.055592    0.206306
 H   -1.194197   -3.388262   -1.819932
 H    0.513446   -3.448545   -1.973932
