31 
4do4_ligand_xtb.xyz
 O   -1.711751   -1.495412   -0.715622
 C   -2.537151   -0.785323   -0.139402
 C   -4.005047   -1.032078   -0.272925
 N   -2.173908    0.243083    0.650896
 C   -0.812862    0.739587    0.832279
 C   -0.262751    1.363477   -0.488434
 O   -0.439504    2.755165   -0.501381
 C    1.262071    1.132425   -0.598199
 O    1.924211    1.713976    0.492497
 C    1.563677   -0.371760   -0.656600
 C    3.001972   -0.703687   -0.231495
 O    3.031765   -2.098557   -0.003545
 N    0.642048   -1.129469    0.229269
 C    0.144883   -0.337161    1.364808
 H   -4.608961   -0.274697    0.215932
 H   -4.235715   -2.008875    0.150112
 H   -4.260447   -1.082044   -1.329994
 H   -2.908499    0.769140    1.097706
 H   -0.867183    1.542333    1.572177
 H   -0.752308    0.891203   -1.350186
 H   -1.338857    2.995877   -0.745143
 H    1.603005    1.597449   -1.533691
 H    1.718846    2.657878    0.494467
 H    1.401450   -0.736643   -1.674459
 H    3.259924   -0.153466    0.680497
 H    3.690080   -0.405321   -1.026952
 H    3.941600   -2.393935    0.098055
 H    1.177129   -1.961202    0.520262
 H   -0.264400   -1.420600   -0.302300
 H    0.981851    0.143839    1.873437
 H   -0.381006   -0.990486    2.063138
