25 
4do5_ligand_xtb.xyz
 C    0.403179    1.695343    0.152908
 C    1.582073    0.715118    0.272445
 O    2.703251    1.415874   -0.188880
 C    1.328828   -0.573128   -0.560310
 O    2.243244   -1.578771   -0.200323
 C   -0.071922   -1.142669   -0.242350
 O   -0.172026   -1.448534    1.127966
 C   -1.141377   -0.087776   -0.521151
 N   -0.867879    1.013861    0.437147
 C   -2.574836   -0.563984   -0.257919
 O   -3.354600    0.610632   -0.163767
 H    0.392647    2.101506   -0.860920
 H    0.559960    2.520946    0.848729
 H    1.706334    0.411615    1.322731
 H    3.517945    1.010042    0.127136
 H    1.395740   -0.329577   -1.627597
 H    3.071874   -1.479809   -0.679961
 H   -0.238043   -2.037324   -0.855944
 H    0.525910   -2.081210    1.343781
 H   -1.061720    0.305655   -1.537313
 H   -1.690246    1.636777    0.421632
 H   -0.815027    0.546704    1.358374
 H   -2.610018   -1.135260    0.678507
 H   -2.903611   -1.207178   -1.079469
 H   -4.291218    0.389055   -0.181425
