32 
4dpt_ligand_xtb.xyz
 O    0.523446   -1.777357    1.762187
 O   -1.779441   -2.494660    0.661557
 O   -1.946000    2.211888    1.453961
 O    0.865463   -1.664536   -0.433862
 O    3.569165    1.529462    0.481880
 O   -3.594929   -1.033515   -0.389915
 O   -1.499767   -1.379015   -1.661061
 O   -3.059450    1.552291   -0.781385
 F    4.760771   -0.796217   -0.453348
 C    3.640622   -0.305337   -1.087586
 C    0.698608    1.958113    0.057169
 C    1.633827    1.146075   -0.835095
 C    2.339549   -0.469934    1.052270
 O   -0.565243    2.107104   -0.605137
 O   -1.451358   -0.003415    0.472036
 C    1.166678   -1.360970    0.704409
 C    2.795792    0.488611   -0.074390
 P   -2.084139   -1.355780   -0.200240
 P   -1.852743    1.494652    0.039495
 H   -0.313306   -2.252357    1.496944
 H   -2.821404    2.162421    1.836048
 H    4.409664    1.161885    0.785504
 H   -3.710264   -0.146876   -0.780066
 H   -0.597341   -1.725181   -1.632516
 H    3.084912   -1.158800   -1.479923
 H    3.997213    0.338592   -1.895670
 H    0.544176    1.466630    1.017283
 H    1.094990    2.959951    0.230093
 H    1.052586    0.370932   -1.331856
 H    2.053123    1.801565   -1.598844
 H    2.087961    0.101389    1.946410
 H    3.178441   -1.122590    1.315146
