65 
4dq2_ligand_dft.xyz
 P   -0.896852   -2.208228    0.480371
 O   -0.435672   -0.986888   -0.223047
 O   -0.923432   -2.195150    2.052534
 O   -2.368053   -2.690231    0.069807
 C   -3.529073   -2.575236    0.891431
 C   -4.283370   -1.288091    0.629630
 O   -3.549770   -0.192843    1.200172
 C   -4.504059   -0.946751   -0.850707
 O   -5.800241   -0.418106   -0.999584
 C   -3.466196    0.152215   -1.116403
 O   -3.924420    0.961843   -2.161728
 C   -3.444017    0.835580    0.261296
 N   -2.216845    1.564366    0.549628
 C   -1.440501    1.492331    1.676195
 N   -0.446256    2.346956    1.681164
 C   -0.564443    3.006096    0.475081
 C    0.186026    4.017916   -0.145090
 N    1.300214    4.547658    0.425256
 N   -0.180145    4.449571   -1.359154
 C   -1.250185    3.895343   -1.936781
 N   -2.045139    2.941113   -1.456903
 C   -1.656164    2.529614   -0.241065
 C    0.435903   -3.715558   -1.215191
 O   -0.000148   -3.497043    0.141480
 C    1.932008   -3.708013   -1.262658
 C    2.627979   -2.732831   -1.846049
 C    4.125600   -2.639389   -1.898649
 C    4.736049   -1.611262   -0.924069
 C    4.104249   -0.214084   -1.013218
 S    5.289383    1.117942   -0.518142
 C    4.345606    1.589501    0.954192
 C    2.874187    1.304801    0.627124
 N    2.118280    1.000547    1.827768
 C    1.886708   -0.339233    1.912287
 O    1.197841   -0.884633    2.778687
 N    2.571817   -0.969739    0.896073
 C    2.808518   -0.014010   -0.184373
 H   -0.100611   -1.748983    2.420219
 H   -3.253795   -2.643751    1.946790
 H   -4.165731   -3.424905    0.630264
 H   -5.259833   -1.352644    1.123606
 H   -4.349366   -1.818041   -1.499823
 H   -5.727882    0.235736   -1.714052
 H   -2.475801   -0.278555   -1.306433
 H   -3.351392    1.756813   -2.188021
 H   -4.285706    1.538703    0.336182
 H   -1.648178    0.766721    2.448056
 H    1.667107    5.385970   -0.000876
 H    1.412471    4.450568    1.423071
 H   -1.501955    4.275726   -2.922858
 H    0.025939   -4.683713   -1.516586
 H    0.033528   -2.941656   -1.875669
 H    2.443213   -4.535849   -0.771957
 H    2.074265   -1.916596   -2.313262
 H    4.422267   -2.367347   -2.920401
 H    4.567351   -3.620348   -1.690431
 H    4.661426   -1.971755    0.107089
 H    5.802912   -1.530020   -1.152491
 H    3.865648   -0.005278   -2.061475
 H    4.516019    2.646908    1.169850
 H    4.649700    0.998781    1.822421
 H    2.434075    2.139864    0.078116
 H    1.365157    1.609519    2.141732
 H    2.235082   -1.891929    0.648380
 H    1.935497   -0.010120   -0.848014
