83 
4drk_ligand_dft.xyz
 O    3.319910   -2.303538    2.228129
 C    2.282329   -2.005524    2.767850
 O    1.898457   -0.770070    3.077470
 C    1.212245   -3.012069    3.188300
 O    1.225837   -4.174785    2.403329
 C    0.850974   -4.061905    1.099590
 C    0.544090   -2.859643    0.468777
 C    0.777401   -5.262585    0.385234
 C    0.409458   -5.247267   -0.949501
 C    0.122655   -4.042532   -1.594462
 C    0.194084   -2.850750   -0.885131
 C   -0.096326   -1.530415   -1.556241
 C   -1.325157   -0.807848   -1.010680
 C   -2.618425   -1.589935   -1.269435
 C   -3.819861   -0.913487   -0.655210
 C   -4.404611   -1.401244    0.500529
 C   -5.491933   -0.744343    1.087754
 C   -6.002845    0.413928    0.522609
 O   -7.048460    1.129426    1.008112
 C   -7.654280    0.671643    2.192357
 C   -5.413039    0.923565   -0.658369
 O   -5.972257    2.058761   -1.144645
 C   -5.400682    2.623946   -2.300184
 C   -4.338949    0.257938   -1.229153
 O    1.065211   -0.698445   -1.320774
 C    1.394764    0.185331   -2.255864
 O    0.819005    0.344291   -3.306490
 C    2.638092    1.000837   -1.883262
 N    3.140749    0.723725   -0.541373
 C    3.924321   -0.502883   -0.327138
 C    5.014414   -0.660189   -1.379542
 C    4.436762   -0.539696   -2.789154
 C    3.736152    0.809120   -2.939911
 C    2.728171    1.427399    0.525351
 O    3.085062    1.214223    1.689401
 C    1.699601    2.548901    0.308977
 O    0.580844    2.234451   -0.037829
 C    2.110105    3.980687    0.644685
 C    1.243851    4.926298   -0.196935
 C    3.597990    4.177004    0.314042
 C    1.835328    4.164439    2.164500
 C    2.217626    5.532303    2.728575
 H    2.534812   -0.117900    2.698097
 H    1.422990   -3.337617    4.210505
 H    0.228678   -2.527747    3.177651
 H    0.597390   -1.911832    0.992899
 H    1.015925   -6.188112    0.898222
 H    0.353329   -6.182251   -1.498720
 H   -0.147256   -4.034238   -2.646694
 H   -0.197564   -1.668510   -2.636734
 H   -1.381986    0.179723   -1.480577
 H   -1.199138   -0.640613    0.064786
 H   -2.760254   -1.704323   -2.352592
 H   -2.520185   -2.600926   -0.857564
 H   -4.018368   -2.305478    0.963173
 H   -5.930955   -1.153964    1.990277
 H   -8.095471   -0.325811    2.062289
 H   -8.445059    1.387169    2.421500
 H   -6.939967    0.642593    3.026053
 H   -5.471108    1.944542   -3.160116
 H   -4.347940    2.891523   -2.139814
 H   -5.974574    3.527863   -2.508365
 H   -3.880874    0.641386   -2.135291
 H    2.313949    2.043140   -1.930837
 H    4.337903   -0.453377    0.678625
 H    3.237496   -1.355409   -0.353674
 H    5.494167   -1.632822   -1.232467
 H    5.783118    0.109636   -1.232289
 H    5.225750   -0.634849   -3.542036
 H    3.722351   -1.354543   -2.969540
 H    4.469450    1.615922   -2.819488
 H    3.273955    0.920287   -3.924133
 H    1.407275    4.756890   -1.267252
 H    1.496186    5.968953    0.016084
 H    0.181956    4.770495    0.007630
 H    4.238280    3.569570    0.961345
 H    3.880043    5.225649    0.443490
 H    3.809853    3.912327   -0.729517
 H    0.766572    3.984998    2.333491
 H    2.376398    3.383686    2.708632
 H    3.290173    5.727500    2.629529
 H    1.976699    5.571165    3.795483
 H    1.676061    6.348570    2.240184
