91 
4drn_ligand_xtb.xyz
 C    3.204710    0.830711    2.556064
 C    3.695214    0.850312    1.114650
 C    4.927016   -0.042955    0.908465
 C    6.216050    0.690552    1.283649
 C    7.425814   -0.228753    1.158271
 C    7.536213   -0.744366   -0.270928
 C    6.270200   -1.499245   -0.659296
 C    5.038990   -0.565332   -0.533672
 O    5.163265    0.490931   -1.474208
 C    3.842530   -1.403544   -0.960268
 O    3.445226   -1.325421   -2.105065
 C    3.316123   -2.452476    0.005116
 O    4.112985   -3.157369    0.607812
 N    1.986927   -2.616128    0.084457
 C    1.462492   -3.694963    0.905878
 C    0.560634   -4.596304    0.067562
 C   -0.562025   -3.771539   -0.554571
 C    0.037955   -2.642589   -1.387162
 C    0.975449   -1.784653   -0.528795
 C    0.225986   -1.003644    0.554834
 O    0.627739   -0.864535    1.680496
 O   -0.899661   -0.484785    0.086480
 C   -1.586352    0.435187    0.959301
 C   -3.020516    0.574213    0.456261
 C   -3.769056   -0.763065    0.502824
 C   -5.188999   -0.592938    0.042970
 C   -6.185250   -0.273084    0.962972
 C   -5.525638   -0.710879   -1.290813
 C   -6.835288   -0.522467   -1.711671
 C   -7.829863   -0.210510   -0.802493
 O   -9.143425   -0.011108   -1.106922
 C   -9.541219   -0.135648   -2.448281
 C   -7.495419   -0.082854    0.564321
 O   -8.531296    0.224201    1.394818
 C   -8.267801    0.358295    2.767818
 C   -0.825631    1.738245    0.945647
 C   -0.457032    2.276499   -0.277156
 C   -0.406201    2.346750    2.119407
 C    0.386804    3.479191    2.060128
 C    0.783827    4.001097    0.842053
 C    0.356396    3.398586   -0.335980
 O    0.685062    3.879328   -1.585513
 C    2.058405    4.055397   -1.824590
 C    2.826838    2.745080   -1.665612
 O    2.306112    1.659378   -1.654757
 O    4.122993    2.949602   -1.526585
 H    2.359390    1.505357    2.666730
 H    2.873126   -0.167535    2.828036
 H    3.990135    1.141130    3.241070
 H    2.879798    0.517297    0.467762
 H    3.939517    1.877252    0.835790
 H    4.826585   -0.925800    1.546822
 H    6.343683    1.549139    0.620853
 H    6.133264    1.060323    2.306381
 H    8.333478    0.313088    1.430735
 H    7.315345   -1.072699    1.842629
 H    8.393003   -1.412927   -0.370191
 H    7.676238    0.097474   -0.951739
 H    6.124703   -2.359963   -0.008064
 H    6.341455   -1.848074   -1.692312
 H    4.656245    0.192894   -2.254089
 H    0.903099   -3.266803    1.742092
 H    2.317661   -4.247226    1.298415
 H    0.153338   -5.384917    0.701214
 H    1.151822   -5.063788   -0.722487
 H   -1.188514   -3.351875    0.236180
 H   -1.191740   -4.403099   -1.183457
 H   -0.742942   -2.005072   -1.799893
 H    0.617239   -3.060018   -2.212836
 H    1.438920   -1.022759   -1.163780
 H   -1.576852    0.012591    1.972482
 H   -3.531168    1.309785    1.079769
 H   -3.005694    0.947849   -0.567658
 H   -3.252817   -1.475835   -0.142131
 H   -3.752262   -1.148151    1.524972
 H   -5.915531   -0.180908    2.003476
 H   -4.767769   -0.956586   -2.019437
 H   -7.065987   -0.625242   -2.759859
 H   -9.039383    0.597589   -3.088919
 H   -9.351873   -1.143248   -2.834176
 H  -10.613114    0.055755   -2.455474
 H   -7.884247   -0.572972    3.198843
 H   -9.224764    0.598840    3.228184
 H   -7.558228    1.168938    2.966532
 H   -0.753367    1.805601   -1.200702
 H   -0.678208    1.923287    3.074261
 H    0.717079    3.951673    2.973424
 H    1.419613    4.873161    0.813078
 H    2.144979    4.387339   -2.863278
 H    2.515277    4.814453   -1.177553
 H    4.600851    2.075961   -1.416760
