27 
4dst_ligand_dft.xyz
 C   -2.856309    2.719646   -0.251662
Cl   -0.119545   -2.633506   -0.589602
 C   -1.621087    1.866509   -0.216761
Cl    4.321164    0.321863    0.291078
 C   -1.584466    0.466843   -0.410028
 C   -0.197064    0.127367   -0.306365
 C    0.464012    1.383100   -0.053438
 N   -0.420374    2.418073   -0.004490
 C    1.851299    1.449860    0.128893
 C    2.578105    0.278321    0.065578
 C    1.977478   -0.969959   -0.165420
 C    0.609239   -1.018730   -0.344586
 C   -2.757401   -0.431025   -0.666025
 C   -3.335167   -0.974414    0.659838
 N   -2.166380   -1.301914    1.540083
 H   -3.372638    2.644095   -1.217083
 H   -3.580228    2.438424    0.525317
 H   -2.577227    3.763477   -0.093485
 H    2.329808    2.404539    0.315826
 H    2.576795   -1.871389   -0.203519
 H   -2.487183   -1.273891   -1.309068
 H   -3.565639    0.108572   -1.171238
 H   -3.947939   -1.871462    0.549773
 H   -3.901745   -0.202374    1.185065
 H   -2.399257   -1.445017    2.522203
 H   -1.645868   -2.112711    1.174311
 H   -1.520951   -0.482555    1.407501
