27 
4dst_ligand_xtb.xyz
 C   -2.630471    2.726311    0.228961
Cl   -0.060852   -2.656151    0.150050
 C   -1.427921    1.866124    0.168320
Cl    4.462763    0.211437   -0.095922
 C   -1.481459    0.352154    0.156625
 C   -0.017274    0.053749    0.094883
 C    0.657572    1.290294    0.069915
 N   -0.241397    2.350090    0.120353
 C    2.036589    1.372105    0.012509
 C    2.738316    0.176175   -0.019772
 C    2.102369   -1.056725    0.014489
 C    0.714690   -1.110966    0.076563
 C   -2.304507   -0.256029   -0.992378
 C   -3.759910   -0.485165   -0.585569
 N   -3.804048   -1.244068    0.653896
 H   -3.207997    2.624399   -0.689543
 H   -3.265157    2.429157    1.061757
 H   -2.331928    3.764266    0.344551
 H    2.538564    2.324572   -0.003739
 H    2.681185   -1.966042   -0.002745
 H   -1.863873   -1.218961   -1.255206
 H   -2.256754    0.385669   -1.873481
 H   -4.279384   -0.981125   -1.422917
 H   -4.261516    0.468295   -0.401129
 H   -1.923046   -0.022876    1.087937
 H   -4.761997   -1.413630    0.937744
 H   -3.350423   -2.143893    0.529565
