24 
4dsy_ligand_dft.xyz
 C   -2.617388    0.912914    0.612774
 C   -3.950585    0.525582    0.691238
 C   -4.361347   -0.683160    0.136420
 C   -3.431606   -1.502912   -0.497618
 C   -2.098873   -1.115575   -0.577955
 C   -1.676026    0.097189   -0.023660
 C   -0.254793    0.508522   -0.110281
 C    0.786524   -0.398191    0.066358
 C    0.101839    1.836148   -0.385982
 N    1.354403    2.275007   -0.488592
 C    2.331641    1.388251   -0.305850
 C    2.105584    0.042700   -0.016514
 C    3.202058   -0.962101    0.171893
 O    4.412015   -0.483971    0.527790
 O    3.035499   -2.143499    0.018017
 H   -2.299601    1.845761    1.070385
 H   -4.668306    1.166307    1.194489
 H   -5.402145   -0.985830    0.198602
 H   -3.745484   -2.444527   -0.937672
 H   -1.382815   -1.749634   -1.093603
 H    0.594239   -1.444190    0.285211
 H   -0.675180    2.579025   -0.555129
 H    3.340842    1.779738   -0.434453
 H    4.355354    0.451866    0.760919
