33 
4du8_ligand_dft.xyz
 C    0.867855   -1.514775   -0.511877
 N    2.558545    0.229159   -0.064270
 O    0.407539   -1.569916    0.618017
 C    2.279908   -1.007321   -0.783659
 C    3.333903   -1.976501   -0.211585
 C    3.436551    0.038567    1.093397
 C    3.528843   -1.481880    1.225749
 O    2.523262    2.471888    0.216025
 O   -2.115515   -1.275993    1.518855
 O   -0.400347    1.386718    1.508397
 O   -2.357590   -1.682463   -1.041989
 O   -4.286988   -0.777776    0.414460
 O   -1.435950    3.011533   -0.228756
 C    1.049768    1.614208   -1.454840
 O   -0.196879    1.003308   -1.090415
 O   -2.388851    0.718786   -0.059769
 C    2.116526    1.477566   -0.363345
 P   -2.726796   -0.857054    0.134793
 P   -1.011004    1.526668    0.182432
 O    0.243608   -1.881973   -1.607923
 H    2.396073   -0.879548   -1.862866
 H    3.017717   -3.020651   -0.277314
 H    4.259013   -1.864834   -0.786357
 H    4.411318    0.501005    0.899003
 H    2.998129    0.526389    1.966510
 H    2.719237   -1.850518    1.860228
 H    4.481250   -1.804642    1.652622
 H   -1.147233   -1.451268    1.414993
 H   -4.770758   -1.335321   -0.209511
 H   -1.342419    3.602814    0.531603
 H    1.338365    1.123280   -2.386718
 H    0.903567    2.681224   -1.632651
 H   -0.725525   -2.008337   -1.416291
