74 
4dus_ligand_dft.xyz
 C    5.431744   -0.371241   -0.322436
 C    6.221275   -1.492742   -1.039433
 C    5.143940   -1.492007   -2.151387
 C    4.204507   -0.753452   -1.188696
 C    3.190821   -1.652277   -0.494099
 O    3.517030    0.324029   -1.815333
 C    2.746009    1.077892   -1.002073
 N    2.523382    2.310796   -1.431291
 C    1.803997    3.116159   -0.657361
 C    1.281476    2.770649    0.594979
 C    0.490281    3.763763    1.407362
 C   -1.050485    3.702621    1.218321
 C   -1.594845    2.374345    1.754922
 C   -1.671117    4.858261    2.014627
 C   -1.419961    3.852591   -0.263131
 C    1.517110    1.464251    1.012020
 C    2.229665    0.579471    0.202140
 C    2.437299   -0.863272    0.580645
 N    1.106965   -1.533920    0.852172
 C    0.034144   -1.348630   -0.165253
 C   -0.981798   -2.491137   -0.072523
 O   -0.203468   -3.656976    0.135709
 C   -2.141671   -2.383863    0.951098
 N   -1.791327   -2.661738    2.348451
 C   -1.154527   -1.834089    3.204908
 C   -1.225111   -2.185599    4.669524
 O   -0.540991   -0.827236    2.822662
 C   -2.974067   -1.090413    0.826468
 C   -3.371276   -0.767151   -0.596449
 C   -4.243042   -1.599034   -1.307176
 C   -4.582659   -1.324801   -2.626458
 C   -4.044602   -0.197605   -3.233820
 F   -4.365535    0.070131   -4.501520
 C   -3.189561    0.657987   -2.556956
 C   -2.859750    0.362364   -1.238562
 H    5.789747    0.622815   -0.600985
 H    5.332347   -0.425359    0.766163
 H    6.234138   -2.426014   -0.469569
 H    7.241858   -1.256856   -1.343157
 H    5.412888   -0.832630   -2.979890
 H    4.800551   -2.451433   -2.548802
 H    2.500708   -2.026988   -1.259041
 H    3.687245   -2.521172   -0.049578
 H    1.638776    4.117954   -1.050476
 H    0.713078    3.625248    2.472722
 H    0.827248    4.775292    1.150050
 H   -1.389343    2.255481    2.824976
 H   -1.136191    1.521744    1.241553
 H   -2.679558    2.311494    1.608503
 H   -1.314955    5.826668    1.645930
 H   -1.418529    4.787204    3.078797
 H   -2.763111    4.847558    1.926564
 H   -2.508235    3.844373   -0.391124
 H   -1.043783    4.797430   -0.672255
 H   -1.002567    3.040584   -0.870476
 H    1.127816    1.129598    1.973208
 H    2.966668   -0.930642    1.537113
 H    1.250945   -2.547505    0.942488
 H    0.687343   -1.202237    1.747798
 H    0.497293   -1.361185   -1.152129
 H   -0.419552   -0.371877   -0.009539
 H   -1.471841   -2.519853   -1.052382
 H   -0.690330   -4.442663   -0.138197
 H   -2.799119   -3.218796    0.679681
 H   -2.251445   -3.458681    2.762442
 H   -0.244580   -2.028352    5.122591
 H   -1.556537   -3.208945    4.860673
 H   -1.924296   -1.495827    5.153293
 H   -3.865436   -1.220113    1.450718
 H   -2.411098   -0.259896    1.257704
 H   -4.679105   -2.470145   -0.822858
 H   -5.261483   -1.960339   -3.184063
 H   -2.800234    1.538934   -3.055072
 H   -2.207977    1.041198   -0.696527
