58 
4dv8_ligand_dft.xyz
 O    0.538826    1.552011   -0.560263
 C   -0.681782    1.603466   -0.340358
 N   -1.378194    2.718278   -0.580208
 O   -0.724550    3.903311   -0.829162
 C   -1.519671    0.410099    0.132896
 C   -0.623794   -0.809666    0.380788
 C    0.285890   -0.685643    1.614551
 C    1.547808   -1.559077    1.568533
 C    2.459294   -1.313814    0.366049
 N    2.691203    0.145153    0.147920
 C    3.638865    0.488701   -0.971738
 C    5.050907    0.088454   -0.655888
 C    5.591536   -1.097047   -1.160395
 C    6.888428   -1.479437   -0.840519
 C    7.637050   -0.659844   -0.006972
 C    7.131510    0.527689    0.507274
 C    5.835625    0.896715    0.172915
 F    8.880055   -1.019069    0.304577
 C   -2.416775    0.748309    1.352445
 C   -3.897859    1.004842    1.033463
 O   -3.980499    2.157499    0.213953
 C   -5.264871    2.760694    0.181881
 C   -4.556638   -0.204935    0.393411
 C   -4.716117   -0.301370   -0.989752
 C   -5.265895   -1.441463   -1.567763
 C   -5.651426   -2.486616   -0.742567
 C   -5.511676   -2.420697    0.637162
 C   -4.966161   -1.271992    1.196099
 F   -6.177631   -3.586651   -1.289191
 H   -2.366784    2.806569   -0.335438
 H   -0.469818    3.868582   -1.763619
 H   -2.173292    0.151269   -0.709728
 H   -0.033792   -0.975041   -0.527045
 H   -1.268190   -1.689248    0.487086
 H   -0.270243   -0.956588    2.517407
 H    0.574222    0.363156    1.761292
 H    1.275633   -2.620168    1.548262
 H    2.120136   -1.408031    2.491619
 H    3.432129   -1.790693    0.502980
 H    2.024059   -1.690407   -0.562880
 H    3.048709    0.560361    1.012531
 H    1.769052    0.619764   -0.063466
 H    3.252535   -0.012388   -1.862271
 H    3.536974    1.566599   -1.119849
 H    4.999887   -1.725945   -1.820712
 H    7.325907   -2.391041   -1.231118
 H    7.755184    1.146719    1.141905
 H    5.440279    1.837220    0.551349
 H   -2.399100   -0.096706    2.047885
 H   -2.022608    1.611019    1.900879
 H   -4.399274    1.215470    1.990642
 H   -5.201398    3.605171   -0.505334
 H   -6.022790    2.054986   -0.175677
 H   -5.545015    3.121831    1.179263
 H   -4.422764    0.532243   -1.621435
 H   -5.404340   -1.526101   -2.639800
 H   -5.838899   -3.252820    1.250412
 H   -4.864966   -1.205101    2.277093
