32 
4dve_ligand_xtb.xyz
 C    2.733329    0.667235   -0.037973
 O    2.411280    1.497145   -1.005050
 O    2.460203    0.850183    1.129248
 C    3.387551   -0.603479   -0.539598
 C    2.575448   -1.784261    0.009356
 C    1.083330   -1.662664   -0.347196
 C    0.168251   -1.980923    0.839918
 C   -1.250717   -1.427467    0.698585
 S   -1.859158   -1.423632   -1.027952
 C   -3.204162   -0.306402   -0.544908
 C   -2.615402    0.690411    0.457697
 N   -1.987661    1.823347   -0.169774
 C   -0.646447    1.890780    0.057899
 O    0.122256    2.712576   -0.410460
 N   -0.333282    0.893923    0.915958
 C   -1.433063    0.021160    1.212660
 H    1.748451    2.187471   -0.716705
 H    3.390728   -0.591658   -1.628673
 H    4.414369   -0.657701   -0.175649
 H    2.690324   -1.787402    1.094754
 H    2.988607   -2.718322   -0.371629
 H    0.832333   -2.328283   -1.174485
 H    0.872505   -0.650501   -0.690193
 H    0.114958   -3.063819    0.966989
 H    0.595632   -1.562524    1.754647
 H   -1.947225   -2.062071    1.257290
 H   -3.584109    0.185269   -1.437416
 H   -4.001078   -0.894099   -0.086658
 H   -3.406716    1.026152    1.141729
 H   -2.444617    2.389962   -0.860319
 H    0.596439    0.797516    1.305692
 H   -1.606092   -0.018350    2.296025
