76 
4dy6_ligand_dft.xyz
 P   -2.529406   -1.691349    1.838796
 O   -3.842792   -2.174750    2.552200
 O   -2.442182   -1.918478    0.366974
 O   -1.373615   -2.336546    2.703120
 P    0.157526    1.147171   -1.619354
 O   -1.222910    0.782637   -1.957707
 O    0.989519    1.815955   -2.776104
 O    0.344887    2.075323   -0.327768
 C   -0.431686    3.269269   -0.138291
 C   -1.568857    3.088270    0.865537
 O   -2.807043    2.796004    0.193023
 C   -1.336445    1.952764    1.864376
 O   -1.880489    2.341851    3.105643
 C   -2.177119    0.847507    1.233170
 O   -2.515740   -0.118006    2.203081
 C   -3.383662    1.634301    0.734669
 N   -4.165698    0.983892   -0.299224
 C   -4.152478    1.280231   -1.648101
 N   -5.054622    0.638261   -2.336426
 C   -5.697128   -0.135143   -1.395026
 C   -6.768315   -1.037154   -1.505061
 N   -7.375181   -1.278580   -2.683053
 N   -7.213405   -1.662043   -0.402887
 C   -6.593492   -1.410162    0.747951
 N   -5.565569   -0.589865    0.990113
 C   -5.160198    0.049219   -0.126274
 P    0.801351   -1.329396   -0.161656
 O   -0.222607   -2.251153   -0.897926
 O    0.461993   -0.902449    1.217803
 O    1.117037   -0.091422   -1.163398
 O    2.193773   -2.086265   -0.208245
 C    2.601700   -3.009192   -1.225290
 C    4.116706   -3.125698   -1.187117
 O    4.721636   -1.957900   -1.760411
 C    4.730796   -3.253360    0.209428
 O    5.964282   -3.914691    0.084210
 C    4.952564   -1.790468    0.606422
 O    6.009038   -1.679868    1.514939
 C    5.255079   -1.141255   -0.763185
 N    4.636979    0.182932   -0.875187
 C    3.954413    0.677627   -1.942627
 N    3.475103    1.884077   -1.742453
 C    3.862238    2.196622   -0.454014
 C    3.661784    3.314941    0.373831
 N    2.941075    4.395485   -0.016248
 N    4.184712    3.305143    1.605839
 C    4.873284    2.231067    2.004661
 N    5.133786    1.115919    1.324062
 C    4.595091    1.152639    0.096868
 H   -4.572204   -1.599537    2.193002
 H   -0.520656   -1.976177    2.364045
 H    1.929048    2.017733   -2.488722
 H    0.283343    3.999330    0.247531
 H   -0.838481    3.633128   -1.087154
 H   -1.702422    4.029430    1.408839
 H   -0.284481    1.663774    1.949840
 H   -2.002383    1.532088    3.621381
 H   -1.686307    0.397140    0.373329
 H   -4.058186    1.859507    1.570675
 H   -3.433468    1.977776   -2.044468
 H   -6.973309   -0.909072   -3.529728
 H   -8.058836   -2.016391   -2.733236
 H   -6.969511   -1.957692    1.609232
 H   -1.154473   -2.170296   -0.499015
 H    2.133208   -3.977324   -1.026453
 H    2.287882   -2.653879   -2.211165
 H    4.414118   -3.977726   -1.805065
 H    4.060968   -3.768222    0.910961
 H    6.524386   -3.581884    0.801528
 H    4.026414   -1.376615    1.012636
 H    6.003294   -0.749537    1.807352
 H    6.335528   -1.033487   -0.903069
 H    3.809784    0.091875   -2.837463
 H    2.762183    4.526295   -0.999969
 H    3.023192    5.222335    0.556791
 H    5.275083    2.280442    3.012805
