21 
4dzy_ligand_xtb.xyz
 O   -1.429263    1.776736   -0.722553
 C   -1.474335    1.064102    0.239724
 O   -1.703519    1.508957    1.475262
 C   -1.317252   -0.444959    0.219370
Cl   -2.973789   -1.050347   -0.119448
 C   -0.341619   -0.911264   -0.854447
 C    1.058505   -0.525906   -0.454121
 C    1.780455   -1.327896    0.420922
 C    1.632780    0.647491   -0.924106
 C    2.908926    1.009908   -0.529032
 C    3.623009    0.204225    0.341313
 C    3.056231   -0.966577    0.815668
 H   -1.854239    2.468337    1.475258
 H   -1.047454   -0.805650    1.213588
 H   -0.611647   -0.437484   -1.799511
 H   -0.422779   -1.994029   -0.961599
 H    1.342482   -2.244774    0.789407
 H    1.074661    1.279141   -1.598995
 H    3.347037    1.923614   -0.902566
 H    4.619137    0.486555    0.648176
 H    3.609265   -1.600095    1.493433
