47 
4e1k_ligand_xtb.xyz
 C   -5.630180    3.448169   -0.155242
 O   -6.412714    2.283943   -0.093617
 C   -5.786213    1.079726   -0.043723
 C   -4.427371    0.884665   -0.047876
 C   -3.875771   -0.410304    0.010204
 C   -4.747064   -1.525506    0.075209
 C   -6.137513   -1.311951    0.074967
 C   -6.657583   -0.047649    0.017855
 O   -7.987658    0.202790    0.017736
 N   -4.285122   -2.794855    0.140151
 C   -2.992354   -2.940617    0.144063
 N   -2.068307   -1.983922    0.085744
 C   -2.476283   -0.728311    0.014984
 N   -1.559366    0.271665   -0.056003
 C   -0.169158    0.230377   -0.052581
 C    0.574989   -0.940452    0.072894
 C    1.954634   -0.897816    0.076804
 C    2.627049    0.315290   -0.045203
 C    1.883820    1.487760   -0.173325
 C    0.506490    1.445737   -0.176329
 N    4.020214    0.423654   -0.035885
 C    4.959998   -0.566462    0.014425
 O    4.712041   -1.754019    0.030178
 C    6.362807   -0.050927    0.026407
 C    6.731509    1.118572    0.685163
 C    8.052858    1.528885    0.681848
 C    9.013621    0.782560    0.019740
 C    8.655238   -0.389930   -0.625203
 C    7.338373   -0.809362   -0.614014
 H   -4.993134    3.554020    0.729911
 H   -5.008871    3.469846   -1.057452
 H   -6.337180    4.275259   -0.188050
 H   -3.777698    1.745353   -0.092916
 H   -6.780749   -2.177953    0.123344
 H   -8.473620   -0.630275    0.063813
 H   -2.609430   -3.952001    0.199502
 H   -1.939281    1.203905   -0.132700
 H    0.057352   -1.879279    0.166368
 H    2.520435   -1.808814    0.173267
 H    2.390117    2.438616   -0.270584
 H   -0.053033    2.366379   -0.275918
 H    4.365769    1.369946   -0.117573
 H    5.999537    1.695669    1.233758
 H    8.334535    2.432780    1.201824
 H   10.042450    1.110541    0.016046
 H    9.404550   -0.979433   -1.132009
 H    7.041598   -1.726789   -1.099466
