55 
4e1m_ligand_xtb.xyz
 C   -4.438098   -1.482224   -0.565949
 C   -3.053914   -1.383856   -0.318158
 C   -2.481410   -0.111375   -0.062092
 C   -3.320053    1.020286   -0.037884
 C   -4.660957    0.893811   -0.277754
 C   -5.222683   -0.362956   -0.548401
 N   -2.317531   -2.511125   -0.333100
 C   -1.035016   -2.455703   -0.097644
 C   -0.358855   -1.232665    0.165166
 C   -1.080190   -0.057967    0.172823
 C   -0.300919   -3.757087   -0.118629
 C   -0.433247    1.252079    0.391058
 C    1.143544   -1.221337    0.375239
 O    1.801002   -1.727223   -0.761966
 C    0.126587    1.582973    1.619582
 C    0.752629    2.805073    1.783375
 C    0.839653    3.718560    0.741618
 C    0.268690    3.395779   -0.493864
 C   -0.361606    2.170784   -0.650214
 C    1.536571    5.029041    0.940560
 C    0.338480    4.355129   -1.641898
 C    2.943575   -1.023214   -1.258042
 C    4.009064   -0.816695   -0.177409
 C    3.485397   -1.950501   -2.348951
 C    2.529152    0.320483   -1.871792
 C    1.511535   -2.011610    1.627766
 O    2.378220   -2.834010    1.723642
 O    0.748099   -1.642398    2.669013
 H   -4.846345   -2.461117   -0.762089
 H   -2.891003    1.987841    0.179177
 H   -5.298655    1.765602   -0.256531
 H   -6.283642   -0.438501   -0.737344
 H   -0.067202   -4.071299    0.898166
 H    0.632457   -3.659444   -0.665516
 H   -0.931834   -4.513627   -0.576355
 H    1.445467   -0.186260    0.579968
 H    0.065905    0.881699    2.438871
 H    1.186996    3.053255    2.741613
 H   -0.795833    1.912462   -1.606128
 H    1.926722    5.108357    1.952017
 H    2.364598    5.133742    0.239837
 H    0.851469    5.858485    0.767527
 H   -0.165392    3.948231   -2.514775
 H    1.375243    4.562535   -1.905772
 H   -0.131336    5.302499   -1.379418
 H    4.182064   -1.751797    0.349080
 H    3.705202   -0.061304    0.545140
 H    4.938011   -0.491166   -0.637556
 H    4.344838   -1.502151   -2.838460
 H    2.710175   -2.138600   -3.086532
 H    3.777940   -2.898671   -1.907126
 H    3.381470    0.777518   -2.366894
 H    1.739024    0.162207   -2.601961
 H    2.163269    1.011489   -1.114879
 H    0.996949   -2.145889    3.461108
