45 
4e28_ligand_xtb.xyz
 F    7.830582   -0.476424   -0.912178
 C    7.511319    0.192572    0.209946
 F    7.524095   -0.716325    1.202414
 F    8.535201    1.025118    0.453323
 C    6.186926    0.894140    0.100535
 C    5.064721    0.115563   -0.146520
 C    6.098145    2.270009    0.248327
 C    4.854801    2.873468    0.147961
 C    3.727000    2.115860   -0.094325
 C    3.820538    0.730799   -0.245169
 N    2.641076    0.030307   -0.486690
 C    2.484413   -1.299459   -0.710697
 O    3.370903   -2.119373   -0.739868
 C    1.022172   -1.700021   -0.947472
 C    0.090192   -1.320109    0.211703
 C   -0.588399    0.022511   -0.008657
 O    0.008482    1.052805   -0.239892
 N   -1.931600   -0.078816    0.057621
 C   -2.506252   -1.333247    0.277924
 S   -1.254370   -2.548228    0.447100
 N   -3.727197   -1.620667    0.366545
 N   -4.757525   -0.795395    0.422190
 C   -5.473583   -0.439413   -0.574634
 C   -6.690463    0.317536   -0.407517
 C   -7.387829    0.741248   -1.544646
 C   -8.559407    1.456269   -1.438030
 C   -9.066077    1.760597   -0.180160
 C   -8.401426    1.351929    0.956389
 C   -7.210830    0.631514    0.865247
 O   -6.606601    0.262646    2.004742
 H    5.155082   -0.952245   -0.261434
 H    6.982857    2.856472    0.438430
 H    4.769034    3.942965    0.260996
 H    2.758894    2.589309   -0.170002
 H    1.799394    0.608085   -0.485485
 H    1.014155   -2.783502   -1.074545
 H    0.674604   -1.243962   -1.877730
 H    0.658209   -1.285210    1.146812
 H   -2.517897    0.739063   -0.053634
 H   -5.193246   -0.696845   -1.599234
 H   -6.988678    0.497011   -2.518829
 H   -9.082342    1.775637   -2.326018
 H   -9.986187    2.317792   -0.089846
 H   -8.781812    1.576091    1.940313
 H   -5.812349   -0.267564    1.785815
