17 
4e3o_ligand_xtb.xyz
 B   -2.010650    0.609366    0.093111
 O   -1.323303    1.582501    0.754915
 O   -2.860114    0.830077   -0.927173
 C   -2.037105   -0.863130    0.754904
 N   -0.693031   -1.429530    0.792855
 S    0.440832   -0.801581   -0.227746
 O    1.292893   -1.856195   -0.679808
 O   -0.170134    0.064792   -1.195957
 C    1.402027    0.234556    0.930929
Cl    2.553727    1.100313   -0.052607
 H   -1.308549    2.443310    0.332435
 H   -2.821482    1.682132   -1.363256
 H   -2.711142   -1.501777    0.178937
 H   -2.406634   -0.822289    1.783411
 H   -0.657862   -2.436117    0.815089
 H    1.921419   -0.410244    1.632866
 H    0.717762    0.926884    1.412415
