32 
4e5j_ligand_xtb.xyz
 O   -6.017767    1.620164   -0.429518
 C   -5.299148    0.723756   -0.050838
 C   -5.748369   -0.328153    0.930112
 N   -4.000712    0.680253   -0.493465
 C   -2.964284   -0.221399   -0.270091
 C   -3.164002   -1.596906   -0.148616
 C   -2.085543   -2.437273    0.064039
 C   -1.663274    0.272534   -0.225407
 C   -0.577234   -0.574761   -0.029655
 C   -0.796223   -1.943375    0.132807
 C    0.761229    0.025994    0.006204
 N    0.854394    1.320101    0.089288
 C    2.063162    1.937599    0.128582
 O    2.244696    3.143206    0.197563
 C    3.273119    1.072402    0.084658
 O    4.438616    1.735623    0.138375
 C    3.123658   -0.273283   -0.012868
 N    1.842172   -0.778488   -0.055013
 C    4.197738   -1.303255   -0.082469
 O    5.446276   -0.860092   -0.041369
 O    3.910100   -2.470862   -0.170232
 H   -6.542855    0.100481    1.536292
 H   -6.163864   -1.180986    0.397228
 H   -4.932083   -0.657134    1.566650
 H   -3.731246    1.525381   -0.985091
 H   -4.150962   -2.016215   -0.244419
 H   -2.255300   -3.498037    0.167656
 H   -1.468782    1.327450   -0.337554
 H    0.016102   -2.628939    0.319394
 H    4.173289    2.686361    0.195766
 H    1.789649   -1.788895   -0.148982
 H    5.494727    0.109897    0.030094
