43 
4e8z_ligand_xtb.xyz
Cl    0.044291    0.396904   -1.409966
Cl    4.300974    2.829021    0.789968
 C   -6.419890    1.205295    0.178788
 N    3.213725   -2.682093    0.857940
 O   -6.202278    1.929306    1.095070
 C   -5.446329    0.146784   -0.352220
 N    4.353782   -1.709111   -0.883405
 O   -7.578129    1.261477   -0.505871
 C   -3.301453   -0.734603    0.207869
 N    4.577241   -0.678827   -1.634137
 O   -4.331628    0.116898    0.492094
 C   -3.260752   -1.580720   -0.904732
 N    2.658430   -0.529383    0.294783
 C   -2.171910   -2.403158   -1.130742
 N   -0.041796   -1.605097    1.685886
 C   -1.122982   -2.379167   -0.233945
 C    0.825579   -2.415010    1.224594
 C    2.157974   -2.684210    1.842453
 C    3.412577   -1.616099    0.064455
 C    3.888845    0.433763   -1.465529
 C    2.896043    0.511334   -0.477556
 C    2.083440    1.726084   -0.262604
 C    0.741030    1.766261   -0.628942
 C   -0.032249    2.892536   -0.402814
 C    0.542905    4.001613    0.192526
 C    1.879072    3.995319    0.553631
 C    2.638347    2.860038    0.324265
 C   -1.156279   -1.535600    0.902135
 C   -2.250998   -0.714027    1.116764
 S    0.377578   -3.252536   -0.270803
 H    3.689827   -3.531949    0.606335
 H   -5.164110    0.425753   -1.381511
 H   -5.956482   -0.830806   -0.374640
 H   -7.641229    0.620692   -1.225815
 H   -4.073093   -1.604653   -1.613884
 H   -2.142594   -3.044944   -1.997125
 H    2.336288   -1.896811    2.582722
 H    2.152329   -3.655302    2.342672
 H    4.121099    1.254774   -2.124660
 H   -1.071854    2.893660   -0.687964
 H   -0.056006    4.879808    0.375586
 H    2.332838    4.857627    1.014878
 H   -2.288994   -0.056442    1.968034
