43 
4e8z_ligand_dft.xyz
Cl    0.400017    0.787411   -1.343052
Cl    5.203258    2.141317    0.850178
 C   -6.885856    1.492696    0.229103
 N    2.629198   -2.999590    0.914259
 O   -6.768786    2.029913    1.288985
 C   -5.879799    0.517065   -0.377817
 N    4.089189   -2.374451   -0.746099
 O   -7.961985    1.719431   -0.558507
 C   -3.803653   -0.477004    0.175528
 N    4.602555   -1.437115   -1.514045
 O   -4.838118    0.340147    0.527424
 C   -3.726459   -1.162766   -1.047373
 N    2.716408   -0.759006    0.378067
 C   -2.632239   -1.972035   -1.332346
 N   -0.615605   -1.587720    1.689022
 C   -1.622569   -2.092645   -0.386461
 C    0.254024   -2.364664    1.149261
 C    1.539263   -2.769212    1.830893
 C    3.162021   -2.004213    0.157876
 C    4.191840   -0.179494   -1.373948
 C    3.240764    0.164796   -0.409640
 C    2.767279    1.566709   -0.232989
 C    1.473701    1.947753   -0.608688
 C    1.013892    3.246726   -0.430552
 C    1.855692    4.195920    0.135300
 C    3.145944    3.854627    0.519246
 C    3.585905    2.549909    0.331532
 C   -1.699801   -1.404870    0.842285
 C   -2.795218   -0.594741    1.124785
 S   -0.127668   -2.988710   -0.456921
 H    2.942167   -3.933894    0.703271
 H   -5.522012    0.932798   -1.334070
 H   -6.393135   -0.433481   -0.597398
 H   -7.912058    1.207236   -1.377286
 H   -4.512086   -1.073977   -1.788594
 H   -2.579201   -2.494161   -2.281948
 H    1.787280   -1.977209    2.542744
 H    1.377989   -3.692912    2.394699
 H    4.636176    0.554327   -2.036593
 H    0.005405    3.503939   -0.732907
 H    1.501697    5.211277    0.280088
 H    3.808750    4.585981    0.966957
 H   -2.863439   -0.057014    2.063016
