32 
4e9u_ligand_xtb.xyz
 N    6.936367   -0.466765    0.622354
 C    6.030454   -0.929806    0.095108
 C   -5.692393   -1.771261    0.534700
 C   -5.837488   -1.122710   -0.680598
 C   -4.625469   -1.453504    1.357428
 C   -4.917045   -0.172349   -1.078879
 C   -3.699670   -0.501322    0.971857
 C    0.281897    2.404385    0.216976
 C    0.423068    0.012973    0.081741
 C   -1.059231    2.350584   -0.089784
 C   -0.924926   -0.040934   -0.231164
 C    3.224645    0.320173    0.692293
 C    3.654780   -0.097256   -0.714749
 O    2.354560    1.420286    0.651929
 O   -2.997485    1.133515   -0.680576
 S    4.700797   -1.598194   -0.679512
 C    1.038647    1.236212    0.314139
 C   -3.838709    0.137394   -0.255710
 C   -1.677982    1.122287   -0.311089
 H   -6.410353   -2.516215    0.842176
 H   -6.670757   -1.360331   -1.324894
 H   -4.512458   -1.945004    2.312401
 H   -5.016985    0.344056   -2.020778
 H   -2.876626   -0.243086    1.622416
 H    0.772350    3.347444    0.396441
 H    0.967709   -0.916666    0.138717
 H   -1.645530    3.252332   -0.166046
 H   -1.390153   -0.997079   -0.421318
 H    4.097262    0.663928    1.256861
 H    2.779200   -0.529109    1.226451
 H    4.206461    0.704404   -1.205263
 H    2.792493   -0.365825   -1.325888
