58 
4ec0_ligand_dft.xyz
 C   -1.355173    0.307816    0.899691
 C    0.015917    0.082984    0.823448
 C    0.610848   -0.199798   -0.407777
 C   -0.173927   -0.206835   -1.565089
 C   -1.540700    0.035553   -1.487873
 C   -2.151880    0.279950   -0.253368
 C   -3.631692    0.477848   -0.162681
 C    2.073916   -0.509812   -0.413373
 O    2.823528   -0.044481    0.453040
 N    2.530383   -1.331241   -1.390409
 C    3.858521   -1.936229   -1.359195
 C    5.019698   -0.960576   -1.563510
 N    5.411996   -0.247953   -0.303259
 C    6.101715    1.057022   -0.574450
 C    6.454426    1.731105    0.747529
 O    7.254643    0.894074    1.540445
 C    6.582113   -0.292854    1.872536
 C    6.248050   -1.091159    0.617041
 C   -4.461375   -0.623640    0.204071
 C   -5.870874   -0.424927    0.295399
 C   -6.414371    0.853751    0.018187
 C   -5.603164    1.897904   -0.333419
 C   -4.201388    1.713175   -0.428358
 C   -3.936587   -1.916703    0.474371
 C   -4.769713   -2.948187    0.820249
 C   -6.166781   -2.747547    0.914829
 C   -6.704306   -1.514553    0.657164
 C   -3.348944    2.900867   -0.767125
 N   -2.723984    3.451409    0.513101
 H   -1.824653    0.442463    1.872286
 H    0.627983    0.093021    1.719160
 H    0.270710   -0.380673   -2.541287
 H   -2.146554    0.011077   -2.388725
 H    1.844032   -1.803940   -1.960847
 H    3.893278   -2.657680   -2.177318
 H    3.985276   -2.505232   -0.430372
 H    4.745211   -0.203388   -2.301581
 H    5.903463   -1.491548   -1.925919
 H    4.503297   -0.051357    0.179034
 H    5.424095    1.675507   -1.167941
 H    7.001491    0.837171   -1.155595
 H    5.532381    2.012839    1.281842
 H    7.027999    2.637670    0.547827
 H    5.662749   -0.078896    2.441204
 H    7.249585   -0.880164    2.505052
 H    7.159628   -1.357006    0.074965
 H    5.689431   -1.996732    0.861593
 H   -7.489050    0.994917    0.081382
 H   -6.035807    2.869137   -0.559136
 H   -2.867920   -2.089217    0.401379
 H   -4.357582   -3.931364    1.022585
 H   -6.810403   -3.576330    1.190023
 H   -7.776266   -1.354652    0.723504
 H   -3.929851    3.717679   -1.198255
 H   -2.508379    2.672178   -1.424297
 H   -2.199713    4.318813    0.358199
 H   -3.451210    3.633855    1.212882
 H   -2.083331    2.748678    0.904659
