50 
4efg_ligand_dft.xyz
 C    3.968358   -0.851256   -0.511621
 C    5.380666   -0.238535   -0.531670
 C    5.366718    1.254387   -0.831434
 C    4.592652    1.980365    0.261678
 C    3.286920    1.310053    0.626319
 C    2.989377    0.047128    0.262099
 C    1.675638   -0.565499    0.557103
 C    0.493881   -0.033718    0.204916
 C   -0.824808   -0.613416    0.462517
 C   -1.916039    0.061841    0.034564
 C   -3.309059   -0.313089    0.176377
 C   -4.317303    0.446255   -0.293391
 C   -5.747619    0.145985   -0.194737
 C   -6.621284    1.022618   -0.722653
 C   -8.117018    0.953449   -0.755180
 C    4.074632   -2.239369    0.147858
 C    3.446262   -1.037178   -1.949234
 C    2.390497    2.188595    1.462443
 C   -0.879722   -1.930562    1.189934
 C   -6.141295   -1.133829    0.496882
 H    5.993144   -0.780547   -1.263353
 H    5.849671   -0.394352    0.450325
 H    4.895193    1.439149   -1.804309
 H    6.388548    1.644368   -0.897551
 H    4.384918    3.016562   -0.038734
 H    5.211039    2.057505    1.169769
 H    1.688461   -1.533424    1.055121
 H    0.497994    0.916045   -0.329774
 H   -1.744376    1.007074   -0.481989
 H   -3.539753   -1.245921    0.683793
 H   -4.065291    1.378982   -0.799649
 H   -6.202865    1.911601   -1.196058
 H   -8.522137    0.058586   -0.277700
 H   -8.552118    1.826912   -0.253420
 H   -8.479193    0.973633   -1.790774
 H    3.154546   -2.822186    0.037551
 H    4.880756   -2.811466   -0.326254
 H    4.304004   -2.153781    1.216303
 H    4.091492   -1.727324   -2.506578
 H    2.431121   -1.447744   -1.942656
 H    3.412184   -0.086092   -2.490488
 H    1.931858    2.978118    0.852350
 H    1.588035    1.634022    1.951541
 H    2.985412    2.696601    2.232721
 H   -1.898768   -2.289952    1.339677
 H   -0.332204   -2.700781    0.633301
 H   -0.405456   -1.847244    2.175032
 H   -7.221664   -1.282619    0.525141
 H   -5.697836   -1.998792   -0.010432
 H   -5.775452   -1.142290    1.530473
