50 
4efg_ligand_xtb.xyz
 C    3.319160   -1.209159    0.348346
 C    4.825840   -1.356664    0.615256
 C    5.655685   -0.799454   -0.529834
 C    5.401389    0.697170   -0.650965
 C    3.965534    1.081560   -0.436266
 C    3.014895    0.247206    0.017533
 C    1.675012    0.779186    0.245608
 C    0.498610    0.182356   -0.007242
 C   -0.804102    0.745924    0.251359
 C   -1.901451    0.019792   -0.081982
 C   -3.273720    0.372012    0.083971
 C   -4.281286   -0.451854   -0.271814
 C   -5.693518   -0.183330   -0.139671
 C   -6.580869   -1.111303   -0.532829
 C   -8.069872   -0.990684   -0.463393
 C    2.585550   -1.642424    1.623903
 C    2.909970   -2.130028   -0.812133
 C    3.664780    2.521129   -0.761805
 C   -0.869915    2.104266    0.884289
 C   -6.113022    1.137580    0.439674
 H    5.062416   -2.410810    0.775190
 H    5.078761   -0.815289    1.530226
 H    5.386711   -1.301054   -1.459623
 H    6.717658   -0.983135   -0.352014
 H    5.728994    1.054075   -1.631824
 H    5.999664    1.232491    0.096421
 H    1.660885    1.782471    0.650551
 H    0.482521   -0.795851   -0.466451
 H   -1.735320   -0.954220   -0.529541
 H   -3.503637    1.335690    0.512068
 H   -4.029664   -1.415550   -0.698923
 H   -6.203865   -2.040446   -0.938990
 H   -8.404080   -0.862333    0.566886
 H   -8.420861   -0.131623   -1.036174
 H   -8.543055   -1.882810   -0.864837
 H    1.507872   -1.603732    1.500137
 H    2.866334   -2.662262    1.880298
 H    2.855344   -0.992927    2.454488
 H    3.377176   -3.106497   -0.696511
 H    1.834630   -2.277953   -0.834188
 H    3.210261   -1.710366   -1.768685
 H    2.821800    2.600835   -1.446084
 H    3.414138    3.078356    0.142222
 H    4.527513    2.998662   -1.220045
 H   -1.892650    2.420762    1.057303
 H   -0.347956    2.096882    1.840754
 H   -0.388202    2.840841    0.241358
 H   -7.193519    1.223220    0.486807
 H   -5.714101    1.248900    1.447258
 H   -5.727801    1.953990   -0.170108
