20 
4efk_ligand_dft.xyz
 C   -1.626800    0.895531    1.742598
 N   -1.765786    0.746963    0.295937
 C   -3.131408    0.947413   -0.190915
 S   -1.000094   -0.614699   -0.323644
 O   -1.172705   -1.768153    0.551783
 O   -1.377266   -0.693912   -1.725517
 C    0.690765   -0.118264   -0.206536
 C    1.253008    0.972187   -0.935635
 C    2.582887    1.103848   -0.683783
 S    3.152389   -0.092349    0.426792
 C    1.590184   -0.787220    0.570074
 H   -2.221731    0.158820    2.298333
 H   -0.576736    0.792935    2.027532
 H   -1.954454    1.903858    2.009460
 H   -3.151540    0.831525   -1.274152
 H   -3.845800    0.246977    0.264312
 H   -3.426021    1.969135    0.063964
 H    0.684125    1.607503   -1.602101
 H    3.267115    1.835087   -1.091480
 H    1.396772   -1.646269    1.197256
