29 
4eh4_ligand_dft.xyz
 C   -2.397561    0.715506   -0.941999
 C   -3.287996    0.597326    0.296085
 C   -3.403282   -0.865381    0.736136
 C   -2.016651   -1.490032    0.915166
 C   -1.154408   -1.296035   -0.336896
 N   -1.085605    0.116302   -0.708366
 C   -0.076364    0.956181   -0.299249
 O   -0.250088    2.156177   -0.133137
 C    1.294783    0.366737   -0.115528
 C    2.052912    0.795494    0.974372
 C    3.348764    0.325151    1.154246
 C    3.905971   -0.555685    0.230134
 C    3.164227   -0.963428   -0.875615
 C    1.861194   -0.507098   -1.046252
 H   -2.246605    1.757215   -1.222797
 H   -2.856738    0.185354   -1.787545
 H   -4.277730    1.015549    0.080681
 H   -2.844889    1.200518    1.097846
 H   -3.955469   -1.429956   -0.029019
 H   -3.979127   -0.944557    1.664684
 H   -2.098367   -2.560403    1.137120
 H   -1.504542   -1.019237    1.764795
 H   -1.588728   -1.848578   -1.181202
 H   -0.150494   -1.684592   -0.169949
 H    1.617440    1.506155    1.669560
 H    3.928943    0.653493    2.011396
 H    4.921033   -0.916892    0.366540
 H    3.602033   -1.634412   -1.608626
 H    1.283653   -0.815601   -1.913421
