25 
4eh6_ligand_dft.xyz
 C   -2.531227    1.007016   -0.209823
 C   -3.922972    1.021151   -0.220561
 C   -4.659861   -0.133441    0.020846
 C   -3.988569   -1.325794    0.277519
 C   -2.601034   -1.357587    0.290760
 C   -1.863489   -0.193596    0.048141
 N   -0.458233   -0.311226    0.068805
 C    0.485585    0.671820   -0.070479
 O    0.233615    1.858234   -0.202046
 C    1.907490    0.187282   -0.032111
 C    2.893963    1.084736    0.376698
 C    4.212677    0.658898    0.411412
 C    4.499319   -0.647291    0.019707
 N    3.576036   -1.511359   -0.404741
 C    2.311720   -1.089041   -0.427887
 H   -1.963056    1.907965   -0.391819
 H   -4.434045    1.958067   -0.421517
 H   -5.744809   -0.106056    0.009796
 H   -4.544678   -2.238656    0.468362
 H   -2.084598   -2.294266    0.490190
 H   -0.114106   -1.231412    0.298923
 H    2.607259    2.093729    0.654716
 H    5.008945    1.322013    0.732286
 H    5.522321   -1.016275    0.039252
 H    1.591610   -1.807806   -0.817603
