27 
4eh7_ligand_xtb.xyz
 C    2.161311    0.574234    0.810058
 C    3.436053    1.055124    1.046628
 C    4.534599    0.462357    0.447928
 C    4.354795   -0.628163   -0.386961
 C    3.085804   -1.114868   -0.634987
 C    1.981073   -0.509149   -0.043587
 O    0.758408   -1.079461   -0.282078
 C   -0.374780   -0.307188   -0.306259
 C   -1.554880   -0.908979    0.110749
 C   -0.395335    0.994288   -0.798713
 C   -1.592851    1.682053   -0.846709
 C   -2.769390    1.087596   -0.424163
 C   -2.754947   -0.215470    0.049203
 C   -4.021555   -0.901124    0.493281
 O   -5.105673   -0.001185    0.490888
 H    1.306639    1.028691    1.289872
 H    3.569600    1.897341    1.709507
 H    5.526436    0.844931    0.635520
 H    5.207245   -1.100713   -0.851749
 H    2.928559   -1.964369   -1.281107
 H   -1.519769   -1.924157    0.476582
 H    0.518140    1.453669   -1.146926
 H   -1.608233    2.693021   -1.226033
 H   -3.704010    1.622453   -0.460075
 H   -3.867669   -1.317188    1.501336
 H   -4.220404   -1.743891   -0.188664
 H   -5.897789   -0.468883    0.772449
