30 
4eh8_ligand_dft.xyz
 C    3.234697    1.315004    0.504158
 C    4.617549    1.174497    0.434829
 C    5.173640    0.021442   -0.111107
 C    4.339183   -0.986267   -0.587887
 C    2.956967   -0.841157   -0.526220
 C    2.394674    0.311970    0.021403
 C    0.900138    0.510659    0.048854
 O    0.269519   -0.746000    0.188118
 C   -1.088454   -0.793561    0.149037
 C   -1.909941    0.329369    0.052095
 C   -1.649230   -2.071617    0.220636
 C   -3.027334   -2.216529    0.184118
 C   -3.855491   -1.101160    0.074877
 C   -3.295666    0.171657    0.013230
 C   -4.194921    1.383698   -0.050663
 O   -3.467233    2.500811   -0.518210
 H    2.805105    2.213228    0.942079
 H    5.260011    1.962756    0.816160
 H    6.252379   -0.093581   -0.160656
 H    4.766389   -1.890890   -1.010878
 H    2.304883   -1.627976   -0.890478
 H    0.566515    0.990058   -0.883738
 H    0.620240    1.173583    0.879653
 H   -1.505441    1.331756   -0.005639
 H   -0.988292   -2.928441    0.298353
 H   -3.461898   -3.210699    0.232811
 H   -4.934886   -1.224818    0.035880
 H   -4.600778    1.576562    0.955751
 H   -5.050587    1.163047   -0.707475
 H   -4.026788    3.278893   -0.425254
