43 
4ehe_ligand_xtb.xyz
 C   -4.236353    2.030249   -0.989619
 N   -5.514893    1.758771   -1.189041
 C   -5.974547    0.559216   -0.832501
 C   -5.084282   -0.366976   -0.258000
 C   -3.748372    0.024182   -0.091054
 N   -3.325305    1.241806   -0.467982
 S   -5.354240   -1.985744    0.317626
 C   -3.705243   -2.114124    0.778326
 C   -2.959380   -1.006438    0.515383
 N   -7.273069    0.292698   -1.047755
 C   -1.521541   -0.910571    0.871123
 O   -0.947305   -1.757576    1.516713
 N   -0.955574    0.246518    0.410128
 C    0.355634    0.642786    0.634814
 C    1.448724   -0.216997    0.569730
 C    2.753138    0.206245    0.842908
 C    2.977778    1.548674    1.132102
 C    1.919671    2.440300    1.144159
 C    0.640358    1.985569    0.908503
 N    3.791922   -0.709323    0.812956
 F    1.285819   -1.497289    0.170365
 F   -0.393319    2.858317    0.932685
 S    5.334285   -0.341439    0.268633
 O    5.877824    0.711932    1.068456
 O    6.018354   -1.594692    0.216334
 C    5.062080    0.282380   -1.414577
 C    4.426119   -0.805047   -2.255516
 C    4.381981   -0.429736   -3.733882
 H   -3.906805    3.015125   -1.291377
 H   -3.351617   -3.019976    1.231726
 H   -7.849267    1.015184   -1.440844
 H   -7.673983   -0.583351   -0.766653
 H   -1.609136    0.962242    0.069882
 H    3.982727    1.871200    1.345524
 H    2.077250    3.485503    1.354604
 H    3.528262   -1.669343    0.651614
 H    6.047517    0.555905   -1.782559
 H    4.444995    1.171733   -1.320357
 H    3.410657   -0.996209   -1.902535
 H    5.008015   -1.718844   -2.121248
 H    3.806154    0.481274   -3.879982
 H    5.386288   -0.267711   -4.116950
 H    3.918595   -1.225925   -4.309987
