41 
4ehm_ligand_xtb.xyz
 C    1.944217    2.852885    0.011588
 C    2.312977    1.410761    0.175771
 C    1.581522    0.383043   -0.409819
 O    0.476350    0.730428   -1.189012
 C   -0.733384    0.275025   -0.670318
 C   -1.736547    1.180380   -0.322824
 C   -1.679306    2.653803   -0.586046
 O   -2.420932    3.425221   -0.036786
 O   -0.799713    3.068508   -1.498058
 C   -2.916214    0.715075    0.254230
 C   -3.119261   -0.635402    0.477686
 O   -4.226195   -1.166112    1.049105
 C   -5.257288   -0.292654    1.453568
 C   -2.144800   -1.561730    0.069256
 C   -2.401739   -3.022943    0.247150
 C   -0.965211   -1.093985   -0.502336
 O   -0.119896   -2.048815   -1.015209
 C    1.230256   -2.021328   -1.026076
 O    1.791855   -2.900766   -1.622758
 C    1.944620   -0.959150   -0.276543
 C    3.071607   -1.297564    0.484987
 C    3.496966   -2.719512    0.661686
 C    3.786624   -0.280032    1.090004
 C    3.434662    1.054305    0.932563
 O    4.158099    2.043360    1.510671
 H    1.915168    3.126674   -1.041220
 H    0.965994    3.056032    0.444225
 H    2.679019    3.472837    0.514943
 H   -0.198561    2.349074   -1.765676
 H   -3.654250    1.459431    0.506031
 H   -4.907820    0.416786    2.208840
 H   -5.672777    0.256115    0.603690
 H   -6.027401   -0.930520    1.883860
 H   -2.433525   -3.264285    1.308927
 H   -3.373060   -3.276947   -0.171810
 H   -1.630309   -3.613039   -0.236361
 H    2.664127   -3.337485    0.991473
 H    3.839980   -3.123770   -0.288587
 H    4.300952   -2.790954    1.389398
 H    4.652636   -0.526863    1.690016
 H    4.905081    1.666448    1.991469
