25 
4ejl_ligand_xtb.xyz
 C  -11.644787   56.140976   24.007344
 O  -11.213722   56.261488   25.115458
 O  -12.928457   56.448239   23.732695
 C  -10.842429   55.641520   22.821803
 C  -11.389739   54.286820   22.332166
 N  -11.890294   52.071959   25.238381
 C  -12.329118   52.996840   24.332989
 C  -11.340207   53.282745   23.437494
 C  -10.208022   52.498894   23.816523
 C   -8.916855   52.353693   23.309310
 C   -8.056314   51.483845   23.938933
 C   -8.452190   50.753691   25.063310
 C   -9.721404   50.874946   25.585535
 C  -10.594754   51.752245   24.955378
 H  -13.144525   56.303645   22.802077
 H  -10.881873   56.381722   22.017536
 H   -9.808083   55.520450   23.143295
 H  -12.419786   54.393870   21.978932
 H  -10.781071   53.945948   21.492702
 H  -12.423256   51.721300   26.015378
 H  -13.327660   53.387557   24.390266
 H   -8.599350   52.912838   22.441187
 H   -7.051450   51.358826   23.562696
 H   -7.745773   50.082911   25.529560
 H  -10.027881   50.312031   26.455053
