81 
4eki_ligand_xtb.xyz
 C   -4.262134    1.446272    0.773694
 C   -2.262886    2.213398    0.176359
 C   -2.823162    3.441239   -0.233910
 C   -4.220078    3.564359   -0.078731
 C    6.063223    2.353931   -0.704700
 C    4.532088    2.398145   -0.606754
 C    4.117342    3.196692    0.640097
 C    3.997651    3.127568   -1.842400
 C    3.999090    0.978890   -0.486650
 C    3.075586    0.436297   -1.371707
 C    2.581123   -0.847888   -1.216088
 C    4.436216    0.165291    0.558165
 C    3.955238   -1.116285    0.724628
 C    3.006588   -1.629434   -0.153349
 N    2.509518   -2.925394    0.100430
 C    1.330060   -3.437035   -0.317819
 O    0.605355   -2.908704   -1.165848
 N    0.927496   -4.580649    0.295771
 C   -0.291414   -5.253527   -0.103681
 C   -1.535768   -4.764581    0.670416
 C   -2.455507   -3.829560   -0.117829
 N   -1.875604   -2.494696   -0.378089
 C   -2.513492   -1.762824   -1.527491
 C   -2.070844   -2.375321   -2.849160
 C   -4.030078   -1.712666   -1.414291
 C   -1.840081   -1.649194    0.839876
 C   -0.538350   -0.867965    0.967753
 O   -0.354020   -0.008904   -0.142458
 C   -0.534459    0.024793    2.231430
 O   -0.085505   -0.644582    3.360911
 C    0.378481    1.177376    1.777019
 O    1.695538    0.767785    2.040739
 C    0.073620    1.266238    0.263883
 N   -0.916955    2.265035   -0.042988
 C   -0.624762    3.500730   -0.581717
 C   -1.752704    4.244706   -0.711348
 N   -2.968331    1.191871    0.679388
 N   -4.909674    2.541299    0.433158
 N   -4.908700    4.659594   -0.433860
 H   -4.873104    0.654068    1.189099
 H    6.456992    3.357357   -0.846280
 H    6.510404    1.940066    0.194264
 H    6.367376    1.742689   -1.551139
 H    3.032602    3.300601    0.687352
 H    4.545204    4.195447    0.598153
 H    4.466785    2.721222    1.553339
 H    4.288501    2.613029   -2.754589
 H    2.913362    3.218904   -1.816941
 H    4.414475    4.131420   -1.876969
 H    2.724624    1.005729   -2.216749
 H    1.859404   -1.229556   -1.916830
 H    5.166087    0.531099    1.263205
 H    4.313293   -1.719674    1.546733
 H    3.025100   -3.438670    0.802139
 H    1.505203   -5.021839    0.991243
 H   -0.427323   -5.093607   -1.176909
 H   -0.149219   -6.320401    0.066864
 H   -1.209040   -4.294137    1.599025
 H   -2.136601   -5.631720    0.945377
 H   -2.679748   -4.295675   -1.077758
 H   -3.390332   -3.698656    0.431090
 H   -0.868668   -2.649165   -0.708836
 H   -2.107109   -0.750321   -1.461458
 H   -0.989628   -2.474730   -2.882057
 H   -2.374031   -1.722572   -3.662374
 H   -2.525985   -3.347415   -3.024180
 H   -4.353592   -1.340266   -0.446687
 H   -4.480802   -2.685909   -1.590334
 H   -4.411880   -1.029803   -2.167909
 H   -1.949621   -2.263971    1.732659
 H   -2.647587   -0.912181    0.805105
 H    0.322375   -1.548119    1.034027
 H   -1.546008    0.393060    2.423673
 H    0.877982   -0.546429    3.393406
 H    0.145545    2.123411    2.280589
 H    2.327502    1.431696    1.740367
 H    0.984029    1.520722   -0.298950
 H    0.387529    3.750068   -0.833382
 H   -1.815458    5.240560   -1.101094
 H   -5.896810    4.681595   -0.252978
 H   -4.440557    5.480022   -0.770889
