46 
4el0_ligand_dft.xyz
 N   -0.226361   -0.397710   -0.511625
 C    0.362006   -1.437775   -1.207133
 O   -0.302830   -2.322813   -1.747870
 N    1.729629   -1.427371   -1.246454
 C    2.477211   -0.238406   -0.941276
 C    1.842521    0.455805    0.234568
 O    3.805200   -0.542571   -0.521546
 C    0.520287    0.387215    0.390033
 C    2.962510    0.858290    1.065996
 C    4.048464    0.215980    0.600274
 C    5.452969    0.173346    1.089506
 C   -1.678698   -0.345444   -0.498170
 C    6.457447    0.765021    0.088587
 C    7.894422    0.662632    0.594079
 C   -2.308996   -1.226729    0.589447
 O   -2.028103   -2.598485    0.446099
 C   -3.819278   -1.013189    0.559033
 O   -4.462930   -1.726412    1.590512
 C   -4.160046    0.458734    0.721675
 O   -5.542283    0.687405    0.587087
 C   -3.433450    1.250853   -0.362716
 O   -2.028825    0.997791   -0.284215
 C   -3.586096    2.755766   -0.227852
 O   -2.883272    3.433130   -1.240870
 H    2.129002   -2.114528   -1.870208
 H    2.569450    0.420189   -1.820775
 H   -0.039712    0.855026    1.188476
 H    2.923796    1.459907    1.962491
 H    5.508145    0.709770    2.042866
 H    5.717730   -0.873411    1.290447
 H   -2.019448   -0.686837   -1.485546
 H    6.198882    1.814413   -0.097284
 H    6.357496    0.241327   -0.868130
 H    8.177637   -0.382767    0.761305
 H    8.598050    1.088984   -0.127573
 H    8.020108    1.197486    1.542373
 H   -1.926682   -0.894495    1.565799
 H   -1.586383   -2.745082   -0.411263
 H   -4.194765   -1.345256   -0.424740
 H   -4.148677   -2.639274    1.523413
 H   -3.797613    0.794023    1.708035
 H   -5.980258    0.022672    1.136280
 H   -3.803406    0.938839   -1.351199
 H   -4.641646    3.017410   -0.323149
 H   -3.245257    3.057175    0.776170
 H   -1.982614    3.083037   -1.221109
