69 
4elf_ligand_dft.xyz
 O   -0.623868   -3.733632   -0.800042
 C   -0.707571   -2.546708   -0.484953
 N   -1.994069   -1.975901   -0.524062
 N   -2.960041   -2.952836   -0.859205
 C   -3.769294   -3.384417    0.320651
 C   -4.336522   -2.178770    1.018125
 C   -5.458325   -2.329281    1.834733
 C   -5.957554   -1.245218    2.542047
 C   -5.334594   -0.002985    2.434805
 C   -4.225443    0.152672    1.615395
 C   -3.718883   -0.933385    0.897480
 C   -2.514993   -0.704187   -0.002930
 C   -2.820091    0.278576   -1.143535
 C   -1.567441    0.688747   -1.911170
 C   -1.852156    1.731003   -2.964884
 F   -2.642437    1.250053   -3.940103
 F   -0.712275    2.153556   -3.538798
 F   -2.470735    2.808798   -2.450983
 C    0.378247   -1.664220   -0.122049
 C    1.642347   -2.113674    0.031144
 C    2.747742   -1.238718    0.394113
 C    4.071112   -1.644146    0.176821
 O    4.283587   -2.908449   -0.246157
 C    5.153163   -3.138530   -1.356059
 C    5.119247   -0.729417    0.444797
 O    6.370549   -1.203318    0.258282
 C    7.464242   -0.347756    0.528793
 C    4.820621    0.563081    0.865781
 C    3.496458    0.961357    1.106614
 C    3.167910    2.379219    1.564924
 C    1.712501    2.729328    1.389715
 C    0.850024    2.892260    2.458183
 N   -0.471184    3.087568    2.357830
 C   -0.936636    3.106453    1.109895
 N   -2.306491    3.219029    0.947765
 N   -0.228297    2.973196   -0.015121
 C    1.090628    2.792018    0.116773
 N    1.773009    2.607159   -1.039959
 C    2.491055    0.043319    0.902572
 H   -2.335816   -3.738582   -1.181311
 H   -3.550045   -2.616924   -1.626947
 H   -4.543010   -4.062335   -0.049591
 H   -3.078846   -3.950663    0.952911
 H   -5.937236   -3.301060    1.920698
 H   -6.828930   -1.368090    3.176246
 H   -5.714672    0.845867    2.993369
 H   -3.732829    1.120020    1.537264
 H   -1.718367   -0.285579    0.616551
 H   -3.270154    1.169294   -0.698646
 H   -3.572278   -0.149916   -1.819200
 H   -1.093859   -0.161880   -2.411131
 H   -0.846391    1.146367   -1.228018
 H    0.159127   -0.610933   -0.014911
 H    1.860402   -3.162828   -0.148442
 H    4.832718   -4.087885   -1.787377
 H    5.048408   -2.344212   -2.102562
 H    6.192196   -3.204544   -1.032929
 H    7.457922    0.529260   -0.129945
 H    8.358859   -0.938155    0.333357
 H    7.464034   -0.023611    1.576168
 H    5.622945    1.272683    1.040892
 H    3.435344    2.495921    2.622270
 H    3.809568    3.087159    1.021346
 H    1.243378    2.852579    3.473410
 H   -2.765298    3.656119    1.736447
 H   -2.576087    3.599378    0.049784
 H    2.777281    2.550756   -1.054400
 H    1.290629    2.798998   -1.904960
 H    1.472625    0.327096    1.134520
