72 
4elg_ligand_dft.xyz
 N   -1.800841    2.684690   -2.136778
 C   -1.062749    2.954307   -1.030364
 C   -1.650818    2.999752    0.260475
 C   -3.106588    2.686612    0.489751
 C   -3.457633    1.228320    0.216057
 C   -4.778800    0.825519   -0.026815
 C   -5.099544   -0.514044   -0.238154
 O   -6.342845   -0.965071   -0.514989
 C   -7.410216   -0.036958   -0.536033
 C   -4.080613   -1.496979   -0.202144
 O   -4.290015   -2.810795   -0.442232
 C   -5.376780   -3.473043    0.208306
 C   -2.759405   -1.088312   -0.003697
 O    0.684521   -3.721192    0.367322
 C   -2.470508    0.265403    0.216289
 C   -0.768323    3.275457    1.285991
 N    0.539763    3.518459    1.124737
 C    0.961675    3.475920   -0.139779
 N    2.312876    3.691436   -0.349686
 N    0.239843    3.185474   -1.225397
 C   -1.666075   -2.054479    0.022487
 C   -0.411808   -1.705810   -0.325108
 C    0.722900   -2.558974   -0.031896
 N    1.992985   -1.980042   -0.196699
 N    2.995149   -2.831938    0.326562
 C    4.131344   -2.951238   -0.624588
 C    2.365067   -0.559102   -0.340550
 C    1.952407    0.294146    0.875801
 C    2.354526   -0.188546    2.275871
 C    1.583879    0.642761    3.308180
 C    3.832858   -0.452579   -0.742003
 C    4.665368   -1.567405   -0.881399
 C    6.002133   -1.408446   -1.247981
 C    6.515054   -0.143508   -1.494459
 C    5.687340    0.969788   -1.366728
 C    4.359686    0.817292   -0.991143
 C    3.862533   -0.102419    2.541940
 H   -2.697334    2.233061   -2.054190
 H   -1.302450    2.577700   -3.006827
 H   -3.361673    2.928303    1.529002
 H   -3.738775    3.335290   -0.131860
 H   -5.561226    1.577000   -0.051504
 H   -7.529217    0.455428    0.436439
 H   -7.265037    0.718588   -1.317443
 H   -8.304589   -0.617714   -0.759810
 H   -5.511787   -3.091922    1.225637
 H   -6.302956   -3.352448   -0.353789
 H   -5.095550   -4.526383    0.247032
 H   -1.451430    0.556112    0.439942
 H   -1.130154    3.307153    2.313346
 H    2.752721    4.214720    0.395830
 H    2.528174    4.035020   -1.276345
 H   -1.868461   -3.062425    0.375453
 H   -0.221950   -0.730144   -0.755017
 H    3.318792   -2.485971    1.239941
 H    2.450397   -3.717737    0.481625
 H    4.875864   -3.608631   -0.167883
 H    3.726026   -3.432064   -1.518778
 H    1.791109   -0.202519   -1.201822
 H    2.335054    1.307846    0.722245
 H    0.861420    0.388735    0.853379
 H    2.021980   -1.234087    2.402198
 H    0.503975    0.494869    3.200789
 H    1.786420    1.710478    3.167389
 H    1.865101    0.366481    4.329021
 H    6.642793   -2.281763   -1.338242
 H    7.555407   -0.025006   -1.777644
 H    6.081085    1.963070   -1.555864
 H    3.724066    1.694238   -0.888397
 H    4.090749   -0.410503    3.567104
 H    4.209660    0.929074    2.416529
 H    4.468641   -0.714547    1.862694
