72 
4elh_ligand_dft.xyz
 O   -0.700324   -3.738447    0.167846
 C   -0.764370   -2.597585   -0.283779
 N   -2.047191   -2.022513   -0.399031
 N   -3.009970   -2.847101    0.235119
 C   -4.249590   -2.922009   -0.580821
 C   -4.764409   -1.518824   -0.767582
 C   -6.125438   -1.315369   -0.996991
 C   -6.621214   -0.032315   -1.176115
 C   -5.752191    1.054970   -1.115406
 C   -4.399391    0.858084   -0.875238
 C   -3.888929   -0.430712   -0.698866
 C   -2.392018   -0.587717   -0.457102
 C   -1.826912    0.216963    0.731495
 C   -2.083737   -0.304400    2.152299
 C   -1.191399    0.479011    3.121655
 C   -3.552115   -0.203352    2.584917
 C    0.341382   -1.757429   -0.695117
 C    1.602574   -2.029063   -0.305012
 C    2.700643   -1.080523   -0.431080
 C    4.023501   -1.522956   -0.316708
 O    4.221565   -2.856685   -0.231982
 C    5.180553   -3.374232    0.691801
 C    5.070461   -0.570730   -0.370299
 O    6.326216   -1.069563   -0.327510
 C    7.414090   -0.169069   -0.402421
 C    4.766165    0.782832   -0.471594
 C    3.439252    1.228554   -0.569071
 C    3.127201    2.715799   -0.682339
 C    1.677270    3.058624   -0.460089
 C    0.839820    3.431722   -1.495144
 N   -0.466196    3.689443   -1.368009
 C   -0.937668    3.575977   -0.125706
 N   -2.295336    3.777182    0.040047
 N   -0.254848    3.232202    0.970106
 C    1.044273    2.960307    0.804079
 N    1.711173    2.536697    1.910840
 C    2.430767    0.290473   -0.567333
 H   -3.219175   -2.495210    1.179482
 H   -2.480727   -3.746610    0.341045
 H   -3.967224   -3.408160   -1.518204
 H   -4.958153   -3.557586   -0.043148
 H   -6.798793   -2.167723   -1.034510
 H   -7.679872    0.120317   -1.356173
 H   -6.132128    2.061805   -1.254392
 H   -3.731550    1.715064   -0.823390
 H   -1.904308   -0.218789   -1.364706
 H   -2.201458    1.242613    0.652393
 H   -0.742951    0.289017    0.592892
 H   -1.758038   -1.357993    2.211413
 H   -1.400190    1.551987    3.044879
 H   -1.359942    0.162191    4.155636
 H   -0.132593    0.332672    2.882971
 H   -3.677703   -0.553574    3.614347
 H   -4.242531   -0.771131    1.949029
 H   -3.887167    0.838828    2.541262
 H    0.113296   -0.848869   -1.237989
 H    1.811553   -2.977191    0.183452
 H    4.860937   -4.396513    0.898950
 H    5.181413   -2.794655    1.620594
 H    6.180441   -3.374828    0.258118
 H    7.398289    0.393608   -1.343366
 H    8.312420   -0.784691   -0.365070
 H    7.415680    0.527809    0.444450
 H    5.567402    1.514511   -0.492846
 H    3.418574    3.064969   -1.680864
 H    3.767886    3.274746    0.014848
 H    1.243830    3.528514   -2.502541
 H   -2.707630    4.347389   -0.686518
 H   -2.560801    4.043867    0.978363
 H    2.715673    2.469360    1.908086
 H    1.257764    2.678761    2.800380
 H    1.403259    0.629509   -0.613801
