26 
4en4_ligand_xtb.xyz
 C   -0.163536   -1.939990    0.225869
 N   -1.469789   -1.794880    0.351472
 C   -2.023543   -0.624908    0.099842
 C   -1.256605    0.483878   -0.301859
 C    0.122632    0.332279   -0.462876
 C    0.682436   -0.918978   -0.177082
 C    1.020439    1.472356   -0.893091
 O    1.876660    1.932205    0.133825
 C    1.196815    2.507355    1.223375
 C    2.164411   -1.145910   -0.301601
 O    2.503544   -2.436324    0.152121
 C   -3.506919   -0.517051    0.267500
 O   -1.916162    1.657578   -0.511652
 H    0.234374   -2.915857    0.457508
 H    0.439270    2.321255   -1.292183
 H    1.689487    1.132349   -1.688528
 H    0.624814    3.391592    0.912073
 H    0.517839    1.791994    1.700899
 H    1.961509    2.808824    1.935764
 H    2.693569   -0.376417    0.278139
 H    2.454260   -1.026847   -1.359852
 H    3.459099   -2.537324    0.102735
 H   -3.998465   -1.250944   -0.367035
 H   -3.775614   -0.739015    1.298074
 H   -3.848260    0.479476    0.007963
 H   -1.292473    2.363201   -0.720683
