49 
4eo4_ligand_xtb.xyz
 N    3.004311    0.447582   -0.006670
 C    3.226884   -1.006087    0.196589
 C    4.454567   -1.131155    1.112999
 O    5.409522   -0.214493    0.619198
 C    2.001195   -1.678894    0.833013
 O    1.986089   -2.041744    1.977709
 N    0.929425   -1.802752    0.003285
 S    0.789085   -1.290246   -1.601455
 O    0.837513    0.144935   -1.550927
 O    1.794362   -1.945745   -2.343689
 O   -0.617396   -1.806296   -1.982480
 C   -1.762585   -0.979094   -1.768499
 C   -2.567181   -1.437900   -0.544312
 O   -1.761763   -1.513803    0.624043
 C   -3.737060   -0.477124   -0.243557
 O   -4.921066   -1.216848   -0.283332
 C   -3.448980    0.071109    1.189673
 O   -4.374189   -0.376288    2.120126
 C   -2.023809   -0.440693    1.502568
 N   -1.002746    0.571439    1.355682
 C    0.224613    0.511136    1.939091
 N    1.069525    1.392051    1.478178
 C    0.362150    2.114418    0.539346
 C    0.674451    3.197396   -0.305025
 N    1.879275    3.802415   -0.333033
 N   -0.260925    3.606083   -1.160210
 C   -1.434255    3.008326   -1.184958
 N   -1.856531    2.009607   -0.424862
 C   -0.933429    1.590300    0.436168
 H    2.424843    0.895016    0.803561
 H    3.950578    0.855571   -0.072434
 H    2.434581    0.617161   -0.855467
 H    3.423687   -1.473970   -0.773791
 H    4.169808   -0.882340    2.143528
 H    4.823730   -2.159523    1.091728
 H    6.271168   -0.398275    1.005634
 H    0.079844   -2.178758    0.419438
 H   -1.425486    0.054299   -1.654562
 H   -2.382626   -1.070100   -2.662972
 H   -2.955571   -2.446792   -0.723105
 H   -3.747244    0.349581   -0.962278
 H   -5.681335   -0.629507   -0.183154
 H   -3.471051    1.162672    1.211139
 H   -4.677891   -1.263994    1.872074
 H   -1.963662   -0.828930    2.526400
 H    0.459841   -0.200325    2.706741
 H    2.472367    3.742900    0.477502
 H    1.932829    4.642118   -0.888934
 H   -2.144037    3.383989   -1.908111
