58 
4eo6_ligand_xtb.xyz
 C    1.326813   -3.931082   -0.630689
 C    1.455994   -2.786329   -1.630134
 C    2.515941   -0.654127   -1.098210
 C    0.381820   -2.866110   -2.712752
 C    2.433523    0.681764   -0.383438
 C    1.930171    1.734408   -1.377851
 C    1.883738    3.108065   -0.717258
 C    3.262823    3.511039   -0.193981
 C    3.766647    2.453622    0.789358
 C    3.813549    1.074323    0.142131
 C   -3.131960    0.022618    0.073822
 C   -0.881638   -0.707639   -0.683871
 C   -1.841981   -0.473362    0.264587
 S   -1.262357   -0.849149    1.857981
 C    0.290667   -1.320860    1.229962
 C    0.333468   -1.183818   -0.149685
 N    1.442465   -1.489262   -0.948014
 C    1.389518   -1.735135    2.108989
 O    1.092268   -1.875925    3.416004
 O    2.505913   -1.938062    1.711510
 O    3.438894   -0.940862   -1.829384
 C    3.214463    4.888148    0.462117
 C   -4.245059    0.464243   -0.066528
 C   -5.581429    0.996983   -0.264862
 C   -5.604424    1.805863   -1.567542
 C   -6.569379   -0.173593   -0.351712
 C   -5.934491    1.897732    0.925286
 H    2.073753   -3.826489    0.151334
 H    0.337063   -3.943788   -0.175839
 H    1.482521   -4.878393   -1.139686
 H    2.443497   -2.826709   -2.101432
 H   -0.614887   -2.901599   -2.276313
 H    0.450955   -2.010073   -3.379985
 H    0.528833   -3.769252   -3.299039
 H    1.738530    0.628357    0.456867
 H    0.934361    1.461060   -1.738494
 H    2.605547    1.757615   -2.235323
 H    1.174125    3.087238    0.114758
 H    1.529675    3.849041   -1.437865
 H    3.954343    3.551284   -1.042793
 H    3.102962    2.426044    1.658122
 H    4.763353    2.725198    1.142515
 H    4.519516    1.069688   -0.689585
 H    4.142129    0.326348    0.866081
 H   -1.041159   -0.520922   -1.729998
 H    0.166874   -1.688900    3.622569
 H    2.866804    5.638646   -0.244646
 H    2.537211    4.880284    1.314078
 H    4.201873    5.178329    0.813445
 H   -4.896895    2.630673   -1.517341
 H   -5.338360    1.175569   -2.413255
 H   -6.599914    2.210689   -1.734491
 H   -6.317094   -0.824953   -1.185505
 H   -6.546706   -0.760950    0.563534
 H   -7.578268    0.205125   -0.497975
 H   -5.899359    1.333795    1.854870
 H   -5.233110    2.726063    0.998463
 H   -6.936962    2.300457    0.799854
