58 
4eo6_ligand_dft.xyz
 C    1.841821   -3.819712   -0.768536
 C    1.541817   -2.680880   -1.742403
 C    2.591538   -0.574747   -1.024058
 C    0.295791   -2.953650   -2.581298
 C    2.479642    0.766400   -0.316319
 C    1.928852    1.811865   -1.304506
 C    1.851837    3.194259   -0.654379
 C    3.205060    3.644576   -0.090504
 C    3.749279    2.587254    0.878167
 C    3.839020    1.202528    0.235067
 C   -3.175547    0.021926    0.060859
 C   -0.884812   -0.615866   -0.735156
 C   -1.861925   -0.479584    0.215727
 S   -1.283455   -0.986527    1.774369
 C    0.269405   -1.402464    1.127311
 C    0.338311   -1.133303   -0.223408
 N    1.461426   -1.383476   -1.041374
 C    1.369824   -1.906837    1.985997
 O    1.000408   -2.658014    3.045515
 O    2.532124   -1.667682    1.785462
 O    3.595093   -0.893822   -1.637276
 C    3.104414    5.017073    0.572310
 C   -4.299553    0.450693   -0.063395
 C   -5.664098    0.978576   -0.224840
 C   -5.706126    1.885933   -1.468600
 C   -6.644494   -0.196572   -0.400573
 C   -6.039670    1.790603    1.028922
 H    2.747999   -3.603710   -0.197361
 H    1.011679   -3.971199   -0.067170
 H    1.986970   -4.756191   -1.317159
 H    2.398337   -2.561766   -2.407618
 H   -0.593936   -3.102824   -1.958962
 H    0.101033   -2.130945   -3.276780
 H    0.446515   -3.865511   -3.167708
 H    1.779757    0.691604    0.521923
 H    0.937221    1.509145   -1.663400
 H    2.590577    1.847036   -2.180154
 H    1.116502    3.168383    0.164244
 H    1.485383    3.929076   -1.382395
 H    3.908913    3.717625   -0.933890
 H    3.090588    2.542037    1.759086
 H    4.737463    2.892250    1.244192
 H    4.565137    1.211461   -0.585650
 H    4.186180    0.461313    0.961507
 H   -1.025383   -0.348814   -1.774524
 H    0.067284   -2.905845    2.984042
 H    2.739812    5.774211   -0.131351
 H    2.410189    4.987098    1.421623
 H    4.078756    5.347278    0.949545
 H   -5.012665    2.725952   -1.364214
 H   -5.437271    1.327240   -2.370384
 H   -6.717756    2.286112   -1.598735
 H   -6.391056   -0.789237   -1.284894
 H   -6.626243   -0.856036    0.472549
 H   -7.663257    0.188156   -0.522094
 H   -6.011099    1.163476    1.925352
 H   -5.351610    2.629144    1.173227
 H   -7.054033    2.189963    0.918954
