37 
4eon_ligand_xtb.xyz
 O    0.589577    0.700458   -1.206980
 C   -0.168054   -0.135050   -0.777627
 N   -1.501730   -0.181302   -1.079818
 C   -2.145327   -1.142636   -0.531404
 N   -3.435950   -1.400658   -0.712679
 C   -4.302033   -0.454292   -1.398701
 C   -4.830351    0.571284   -0.450551
 C   -4.221017    1.719401   -0.048458
 C   -4.966252    2.426558    0.921544
 C   -6.124704    1.801178    1.248402
 S   -6.335232    0.333432    0.380998
 S   -1.191359   -2.233930    0.504578
 C    0.234390   -1.263966    0.138987
 C    1.441893   -1.660226    0.582383
 C    2.753096   -1.064247    0.427657
 C    3.865689   -1.945301    0.482422
 C    5.142352   -1.490549    0.347621
 C    5.392984   -0.111976    0.170347
 N    6.664924    0.308728    0.035335
 C    6.883660    1.583666   -0.127246
 C    5.869883    2.558817   -0.168683
 C    4.569737    2.157501   -0.027769
 C    4.289414    0.784985    0.146841
 C    2.982160    0.287531    0.281280
 H   -3.867890   -2.101840   -0.129451
 H   -5.115750   -1.013648   -1.864330
 H   -3.692423    0.031445   -2.163752
 H   -3.272148    2.041910   -0.437715
 H   -4.651830    3.359467    1.353279
 H   -6.877587    2.107738    1.946858
 H    1.458343   -2.600948    1.124274
 H    3.681295   -3.001944    0.617032
 H    5.987766   -2.160056    0.375581
 H    7.922013    1.872448   -0.234245
 H    6.127584    3.597273   -0.310739
 H    3.751241    2.862884   -0.057168
 H    2.162407    0.986131    0.264857
