114 
4ep2_ligand_xtb.xyz
 N   -0.953632   -2.911110   -2.091948
 C   -0.473908   -4.159086   -1.445686
 C   -0.818842   -4.101319    0.055556
 O   -1.571721   -4.905886    0.564531
 C    1.015607   -4.342416   -1.691442
 N   -0.229154   -3.104874    0.730912
 C   -0.541999   -2.839615    2.129359
 C   -1.838993   -2.015104    2.075424
 O   -1.863525   -0.793622    2.095998
 C    0.644274   -2.173295    2.824990
 C    0.900047   -0.728258    2.390218
 C    2.360888   -0.418221    2.142538
 O    3.171339   -1.220085    1.736847
 O    2.614770    0.856329    2.348523
 N   -2.934866   -2.772509    1.897872
 C   -4.164288   -2.244592    1.297597
 C   -3.749439   -1.758412   -0.098319
 O   -3.257027   -2.573371   -0.883335
 C   -4.939495   -1.231499    2.177592
 O   -4.405273    0.070346    2.148541
 C   -5.051989   -1.758358    3.607254
 N   -3.866358   -0.470857   -0.380787
 C   -3.542606    0.049350   -1.691859
 C   -2.031236    0.130166   -1.933739
 O   -1.514696   -0.248581   -2.969277
 C   -4.140284    1.457643   -1.847110
 C   -5.619061    1.428453   -1.565594
 C   -6.108237    1.824998   -0.327369
 C   -6.506840    0.962697   -2.527349
 C   -7.464579    1.758987   -0.057583
 C   -7.861807    0.897146   -2.257399
 C   -8.343046    1.292978   -1.020217
 N   -1.337425    0.680663   -0.925378
 C   -0.008025    1.226118   -1.111091
 C    1.030359    0.108683   -1.134169
 O    0.707873   -1.078312   -1.005860
 C    0.294823    2.269650   -0.009011
 C   -0.943246    3.069510    0.298253
 C   -1.795963    2.668618    1.325588
 C   -1.308130    4.156047   -0.484527
 C   -2.986803    3.326541    1.558131
 C   -2.494269    4.828250   -0.253819
 C   -3.348655    4.413692    0.763779
 O   -4.532329    5.016233    1.013284
 N    2.291432    0.472282   -1.291300
 C    3.398171   -0.461476   -1.234668
 C    4.586231    0.333818   -0.701761
 O    4.716768    1.518672   -0.949271
 C    3.683138   -1.083697   -2.623293
 C    4.775649   -2.143316   -2.520685
 C    4.046018   -0.019360   -3.654167
 N    5.462858   -0.363697    0.038408
 C    6.604395    0.326054    0.607009
 C    6.132954    1.656475    1.198178
 O    5.129381    1.752951    1.865784
 C    7.721480    0.521481   -0.420053
 C    9.013985    0.900971    0.275831
 O    9.256266    0.675039    1.429051
 O    9.861190    1.492800   -0.557783
 O    6.948821    2.658891    0.965213
 H   -1.946331   -2.709023   -1.774483
 H   -0.936357   -2.965809   -3.112095
 H   -0.359745   -2.095205   -1.802361
 H   -1.038867   -5.003175   -1.852572
 H    1.571362   -3.477454   -1.339425
 H    1.373352   -5.223092   -1.166091
 H    1.212208   -4.478429   -2.752415
 H    0.335643   -2.411505    0.255039
 H   -0.750447   -3.803430    2.606759
 H    1.533442   -2.768356    2.600511
 H    0.481570   -2.210224    3.901743
 H    0.515249   -0.013910    3.116009
 H    0.391153   -0.529546    1.445435
 H    3.559341    1.112828    2.205353
 H   -2.787652   -3.768807    1.768764
 H   -4.816305   -3.109861    1.148053
 H   -5.942729   -1.132516    1.744399
 H   -3.463247    0.008016    2.406057
 H   -4.066681   -1.841089    4.060280
 H   -5.646564   -1.066473    4.196959
 H   -5.530420   -2.732872    3.619035
 H   -4.252163    0.153278    0.332244
 H   -3.961266   -0.622725   -2.451276
 H   -3.952203    1.798057   -2.866735
 H   -3.641660    2.140573   -1.155663
 H   -5.434178    2.204418    0.426930
 H   -6.134743    0.658223   -3.495177
 H   -7.832341    2.075279    0.906447
 H   -8.543463    0.539385   -3.014022
 H   -9.400539    1.243433   -0.810758
 H   -1.804989    0.912305   -0.057886
 H    0.013967    1.705658   -2.100008
 H    0.635231    1.764842    0.895942
 H    1.093481    2.927672   -0.351356
 H   -1.520497    1.839143    1.961590
 H   -0.659414    4.487069   -1.281908
 H   -3.649836    3.015931    2.349331
 H   -2.762248    5.677595   -0.866643
 H   -4.662658    5.773705    0.429928
 H    2.577199    1.440926   -1.382170
 H    3.141063   -1.262021   -0.533308
 H    2.752079   -1.568538   -2.938854
 H    5.730636   -1.686792   -2.275870
 H    4.535676   -2.883811   -1.760849
 H    4.880800   -2.655578   -3.473322
 H    3.225963    0.679967   -3.796709
 H    4.259186   -0.490553   -4.609923
 H    4.924914    0.539093   -3.344076
 H    5.193066   -1.259273    0.414878
 H    6.995732   -0.262829    1.444716
 H    7.895503   -0.416716   -0.951864
 H    7.463272    1.290417   -1.147140
 H   10.692857    1.720277   -0.110946
 H    6.631232    3.479189    1.378744
