111 
4er2_ligand_xtb.xyz
 C   -6.057644   -1.458555   -1.153976
 C   -6.237306   -2.110244    0.230500
 C   -7.373205   -3.128677    0.175055
 C   -6.518338   -1.063765    1.306176
 C   -4.792192   -0.637625   -1.182024
 O   -3.690706   -1.142120   -1.366249
 N   -4.949178    0.681245   -0.987313
 C   -3.819580    1.576089   -0.791065
 C   -3.348473    1.344615    0.656776
 O   -3.961243    1.783709    1.612882
 C   -4.236562    3.028711   -1.034041
 C   -4.724692    3.211973   -2.468471
 C   -3.061900    3.959366   -0.745475
 N   -2.259380    0.572257    0.752382
 C   -1.755779    0.090492    2.026058
 C   -0.230861    0.058867    1.912367
 O    0.439134   -0.955243    2.050152
 C   -2.416450   -1.245353    2.428084
 C   -1.940994   -1.682821    3.811197
 C   -2.189884   -2.342494    1.391412
 N    0.281437    1.267365    1.651652
 C    1.651557    1.603175    1.269848
 C    1.737278    3.115854    1.061130
 C    0.755002    3.699683    0.034054
 C    1.052662    5.190701   -0.122401
 C    0.861621    2.996624   -1.316563
 C    2.647791    1.070600    2.339296
 O    2.968002   -0.277844    2.081050
 C    3.981638    1.832365    2.420034
 C    4.745862    1.708750    1.110660
 O    4.791886    2.591184    0.277588
 N    5.362034    0.517035    0.968537
 C    5.991844    0.106995   -0.262089
 C    5.043048   -0.619919   -1.225101
 O    5.403256   -0.881390   -2.363322
 C    7.191193   -0.793809    0.020804
 N    3.841322   -0.954219   -0.743084
 C    2.865608   -1.703937   -1.524307
 C    1.956670   -2.480060   -0.573386
 C    2.711788   -3.410282    0.387480
 C    3.496051   -4.485869   -0.361132
 C    1.712582   -4.054955    1.346324
 C    2.119861   -0.730467   -2.466840
 O    2.923647   -0.384213   -3.570391
 C    0.816144   -1.292293   -3.046730
 C   -0.406379   -1.078092   -2.196346
 O   -0.519147   -0.202076   -1.363100
 O   -1.369175   -1.921706   -2.494595
 H   -5.963039   -2.246128   -1.903303
 H   -6.926679   -0.843432   -1.391625
 H   -5.307759   -2.632761    0.479198
 H   -7.165895   -3.900523   -0.562261
 H   -8.309011   -2.640772   -0.090186
 H   -7.499078   -3.606087    1.143680
 H   -6.658843   -1.549693    2.268914
 H   -5.697466   -0.357635    1.406628
 H   -7.427325   -0.511154    1.073298
 H   -5.844195    1.028662   -0.677528
 H   -3.032719    1.278538   -1.490892
 H   -5.046826    3.264696   -0.335176
 H   -5.544037    2.534756   -2.697226
 H   -3.914502    3.016530   -3.167603
 H   -5.069624    4.231682   -2.619866
 H   -2.205159    3.691978   -1.359752
 H   -3.336415    4.988486   -0.962882
 H   -2.779593    3.897993    0.302456
 H   -1.805688    0.206329   -0.083026
 H   -2.034216    0.837328    2.783530
 H   -3.492236   -1.038066    2.483572
 H   -0.881101   -1.917978    3.789885
 H   -2.112833   -0.897123    4.544100
 H   -2.484305   -2.570278    4.125997
 H   -2.618706   -2.061728    0.433245
 H   -2.665227   -3.263107    1.722546
 H   -1.129160   -2.531505    1.261845
 H   -0.381145    2.017224    1.523349
 H    1.887417    1.093858    0.326217
 H    2.741947    3.349137    0.709017
 H    1.579667    3.612644    2.022531
 H   -0.276338    3.607941    0.397331
 H    0.989281    5.701039    0.836345
 H    2.053564    5.332076   -0.522261
 H    0.340274    5.652232   -0.802166
 H    0.317366    3.556670   -2.074051
 H    0.442262    1.994452   -1.276335
 H    1.902246    2.935520   -1.626638
 H    2.154287    1.153178    3.322173
 H    2.113098   -0.771657    2.085630
 H    3.812234    2.880666    2.652139
 H    4.565882    1.380735    3.222980
 H    5.187021   -0.195418    1.661853
 H    6.318596    1.018536   -0.776228
 H    6.873353   -1.684439    0.560616
 H    7.931499   -0.264492    0.615014
 H    7.640514   -1.098516   -0.920008
 H    3.563072   -0.674840    0.193013
 H    3.423986   -2.398745   -2.164362
 H    1.261993   -3.084776   -1.157107
 H    1.368120   -1.772245    0.012389
 H    3.414926   -2.817014    0.980421
 H    4.296638   -4.052345   -0.955054
 H    2.838208   -5.047144   -1.021496
 H    3.943160   -5.181721    0.345404
 H    1.159684   -3.290903    1.885300
 H    2.227641   -4.682285    2.070003
 H    1.005050   -4.673989    0.798458
 H    1.872675    0.180744   -1.895166
 H    3.862638   -0.503168   -3.342581
 H    0.642093   -0.743282   -3.978104
 H    0.907137   -2.344881   -3.311226
 H   -2.215047   -1.715833   -2.026135
