61 
4erf_ligand_dft.xyz
 C    2.867085   -1.748988    0.060613
 C    4.248705   -1.813090    0.179862
Cl    4.951822   -2.915821    1.340242
 C    5.081563   -1.019091   -0.601476
 C    4.502692   -0.145499   -1.514681
 C    3.118738   -0.071742   -1.643584
 C    2.288358   -0.873887   -0.862060
 C    0.780506   -0.774923   -0.987774
 C    0.110843   -2.110066   -1.288314
 C   -1.412650   -1.973686   -1.400194
 C   -1.802744   -1.095085   -2.624529
 C   -3.268355   -0.727390   -2.634121
 O   -4.161171   -1.378225   -3.114562
 O   -3.476478    0.455492   -2.016065
 C   -2.034977   -3.366812   -1.559450
 C   -1.967690   -1.338309   -0.118662
 O   -3.096314   -1.659799    0.258585
 N   -1.207812   -0.451022    0.568582
 C   -1.715172    0.110343    1.848408
 C   -2.889101    1.072470    1.630754
 C   -3.302880    1.790407    2.913930
 C   -1.988940   -0.950561    2.951414
 O   -3.308305   -1.433680    2.962819
 C   -0.968878   -2.090604    2.941034
 C    0.193494   -0.112316    0.282557
 C    0.399723    1.389752    0.180866
 C    1.485130    1.993844    0.810363
 C    1.736421    3.353791    0.653894
 C    0.885097    4.110224   -0.140951
Cl    1.187831    5.819341   -0.344179
 C   -0.207318    3.528890   -0.778206
 C   -0.440869    2.169491   -0.616190
 H    2.249314   -2.380193    0.692519
 H    6.158184   -1.085800   -0.491664
 H    5.137819    0.485287   -2.128598
 H    2.678580    0.625081   -2.351304
 H    0.581650   -0.102779   -1.827358
 H    0.330733   -2.835524   -0.494772
 H    0.520735   -2.526870   -2.215865
 H   -1.224243   -0.169176   -2.646487
 H   -1.589678   -1.661280   -3.535539
 H   -4.437931    0.582526   -1.973102
 H   -1.826871   -3.983937   -0.680125
 H   -1.603614   -3.858853   -2.437986
 H   -3.116151   -3.308582   -1.685534
 H   -0.876846    0.708469    2.222889
 H   -2.585817    1.806851    0.878274
 H   -3.737731    0.520339    1.222183
 H   -2.449497    2.297218    3.381321
 H   -3.727765    1.085572    3.633766
 H   -4.060666    2.549968    2.698166
 H   -1.876376   -0.412293    3.900364
 H   -3.506180   -1.687333    2.044211
 H   -1.050104   -2.684792    2.024414
 H   -1.163485   -2.753844    3.787549
 H    0.058925   -1.715576    3.024896
 H    0.773107   -0.475360    1.141252
 H    2.152501    1.395439    1.424952
 H    2.583352    3.820677    1.144363
 H   -0.865091    4.134827   -1.391620
 H   -1.300797    1.713977   -1.101538
