40 
4erk_ligand_xtb.xyz
 N    3.936706   -0.081601    0.513813
 C    4.011217   -1.448370    0.531731
 N    2.932745   -2.042708    0.121571
 C    2.070418   -1.021181   -0.194889
 C    2.690202    0.213880    0.049546
 C    0.755308   -0.964171   -0.685213
 N    0.189744    0.225254   -0.864536
 C    0.890459    1.336470   -0.593521
 N    2.140854    1.411773   -0.139246
 C    4.939023    0.867370    0.903661
 N    0.285467    2.524436   -0.863633
 C   -1.144610    2.611690   -1.008457
 C   -1.867709    2.697522    0.345356
 O   -1.466892    1.685450    1.229231
 N    0.054001   -2.073645   -0.990456
 C   -1.303137   -2.009067   -1.470853
 C   -2.132916   -1.740464    0.895386
 C   -3.020173   -1.220383    1.821425
 C   -4.054010   -0.397428    1.408684
 C   -4.193350   -0.093150    0.065305
 C   -3.300719   -0.607048   -0.859391
 C   -2.264322   -1.438096   -0.454274
 H    4.893550   -1.962680    0.860119
 H    4.521250    1.862250    0.758887
 H    5.208021    0.733938    1.953774
 H    5.835551    0.754795    0.290042
 H    0.756765    3.318798   -0.457147
 H   -1.461943    1.705214   -1.528306
 H   -1.389993    3.488302   -1.613526
 H   -2.954133    2.654610    0.170789
 H   -1.632156    3.641348    0.846588
 H   -1.426056    0.853696    0.738249
 H    0.479736   -2.954818   -0.759606
 H   -1.614756   -3.020538   -1.746822
 H   -1.325690   -1.380509   -2.368154
 H   -1.327205   -2.381096    1.223305
 H   -2.904067   -1.458807    2.867868
 H   -4.745589    0.007850    2.131571
 H   -4.998201    0.548118   -0.264082
 H   -3.410646   -0.364078   -1.906954
