40 
4erk_ligand_dft.xyz
 N    4.013620    0.108002    0.426628
 C    4.276862   -1.241881    0.319687
 N    3.252097   -1.955026   -0.058243
 C    2.246246   -1.018562   -0.213256
 C    2.694447    0.265093    0.083099
 C    0.894528   -1.107203   -0.596960
 N    0.163260    0.001768   -0.668932
 C    0.727472    1.178812   -0.325171
 N    1.993080    1.400536    0.060583
 C    4.914416    1.166512    0.822814
 N   -0.094487    2.268144   -0.390583
 C   -1.535794    2.121059   -0.396452
 C   -2.176040    3.475985   -0.614664
 O   -1.752366    4.328688    0.437074
 N    0.299150   -2.291759   -0.878676
 C   -1.066102   -2.373941   -1.352249
 C   -1.932717   -2.106856    1.020175
 C   -2.893957   -1.668361    1.924821
 C   -4.042122   -1.023285    1.471516
 C   -4.221574   -0.821846    0.105987
 C   -3.254845   -1.257963   -0.795341
 C   -2.102331   -1.901325   -0.347669
 H    5.262938   -1.631426    0.539613
 H    5.020312    1.896058    0.015700
 H    4.529134    1.678026    1.708624
 H    5.890901    0.734118    1.050277
 H    0.253353    3.081637    0.097976
 H   -1.905402    1.678932    0.540538
 H   -1.825529    1.442453   -1.202043
 H   -3.270057    3.360639   -0.619285
 H   -1.863865    3.872420   -1.592128
 H   -2.031849    5.226851    0.230717
 H    0.888933   -3.108183   -0.885143
 H   -1.249114   -3.423674   -1.606499
 H   -1.178173   -1.790289   -2.274630
 H   -1.026672   -2.588607    1.377131
 H   -2.743094   -1.825304    2.989028
 H   -4.789826   -0.676448    2.178669
 H   -5.111146   -0.315805   -0.258572
 H   -3.389879   -1.079988   -1.860031
