72 
4est_ligand_dft.xyz
 C    2.181003    3.558346    0.007490
 O    1.284857    3.247493   -0.782111
 C    1.987555    4.653873    1.031167
 N    3.369049    2.924597    0.033636
 C    3.667920    1.782302   -0.804641
 C    4.594511    0.882813    0.021485
 O    5.288953    1.363257    0.911582
 C    4.339694    2.229402   -2.109725
 N    4.614150   -0.444047   -0.256697
 C    3.929764   -1.140999   -1.347039
 C    2.450797   -1.469076   -1.092978
 O    1.778958   -1.929950   -2.004604
 C    4.746623   -2.437093   -1.481969
 C    5.177928   -2.719041   -0.040044
 C    5.511392   -1.327526    0.500805
 N    1.995558   -1.258731    0.162055
 C    0.584544   -1.376113    0.494468
 C   -0.089147   -0.057297    0.056169
 O    0.558927    1.027307    0.663386
 C    0.402395   -1.825805    1.956604
 C    0.948832   -0.843439    2.997861
 C    1.015012   -3.216715    2.143124
 C   -1.595618    0.046466    0.311701
 F   -1.873587    0.126493    1.641359
 F   -2.013760    1.237635   -0.233799
 C   -2.448203   -1.106053   -0.254284
 O   -2.298927   -2.243465    0.165001
 N   -3.338682   -0.747134   -1.200279
 C   -4.370946   -1.676798   -1.624229
 C   -5.478959   -1.828926   -0.566931
 C   -6.154370   -0.513894   -0.264148
 C   -7.268272   -0.103070   -1.000479
 C   -7.859300    1.135634   -0.772578
 C   -7.339043    1.988034    0.197581
 C   -6.228576    1.591477    0.937513
 C   -5.642449    0.349304    0.709811
 H    1.542765    5.521834    0.539880
 H    1.277303    4.296902    1.783560
 H    2.913724    4.950136    1.530182
 H    4.059093    3.117621    0.749104
 H    2.722712    1.276813   -1.020246
 H    5.265984    2.767148   -1.885883
 H    3.661274    2.896390   -2.647250
 H    4.581105    1.384841   -2.762010
 H    3.953953   -0.564890   -2.274010
 H    5.622476   -2.249571   -2.112405
 H    4.155109   -3.232402   -1.938349
 H    6.026941   -3.402857    0.026759
 H    4.344255   -3.155298    0.520659
 H    6.553035   -1.046830    0.307156
 H    5.333003   -1.215141    1.572989
 H    2.568699   -0.702946    0.779018
 H    0.184426   -2.164734   -0.145947
 H    0.019442   -0.014287   -1.038221
 H    0.522900    1.799910    0.069322
 H   -0.676543   -1.917821    2.103794
 H    0.755069   -1.229195    4.004602
 H    2.036464   -0.717386    2.910600
 H    0.486039    0.139827    2.903813
 H    2.102503   -3.191793    2.004086
 H    0.598130   -3.932489    1.426559
 H    0.814615   -3.591251    3.152483
 H   -3.483101    0.240716   -1.347660
 H   -3.895990   -2.643151   -1.808369
 H   -4.785639   -1.307363   -2.566295
 H   -5.027993   -2.250953    0.336872
 H   -6.209380   -2.557600   -0.936742
 H   -7.679125   -0.765772   -1.759258
 H   -8.728618    1.434725   -1.351171
 H   -7.798638    2.955284    0.377471
 H   -5.816677    2.249566    1.696944
 H   -4.774361    0.050109    1.292483
