70 
4etz_ligand_dft.xyz
 P    2.334299   -0.356462   -2.683313
 O    3.008620    0.329817   -3.964146
 O    1.882795   -1.744689   -2.852091
 O    1.143655    0.622218   -2.251155
 C    1.285068    2.047017   -2.301311
 C    0.044773    2.704165   -1.739201
 O   -1.097658    2.348030   -2.514037
 C   -0.330158    2.341516   -0.302836
 O    0.369966    3.165578    0.618340
 C   -1.825548    2.660066   -0.290084
 O   -2.029229    4.049098   -0.255444
 C   -2.224850    2.181900   -1.687417
 N   -2.588685    0.763627   -1.666703
 C   -1.946371   -0.287949   -2.286289
 N   -2.465147   -1.448395   -1.985540
 C   -3.500913   -1.150423   -1.128042
 C   -4.299036   -2.019024   -0.321810
 O   -4.237048   -3.237478   -0.215865
 N   -5.203482   -1.278675    0.463192
 C   -5.209420    0.085271    0.592951
 N   -6.125568    0.615861    1.459299
 N   -4.433299    0.882798   -0.094217
 C   -3.594450    0.212250   -0.919094
 P    0.926903    2.525519    1.999004
 O    1.560412    3.550021    2.835044
 O   -0.311842    1.702011    2.519438
 O    1.912229    1.358397    1.483069
 C    3.262842    1.677135    1.153147
 C    3.957369    0.394142    0.752150
 O    4.110302   -0.457385    1.893093
 C    3.186251   -0.455726   -0.262384
 O    3.499144   -0.083471   -1.607089
 C    3.630067   -1.870211    0.112904
 O    4.989427   -2.077297   -0.185602
 C    3.541034   -1.718565    1.631626
 N    2.141657   -1.711096    2.102821
 C    1.720061   -0.942083    3.161943
 N    0.420162   -0.852880    3.256605
 C   -0.057824   -1.621684    2.209897
 C   -1.409776   -1.885395    1.786530
 O   -2.462130   -1.482726    2.254114
 N   -1.403116   -2.731655    0.655498
 C   -0.303546   -3.076731   -0.077494
 N   -0.530758   -3.683257   -1.271961
 N    0.927719   -2.855280    0.328440
 C    0.989210   -2.148872    1.475735
 H    2.945718   -0.256012   -4.730802
 H    2.152342    2.360762   -1.708930
 H    1.436371    2.352524   -3.340018
 H    0.199074    3.789828   -1.791444
 H   -0.153497    1.279259   -0.107719
 H   -2.365370    2.141537    0.507070
 H   -1.466359    4.397141    0.451040
 H   -3.062805    2.760335   -2.082048
 H   -1.095196   -0.122725   -2.927065
 H   -5.766031   -1.846540    1.083994
 H   -5.971098    1.598103    1.639761
 H   -6.352498    0.079756    2.284577
 H   -0.115854    0.842781    2.990729
 H    3.289615    2.388301    0.318032
 H    3.759028    2.131610    2.014641
 H    4.951484    0.628201    0.356021
 H    2.111726   -0.348179   -0.095396
 H    2.978880   -2.641568   -0.296098
 H    5.066300   -2.110223   -1.146888
 H    4.117926   -2.469407    2.172053
 H    2.427477   -0.426195    3.793268
 H   -2.318898   -3.047840    0.332435
 H    0.297254   -3.686695   -1.855178
 H   -1.357860   -3.335730   -1.756297
