91 
4euc_ligand_dft.xyz
 O   -0.895276    1.318203   -1.329862
 O    1.495264    1.554231   -0.645694
 O   -0.270002    3.266739    0.195580
 O   -0.336861    1.021933    1.153476
 O   -4.260987    0.431145   -2.052689
 O   -2.437117   -1.819563   -2.247989
 O   -1.513455   -3.747151   -3.776041
 O   -1.714493   -3.873522   -1.171629
 O    0.030332   -2.367150   -2.286981
 O    1.920585   -0.947398   -1.472650
 O   -0.076594   -1.376988    0.111425
 O    1.552365   -3.275486   -0.589288
 C    4.398256   -2.980572   -0.772876
 C    3.670862   -5.278589   -0.071326
 C    2.328835   -3.284935    0.635643
 C    4.577377   -3.697986    1.655979
 C    3.743532   -3.802870    0.345312
 C   -4.503831    1.078265   -0.822096
 C   -3.181530    1.730986   -0.385550
 C   -2.189492    0.785654   -1.070543
 C   -2.428164   -0.697039   -3.143973
 P    0.096773    1.772332   -0.159704
 P   -1.441592   -3.034677   -2.497792
 P    0.808670   -1.927418   -0.947989
 C    3.545634    4.471617   -0.831273
 C    3.601302    4.058097    0.642989
 C    5.806379   -0.127459    2.022084
 C    5.009104    0.553391    0.906801
 C    4.993081    2.067612    1.050599
 C    4.636641   -2.255919    2.174098
 C   -2.887414    0.535418   -2.400610
 O    5.867061   -4.216962    1.379447
 O    3.686621   -1.767095    2.775033
 O    5.989588    2.699416    1.376682
 N    5.768250   -1.574358    1.882002
 N    3.790392    2.632995    0.776728
 O   -3.132918    3.019229   -0.940467
 C   -6.780291    1.451703    2.848474
 C   -6.596854   -0.827904    3.101900
 C   -5.876999   -0.857371    1.893671
 C   -5.693322    0.371340    1.271045
 C   -4.756547   -1.273770    0.146197
 N   -6.873346   -1.952462    3.800643
 N   -7.038845    0.349002    3.565517
 N   -6.119531    1.564917    1.699342
 N   -4.970868    0.090313    0.136433
 N   -5.283956   -1.878261    1.177327
 C    3.219983    5.947078   -1.028784
 C    1.784888    6.335722   -0.747596
 O    0.895877    5.519707   -0.569252
 C    1.478213    7.811712   -0.706252
 H    0.324484    3.966804   -0.170560
 H   -0.235958    0.042639    1.013836
 H   -1.726021   -4.821236   -1.363813
 H    1.768564    0.012559   -1.239678
 H    4.360544   -1.907037   -0.566569
 H    3.878793   -3.147707   -1.719348
 H    5.442207   -3.281074   -0.899182
 H    3.037714   -5.385953   -0.956981
 H    4.666356   -5.662684   -0.304470
 H    3.245432   -5.894200    0.730441
 H    1.801461   -3.940675    1.333866
 H    2.352602   -2.285923    1.073423
 H    4.072881   -4.286696    2.435024
 H   -5.280592    1.839612   -0.927331
 H   -3.084480    1.745216    0.705283
 H   -2.091782   -0.148968   -0.511485
 H   -3.093928   -0.914446   -3.982308
 H   -1.415069   -0.518134   -3.519510
 H    2.801969    3.856537   -1.350093
 H    4.516168    4.252831   -1.288406
 H    2.674188    4.342439    1.155180
 H    4.435457    4.548827    1.151511
 H    5.376834    0.125299    2.993753
 H    6.843801    0.210506    2.011955
 H    3.991303    0.150332    0.897720
 H    5.465907    0.319116   -0.063352
 H   -2.729963    1.404209   -3.053508
 H    6.300980   -4.401772    2.220618
 H    6.433807   -2.041500    1.282121
 H    3.045539    2.051930    0.406330
 H   -2.336074    3.452852   -0.601618
 H   -7.163369    2.377691    3.270673
 H   -4.205991   -1.755809   -0.649385
 H   -7.253102   -1.851967    4.728193
 H   -6.411624   -2.811254    3.548096
 H    3.411741    6.247538   -2.069152
 H    3.874133    6.588344   -0.421836
 H    1.978439    8.342108   -1.522753
 H    0.400726    7.975788   -0.749192
 H    1.865705    8.225876    0.232557
