70 
4euv_ligand_dft.xyz
 P   -0.519918    1.793298    2.683704
 O   -0.218800    2.613768    3.861617
 O   -0.800075    0.240517    2.829057
 O    0.626715    1.791643    1.548628
 C    1.389150    2.967008    1.279105
 C    2.580863    2.584639    0.424991
 O    3.575808    1.932707    1.228098
 C    2.276971    1.590364   -0.703752
 O    1.911645    2.248416   -1.910860
 C    3.604440    0.852132   -0.837608
 O    4.592024    1.679388   -1.399086
 C    3.944275    0.711402    0.647220
 N    3.140817   -0.356420    1.286983
 C    2.495227   -0.206298    2.490442
 N    1.665566   -1.178691    2.764315
 C    1.781384   -2.040652    1.689629
 C    1.119539   -3.280036    1.408505
 O    0.303331   -3.913511    2.069835
 N    1.520731   -3.766197    0.149482
 C    2.358480   -3.144857   -0.738106
 N    2.497183   -3.750065   -1.951077
 N    3.015263   -2.051532   -0.446517
 C    2.688315   -1.543846    0.762285
 P    0.575229    1.775198   -2.684978
 O    0.298253    2.603118   -3.863489
 O    0.806590    0.214293   -2.828498
 O   -0.569451    1.811298   -1.548427
 C   -1.299734    3.007986   -1.283268
 C   -2.501575    2.660701   -0.428121
 O   -3.515538    2.036395   -1.229424
 C   -2.225033    1.659203    0.701213
 O   -1.839489    2.307860    1.907148
 C   -3.572815    0.959504    0.837930
 O   -4.535099    1.815279    1.400566
 C   -3.919269    0.827494   -0.646147
 N   -3.149047   -0.264550   -1.285770
 C   -2.498332   -0.134700   -2.488788
 N   -1.699933   -1.133048   -2.762398
 C   -1.843689   -1.991012   -1.687926
 C   -1.221941   -3.251001   -1.406823
 O   -0.426414   -3.910456   -2.068017
 N   -1.639197   -3.724206   -0.148112
 C   -2.456436   -3.076072    0.739522
 N   -2.613038   -3.676316    1.952932
 N   -3.078268   -1.962589    0.447821
 C   -2.735007   -1.465807   -0.761041
 H    0.003906   -0.314155    3.005995
 H    1.721908    3.422889    2.215869
 H    0.770463    3.690562    0.737536
 H    3.023537    3.493830    0.004623
 H    1.494788    0.895253   -0.392725
 H    3.511087   -0.102632   -1.356285
 H    4.232876    2.019841   -2.230033
 H    5.005471    0.539768    0.829960
 H    2.651163    0.670591    3.099528
 H    1.083052   -4.626833   -0.152415
 H    1.623535   -4.099526   -2.338517
 H    3.027609   -3.186877   -2.602159
 H   -0.013876   -0.315990   -3.004310
 H   -1.619432    3.469720   -2.221680
 H   -0.661902    3.716110   -0.743536
 H   -2.918019    3.582603   -0.008562
 H   -1.463216    0.942286    0.389281
 H   -3.505962    0.002831    1.357241
 H   -4.164155    2.146835    2.229941
 H   -4.985355    0.686723   -0.826797
 H   -2.625905    0.746724   -3.097893
 H   -1.230541   -4.599039    0.153501
 H   -3.126940   -3.097217    2.603362
 H   -1.749162   -4.049063    2.340850
