70 
4euv_ligand_xtb.xyz
 P   -0.563441    1.649408    2.607199
 O   -0.210398    2.406198    3.796598
 O   -0.833789    0.101960    2.708153
 O    0.543599    1.699192    1.426648
 C    1.296473    2.887488    1.288226
 C    2.538027    2.613594    0.434778
 O    3.584017    2.051989    1.224408
 C    2.290014    1.600661   -0.701377
 O    1.904051    2.202341   -1.913465
 C    3.648762    0.890219   -0.791465
 O    4.616108    1.683204   -1.416553
 C    3.955528    0.806363    0.711981
 N    3.141926   -0.233131    1.332460
 C    2.466814   -0.099466    2.515718
 N    1.639986   -1.072841    2.754402
 C    1.769405   -1.929162    1.687470
 C    1.112366   -3.160689    1.379811
 O    0.265612   -3.781603    2.002886
 N    1.547941   -3.647298    0.141857
 C    2.400754   -3.018975   -0.719555
 N    2.612732   -3.616161   -1.910075
 N    3.030901   -1.916782   -0.412505
 C    2.698480   -1.402107    0.785593
 P    0.563405    1.649431   -2.607188
 O    0.210348    2.406216   -3.796581
 O    0.833779    0.101999   -2.708158
 O   -0.543630    1.699190   -1.426654
 C   -1.296527    2.887464   -1.288217
 C   -2.538086    2.613542   -0.434768
 O   -3.584062    2.051919   -1.224402
 C   -2.290058    1.600602    0.701383
 O   -1.904106    2.202297    1.913469
 C   -3.648784    0.890142    0.791466
 O   -4.616140    1.683104    1.416555
 C   -3.955550    0.806293   -0.711972
 N   -3.141926   -0.233186   -1.332461
 C   -2.466814   -0.099507   -2.515722
 N   -1.639964   -1.072861   -2.754410
 C   -1.769363   -1.929187   -1.687478
 C   -1.112292   -3.160701   -1.379823
 O   -0.265528   -3.781590   -2.002897
 N   -1.547858   -3.647320   -0.141866
 C   -2.400686   -3.019017    0.719546
 N   -2.612647   -3.616213    1.910067
 N   -3.030858   -1.916841    0.412500
 C   -2.698451   -1.402153   -0.785599
 H   -0.039465   -0.413192    2.976302
 H    1.597936    3.243242    2.278114
 H    0.684621    3.660108    0.812502
 H    2.903234    3.561484    0.020016
 H    1.529525    0.882392   -0.386310
 H    3.578051   -0.096908   -1.260738
 H    4.203736    2.093400   -2.188832
 H    5.017685    0.648510    0.925732
 H    2.621912    0.737267    3.166648
 H    1.112469   -4.498961   -0.196110
 H    1.826026   -4.124075   -2.294760
 H    3.135938   -3.061961   -2.569886
 H    0.039473   -0.413175   -2.976306
 H   -1.598004    3.243223   -2.278101
 H   -0.684696    3.660098   -0.812485
 H   -2.903311    3.561432   -0.019999
 H   -1.529548    0.882361    0.386312
 H   -3.578055   -0.096977    1.260734
 H   -4.203785    2.093307    2.188836
 H   -5.017698    0.648414   -0.925734
 H   -2.621935    0.737227   -3.166649
 H   -1.112366   -4.498973    0.196097
 H   -3.135865   -3.062025    2.569878
 H   -1.825931   -4.124109    2.294747
