43 
4ewn_ligand_dft.xyz
 P   -2.888283   -1.583908   -0.155243
 O   -2.208586   -1.993762   -1.410295
 O   -2.015067   -1.693517    1.154817
 O   -4.219179   -2.373876    0.215726
 O   -3.404602   -0.062288   -0.170702
 C   -2.504548    0.946349   -0.662152
 C   -2.147221    1.889096    0.476830
 O   -1.541343    1.221672    1.565309
 C   -1.161951    2.982977    0.046203
 O   -0.801616    3.756087    1.179469
 C    0.123575    2.515262   -0.671751
 O    0.933570    3.653870   -0.905873
 C    0.919780    1.466656    0.099161
 N    2.138473    1.137145   -0.619989
 C    2.373664   -1.220531   -0.044340
 C    2.866266    0.011234   -0.415043
 C    4.366813    0.136592   -0.596324
 C    5.133768   -0.567000    0.526918
 C    4.584690   -1.949499    0.763264
 C    3.303543   -2.221252    0.494023
 C    0.985085   -1.641407   -0.196088
 O    0.358263   -1.131014   -1.260004
 O    0.428914   -2.459926    0.544435
 H   -1.114160   -2.109378    0.972942
 H   -4.763535   -2.544640   -0.564730
 H   -1.614138    0.479958   -1.090916
 H   -3.026009    1.487494   -1.456448
 H   -3.068949    2.384471    0.816688
 H   -2.009810    0.395107    1.754976
 H   -1.672607    3.668713   -0.638776
 H   -0.720759    3.129719    1.915244
 H   -0.122682    2.109326   -1.659182
 H    0.868278    4.175012   -0.089234
 H    1.176658    1.863389    1.092433
 H    0.316866    0.583209    0.259506
 H    2.653930    1.960513   -0.900939
 H    4.623671   -0.340092   -1.551946
 H    4.661482    1.189379   -0.661426
 H    5.070782    0.019849    1.457178
 H    6.194522   -0.605011    0.258021
 H    5.232554   -2.704042    1.198639
 H    2.889156   -3.204037    0.696092
 H   -0.523914   -1.569167   -1.366815
