71 
4exg_ligand_xtb.xyz
 O   -1.039279   -0.993835    1.939474
 C   -1.435474   -2.152179    2.066689
 C   -0.898364   -3.063633    3.128953
 N   -2.356627   -2.702574    1.258740
 C   -3.223168   -2.032940    0.290760
 C   -3.934828   -0.830013    0.932814
 C   -4.874896   -0.117530   -0.005894
 C   -5.883475   -0.806000   -0.669579
 C   -6.749360   -0.141799   -1.519786
 C   -6.624499    1.223550   -1.713707
 C   -5.636891    1.922589   -1.042538
 C   -4.769083    1.255279   -0.195042
 C   -2.515825   -1.706910   -1.067262
 O   -1.502315   -2.650099   -1.349358
 C   -1.852243   -0.327952   -1.207154
 N   -0.564477   -0.308687   -0.505134
 C    0.240376    0.939302   -0.620595
 C   -0.377880    2.035341    0.252061
 C    0.631640    3.153128    0.583962
 C    1.141425    3.847177   -0.681555
 C   -0.003662    4.166350    1.532029
 C    1.625786    0.648680   -0.132055
 C    2.447612   -0.453759   -0.492172
 C    3.647200   -0.464344    0.143750
 S    3.804954    0.904659    1.216961
 C    2.231643    1.463007    0.781886
 O    1.744180    2.599054    1.303129
 C    4.752275   -1.450028    0.010210
 C    5.806354   -1.089215   -1.067685
 C    6.865432   -2.193207   -1.070971
 C    5.147127   -1.012885   -2.444891
 C    6.469790    0.247802   -0.739821
 H   -0.143826   -2.537123    3.706273
 H   -0.452038   -3.948064    2.678950
 H   -1.697544   -3.381732    3.795414
 H   -2.587460   -3.664982    1.452415
 H   -3.984601   -2.779233    0.043481
 H   -4.508239   -1.211591    1.782795
 H   -3.201282   -0.128771    1.330847
 H   -6.009423   -1.867017   -0.510521
 H   -7.529452   -0.690335   -2.024696
 H   -7.302377    1.741279   -2.373759
 H   -5.545002    2.990099   -1.172218
 H   -4.020111    1.816577    0.348329
 H   -3.305978   -1.738106   -1.830286
 H   -1.887228   -3.499939   -1.583722
 H   -1.673354   -0.151933   -2.271374
 H   -2.507757    0.453256   -0.828568
 H   -0.012419   -1.100811   -0.855008
 H   -0.750400   -0.510384    0.539878
 H    0.244261    1.231620   -1.679264
 H   -1.243528    2.484706   -0.233511
 H   -0.689877    1.588178    1.199321
 H    1.788835    4.674406   -0.403963
 H    0.309182    4.235400   -1.261386
 H    1.716823    3.160676   -1.298056
 H   -0.823559    4.682088    1.041762
 H    0.743217    4.894736    1.832724
 H   -0.372061    3.669446    2.425324
 H    2.163124   -1.207328   -1.207002
 H    4.323867   -2.423011   -0.242357
 H    5.264406   -1.541410    0.969474
 H    7.620595   -1.988122   -1.825265
 H    6.417943   -3.159755   -1.292040
 H    7.358995   -2.255896   -0.104196
 H    5.893255   -0.791190   -3.203312
 H    4.393392   -0.229079   -2.470080
 H    4.674505   -1.959248   -2.699444
 H    7.286856    0.437200   -1.431287
 H    5.761584    1.068345   -0.822991
 H    6.872387    0.241496    0.270283
