67 
4exh_ligand_dft.xyz
 C    2.687508   -1.787006    1.154153
 O    2.994769   -1.153152    2.162688
 C    2.381468   -3.265631    1.214913
 N    2.637439   -1.209330   -0.075239
 C    3.001334    0.189399   -0.265152
 C    1.734941    1.039567   -0.066406
 O    1.162864    1.592599   -1.007903
 C    3.666956    0.428366   -1.625771
 C    4.798934   -0.573327   -1.865686
 C    4.193637    1.864081   -1.712169
 N    1.285166    1.045391    1.208053
 C   -0.024941    1.522978    1.655200
 C   -1.134784    0.568417    1.173778
 O   -1.843354   -0.030167    1.982814
 C   -0.310059    3.002071    1.322862
 C    0.824195    3.895559    1.824714
 C   -1.650837    3.415751    1.935605
 N   -1.237842    0.458083   -0.165301
 C   -2.019197   -0.539853   -0.868712
 C   -2.644952    0.046858   -2.139502
 C   -3.624132    1.224931   -1.954175
 C   -2.931683    2.579702   -1.769799
 C   -4.629958    0.967075   -0.828693
 C   -1.145917   -1.780632   -1.186151
 O    0.115776   -1.414061   -1.739105
 C   -0.835409   -2.615029    0.052295
 C   -2.083369   -3.338153    0.550957
 O   -2.505638   -4.329730   -0.023699
 N   -2.668598   -2.794399    1.647031
 H    1.520631   -3.432048    1.867839
 H    3.239971   -3.767487    1.669259
 H    2.187737   -3.708578    0.235427
 H    2.069829   -1.636864   -0.800395
 H    3.713366    0.423139    0.533972
 H    2.898601    0.298710   -2.398542
 H    4.441165   -1.606518   -1.867204
 H    5.278677   -0.377723   -2.830252
 H    5.565768   -0.487241   -1.086062
 H    4.955104    2.042557   -0.942260
 H    3.391151    2.594997   -1.587967
 H    4.661548    2.038022   -2.686502
 H    1.819200    0.475737    1.862370
 H   -0.022035    1.416541    2.743393
 H   -0.369910    3.107555    0.234951
 H    1.772583    3.650266    1.338981
 H    0.599888    4.946831    1.617027
 H    0.958010    3.787951    2.908309
 H   -1.626875    3.322805    3.028042
 H   -1.873136    4.458949    1.690099
 H   -2.480340    2.801223    1.570019
 H   -0.541538    0.961251   -0.712653
 H   -2.821342   -0.862978   -0.200272
 H   -3.181052   -0.774795   -2.631363
 H   -1.852579    0.359635   -2.837341
 H   -4.187882    1.283964   -2.895227
 H   -2.180359    2.755724   -2.548313
 H   -3.666136    3.390961   -1.822137
 H   -2.432562    2.644988   -0.799727
 H   -5.133923    0.001437   -0.953088
 H   -5.398200    1.747107   -0.814780
 H   -4.139241    0.967762    0.151915
 H   -1.693281   -2.419690   -1.893325
 H   -0.024040   -0.881064   -2.531128
 H   -0.379902   -1.986652    0.824034
 H   -0.120164   -3.387559   -0.238705
 H   -2.428233   -1.852718    1.951448
 H   -3.551395   -3.189068    1.936410
