63 
4ez5_ligand_xtb.xyz
 C    6.654290   -1.509136    2.228878
 C    4.399146   -1.702038    1.374668
 C    5.936767    0.117728    0.489644
 O   -0.107173   -3.795082    0.415208
 C    0.608341    0.397530   -1.000667
 C    0.153298   -1.534695   -0.247732
 C    1.771125   -0.204074   -0.403345
 C   -0.601246   -2.750714    0.027839
 C   -2.058557   -2.616595   -0.268424
 C   -2.715070   -3.563753   -1.047885
 C   -4.056003   -3.359956   -1.330486
 C   -4.113244   -1.387223   -0.189703
 C   -2.781627   -1.527102    0.197508
 C   -4.917469   -0.239102    0.249001
 C   -6.204922   -0.459531    0.692985
 C   -6.548739    1.707267    1.256571
 C   -5.266193    2.094217    0.811890
 C   -4.819276    3.429727    0.882576
 C   -3.583031    3.767477    0.411285
 C   -2.762406    2.789270   -0.172815
 C   -3.164851    1.484601   -0.257663
 C   -4.417927    1.092777    0.264080
 N    5.787918   -1.287238    1.062259
 C    5.619395    0.028056   -1.004681
 C    5.351766    1.415743   -1.621855
 N    4.376977    2.178377   -0.876809
 C    4.877133    2.421923    0.456247
 C    5.094987    1.126177    1.266927
 C    3.069276    1.572730   -0.901251
 C    2.007296    2.242755   -1.512302
 C    0.752780    1.657031   -1.570596
 N   -0.407791   -0.481467   -0.875030
 N    1.464731   -1.422362    0.059947
 N    2.967341    0.374229   -0.351270
 N   -4.736431   -2.302988   -0.930091
 N   -7.008705    0.488678    1.185057
 H    7.698425   -1.335978    1.972666
 H    6.366772   -0.826707    3.026288
 H    6.543284   -2.531194    2.587396
 H    4.113736   -1.333485    2.355870
 H    3.678659   -1.317047    0.645068
 H    4.334429   -2.787107    1.381257
 H    6.995517    0.380600    0.603836
 H   -2.183441   -4.425619   -1.420693
 H   -4.617866   -4.075164   -1.918902
 H   -2.322242   -0.813658    0.862157
 H   -6.619605   -1.457717    0.668584
 H   -7.217487    2.448247    1.679287
 H   -5.475723    4.173817    1.311664
 H   -3.233983    4.788653    0.470067
 H   -1.796663    3.077642   -0.561123
 H   -2.522178    0.755317   -0.728258
 H    6.102701   -1.902174    0.305404
 H    4.708985   -0.553770   -1.145053
 H    6.447699   -0.451899   -1.533204
 H    4.988446    1.285432   -2.642930
 H    6.277899    1.999538   -1.655138
 H    4.160807    3.050953    0.987841
 H    5.818213    2.974173    0.360718
 H    5.572862    1.371339    2.217417
 H    4.104275    0.718435    1.445341
 H    2.189227    3.215467   -1.942436
 H   -0.073880    2.155421   -2.057400
