70 
4ezj_ligand_dft.xyz
 F   -3.895852   -3.520533    0.191832
 C   -4.557336   -2.509804   -0.404742
 C   -5.702717   -2.870700   -1.082116
 C   -6.451249   -1.899682   -1.764403
 C   -6.032412   -0.588558   -1.757313
 N   -6.661332    0.475634   -2.361005
 C   -5.890387    1.510530   -2.047674
 C   -4.756292    1.189996   -1.259961
 C   -4.822173   -0.189419   -1.053802
 C   -4.047733   -1.182002   -0.347322
 C   -2.828141   -0.871122    0.337628
 N   -2.229751   -1.788970    1.124109
 C   -1.029201   -1.483646    1.603386
 C   -0.295197   -2.452615    2.349227
 C    1.001186   -2.195867    2.712057
 N   -2.323822    0.398900    0.156570
 C   -1.167657    0.743150    0.653474
 N   -0.674778    2.004577    0.380915
 C   -0.014200    2.808513    1.410918
 C   -1.033299    3.699599    2.121789
 O   -1.726889    4.519181    1.212471
 C   -2.420546    3.735524    0.252692
 C   -1.446325    2.857651   -0.525857
 C   -0.375017   -0.233670    1.382396
 N    0.892830   -0.000836    1.738424
 C    1.573146   -0.951580    2.365381
 C    3.025465   -0.663608    2.592996
 N    3.774823   -0.685226    1.265244
 C    5.228401   -1.009855    1.406731
 C    5.893578   -1.147061    0.044715
 C    3.600809    0.592974    0.486472
 C    4.219158    0.465280   -0.894237
 C    5.707864    0.088928   -0.850594
 C    6.285144   -0.149465   -2.268903
 O    5.564065   -1.271797   -2.772329
 C    6.059090    1.069104   -3.171435
 C    7.783586   -0.472200   -2.213615
 H   -5.996131   -3.914696   -1.073900
 H   -7.358814   -2.171880   -2.296535
 H   -6.150196    2.509581   -2.394527
 H   -4.022612    1.882272   -0.886203
 H   -0.784585   -3.394589    2.572950
 H    1.584339   -2.936310    3.254282
 H    0.733708    3.443418    0.917164
 H    0.498780    2.163425    2.121186
 H   -0.529311    4.366509    2.828430
 H   -1.739080    3.062948    2.682411
 H   -2.931754    4.435387   -0.412419
 H   -3.173425    3.104633    0.747274
 H   -1.973016    2.232520   -1.246760
 H   -0.729461    3.500095   -1.053070
 H    3.493431   -1.420149    3.227094
 H    3.204886    0.326387    3.019893
 H    3.337198   -1.430100    0.711831
 H    5.303007   -1.937822    1.979321
 H    5.664569   -0.200230    2.000493
 H    5.495260   -2.025870   -0.475838
 H    6.953453   -1.343417    0.229090
 H    4.091945    1.368273    1.084328
 H    2.528688    0.799877    0.459461
 H    4.072178    1.428223   -1.390563
 H    3.671769   -0.278422   -1.485729
 H    6.264761    0.927480   -0.407791
 H    5.837639   -1.424315   -3.685113
 H    4.995801    1.229782   -3.365288
 H    6.480243    1.978064   -2.728277
 H    6.551645    0.916548   -4.138428
 H    8.345667    0.324521   -1.714156
 H    7.970682   -1.416564   -1.696240
 H    8.182949   -0.570765   -3.229122
