69 
4ezk_ligand_xtb.xyz
 N    3.950871   -1.305594    1.113587
 C    4.335027    0.590384   -3.848330
 O   -1.243400    3.474915    2.925021
 C    4.867013    1.056336   -2.489029
 N    1.103199   -0.932657    1.647849
 O    4.586100    2.432745   -2.306529
 C    6.391243    0.932550   -2.462097
 N   -2.047751    0.196020    0.307252
 C    4.168331    0.269788   -1.340968
 N   -2.068908   -2.172912    0.386054
 C    4.457040   -1.230801   -1.314989
 N   -5.544839    2.124130   -1.417683
 C    3.638659   -1.889578   -0.212737
 N   -6.331600    1.251239   -1.975854
 C    3.703003    0.158791    1.115907
 N   -0.323764    1.498622    1.103092
 C    4.523939    0.838142    0.034411
 C    3.179917   -1.997101    2.210094
 C    1.721727   -2.097024    1.861033
 C    1.090147   -3.335036    1.702371
 C   -0.207332   -3.374238    1.262209
 C   -0.869939   -2.155843    0.946005
 C   -0.161277   -0.946115    1.219000
 C   -0.883024    0.259908    0.905041
 C   -2.615474   -0.999596    0.040933
 C   -3.868873   -1.018401   -0.655091
 C   -4.409239   -2.251613   -1.045655
 C   -5.589090   -2.351278   -1.763955
 C   -6.309229   -1.223830   -2.134669
 C   -5.820403    0.014978   -1.758276
 C   -4.592506    0.143609   -1.004216
 C   -4.500961    1.524112   -0.826570
 C   -1.067996    2.660630    0.648979
 C   -1.987651    3.176458    1.757874
 C   -0.556764    2.338379    3.384375
 C    0.408247    1.796924    2.317613
 H    4.952549   -1.444448    1.282590
 H    4.687128    1.270756   -4.620006
 H    4.688909   -0.407100   -4.089990
 H    3.246378    0.589111   -3.860333
 H    3.681910    2.613592   -2.587158
 H    6.790901    1.338397   -1.538331
 H    6.705932   -0.099035   -2.582918
 H    6.798646    1.518164   -3.280896
 H    3.089505    0.405212   -1.486335
 H    5.521355   -1.408664   -1.146917
 H    4.183445   -1.694624   -2.261437
 H    2.573057   -1.738638   -0.393311
 H    3.832697   -2.963792   -0.170320
 H    3.970108    0.547720    2.100528
 H    2.625011    0.293134    0.974400
 H    4.327202    1.909656    0.048987
 H    5.589178    0.695700    0.231570
 H    3.333449   -1.413529    3.121462
 H    3.597270   -2.996255    2.347198
 H    1.628150   -4.245730    1.927767
 H   -0.736631   -4.300949    1.115379
 H   -3.864128   -3.144055   -0.777356
 H   -5.953043   -3.331150   -2.043234
 H   -7.228164   -1.304350   -2.696789
 H   -3.768785    2.106770   -0.304101
 H   -1.650069    2.377558   -0.226151
 H   -0.339537    3.435547    0.386990
 H   -2.477665    4.104030    1.461361
 H   -2.748152    2.414973    1.978951
 H   -1.272710    1.544625    3.652376
 H   -0.010137    2.648053    4.277765
 H    1.154434    2.565118    2.083973
 H    0.902530    0.897768    2.680691
