98 
4ezy_ligand_dft.xyz
 N    0.165114   -0.832409    3.166048
 C   -0.299091   -2.097995    2.508271
 C    0.847776   -2.513879    1.583118
 O    1.887012   -2.890974    2.118247
 C   -1.683769   -1.896142    1.911376
 C   -2.660554   -1.370499    2.962353
 O   -2.321511   -1.213597    4.134931
 N   -3.895392   -1.101346    2.503859
 N    0.688956   -2.376904    0.253381
 C    1.825595   -2.527991   -0.662855
 C    2.605948   -1.199680   -0.628899
 O    2.484790   -0.341744   -1.496420
 C    1.370647   -2.973592   -2.048244
 C    0.416519   -2.041854   -2.812101
 C   -0.537796   -2.837027   -3.711768
 N   -1.432504   -3.720236   -2.970455
 C   -2.383986   -3.252284   -2.117293
 N   -2.815920   -2.032384   -2.087006
 N   -2.881793   -4.156080   -1.199150
 N    3.347978   -1.061255    0.495860
 C    3.821421    0.219663    1.024422
 C    2.594668    1.063282    1.417214
 O    2.177832    1.082926    2.575101
 C    4.838892    0.931694    0.126764
 C    6.048278    0.070584   -0.265022
 C    6.991906    0.893080   -1.146113
 C    6.790599   -0.492743    0.949131
 N    2.014005    1.742831    0.406661
 C    0.892682    2.631463    0.583006
 C   -0.424920    1.840735    0.627222
 O   -0.446780    0.638231    0.923996
 C    0.943450    3.753595   -0.480322
 C    0.718558    3.211383   -1.904948
 C    2.251313    4.540438   -0.348243
 C    0.506142    4.310825   -2.945302
 N   -1.557448    2.516743    0.394271
 C   -2.862085    1.872963    0.324845
 C   -2.796334    0.726324   -0.687695
 O   -2.190555    0.821558   -1.735449
 C   -3.876486    2.961086   -0.073707
 C   -5.370315    2.592435   -0.127600
 C   -5.854217    1.921681    1.160101
 C   -5.764525    1.780298   -1.366127
 O   -3.464186   -0.351244   -0.303283
 H   -0.511410   -0.637894    3.923055
 H    1.118010   -0.916763    3.531869
 H    0.171715   -0.048911    2.479733
 H   -0.336875   -2.847443    3.301118
 H   -1.667828   -1.178442    1.088911
 H   -2.046402   -2.850528    1.513643
 H   -4.556979   -0.694615    3.150175
 H   -4.052332   -0.988106    1.506883
 H   -0.120649   -1.876708   -0.090322
 H    2.451784   -3.316656   -0.236187
 H    0.892339   -3.949031   -1.898382
 H    2.267354   -3.154507   -2.650018
 H   -0.175974   -1.413366   -2.137171
 H    0.987892   -1.339770   -3.422427
 H   -1.133660   -2.162833   -4.336109
 H    0.026655   -3.470705   -4.401453
 H   -1.152670   -4.683624   -2.875348
 H   -2.388949   -1.415638   -2.769922
 H   -2.806461   -5.136832   -1.431885
 H   -3.805650   -3.911767   -0.868820
 H    3.273502   -1.815289    1.170674
 H    4.297816   -0.017787    1.977288
 H    5.183354    1.821199    0.671640
 H    4.359138    1.286390   -0.789610
 H    5.675358   -0.772199   -0.861827
 H    6.474723    1.286561   -2.028077
 H    7.832303    0.283828   -1.493696
 H    7.404507    1.743383   -0.589652
 H    6.179184   -1.201050    1.519000
 H    7.099992    0.311815    1.628048
 H    7.693248   -1.026080    0.634991
 H    2.253274    1.449816   -0.535300
 H    0.998031    3.078400    1.579977
 H    0.133437    4.460975   -0.247625
 H   -0.148453    2.539129   -1.918999
 H    1.582367    2.602749   -2.205264
 H    3.109756    3.932143   -0.650698
 H    2.232126    5.434188   -0.976947
 H    2.416215    4.864373    0.684680
 H   -0.338192    4.955002   -2.672282
 H    1.389632    4.946143   -3.057593
 H    0.287622    3.873729   -3.923494
 H   -1.490744    3.452038    0.021579
 H   -3.106306    1.457425    1.306919
 H   -3.570969    3.357390   -1.051496
 H   -3.753678    3.769757    0.658877
 H   -5.885336    3.558637   -0.204921
 H   -5.565178    2.494198    2.049222
 H   -6.944563    1.829548    1.159364
 H   -5.441201    0.910986    1.251888
 H   -6.854902    1.723447   -1.446199
 H   -5.385835    2.244045   -2.283037
 H   -5.385970    0.755643   -1.319443
 H   -3.309863   -1.117413   -1.026100
