60 
4f49_ligand_xtb.xyz
 C   -2.451494   -1.825748    1.259335
 O   -1.367417   -1.585174    0.367917
 C   -0.124363   -1.753844    0.898917
 O    0.076128   -2.068853    2.043262
 C   -3.727652   -1.393707    0.596517
 C   -4.698760   -0.697518    1.303354
 C   -5.871905   -0.305638    0.680186
 C   -6.079703   -0.594017   -0.657923
 C   -5.113749   -1.285469   -1.370221
 C   -3.945700   -1.687546   -0.745573
 N    0.805150   -1.547007   -0.058213
 C    2.208574   -1.369594    0.262298
 C    2.507732    0.116044    0.528604
 O    2.993705    0.483331    1.584303
 C    3.075592   -1.936940   -0.864176
 C    4.571650   -1.645957   -0.696041
 C    5.112132   -2.211964    0.614453
 C    5.336462   -2.228275   -1.883706
 N    2.195145    0.919615   -0.502959
 C    1.993843    2.361373   -0.444501
 C    3.174885    3.103768    0.221187
 O    3.102704    3.167417    1.609907
 C    0.669998    2.692830    0.265273
 C   -0.575068    2.650169   -0.626517
 C   -1.840833    3.022909    0.162273
 C   -2.953759    2.148216   -0.427106
 N   -2.227697    1.078790   -1.063535
 C   -0.921032    1.289081   -1.228752
 O   -0.168859    0.525407   -1.813418
 H   -2.281413   -1.281154    2.195063
 H   -2.486313   -2.897337    1.501336
 H   -4.538703   -0.467960    2.346884
 H   -6.623918    0.229748    1.240543
 H   -6.993339   -0.285151   -1.143225
 H   -5.273157   -1.517965   -2.412940
 H   -3.192356   -2.235980   -1.291526
 H    0.458487   -1.164674   -0.931140
 H    2.383028   -1.903510    1.201141
 H    2.736746   -1.512126   -1.812726
 H    2.918864   -3.016650   -0.908865
 H    4.715593   -0.559798   -0.689075
 H    4.682954   -1.690860    1.464988
 H    4.880771   -3.271670    0.696390
 H    6.192176   -2.092281    0.655956
 H    4.962839   -1.822900   -2.821447
 H    5.227575   -3.310351   -1.909004
 H    6.394940   -1.992782   -1.807003
 H    1.660317    0.501117   -1.256610
 H    1.946158    2.692309   -1.487882
 H    3.170342    4.139584   -0.131009
 H    4.109971    2.629073   -0.111917
 H    3.124514    2.241903    1.931327
 H    0.750785    3.697633    0.684585
 H    0.547623    2.001143    1.101879
 H   -0.426981    3.335096   -1.470131
 H   -1.693129    2.774946    1.213656
 H   -2.074086    4.082887    0.092970
 H   -3.632577    1.754645    0.332634
 H   -3.547889    2.693566   -1.171177
 H   -2.679190    0.223655   -1.353783
