48 
4f6x_ligand_xtb.xyz
 C    9.463316    1.249950    0.698253
 O   -7.074349    0.498126   -0.544002
 O   -3.960550   -1.405191    1.339447
 O   -6.409446   -1.264341    0.609343
 O   -5.418580    2.375727   -1.089658
 C    0.186088   -2.227874   -1.432743
 C   -0.745083   -1.863130   -0.481447
 C    1.457315   -1.675924   -1.435931
 C   -3.157973    2.163204   -0.370599
 C   -2.216997    1.431800    0.276818
 C    0.859043   -0.370261    0.491317
 C    8.276243    0.518150    0.083602
 C    7.029618    0.635324    0.958584
 C    5.852306   -0.196917    0.452884
 C    5.293980    0.296430   -0.880706
 C    4.036058   -0.469752   -1.277209
 C   -1.435588   -0.497407    1.500969
 O    3.012465   -0.132900   -0.360742
 C   -6.194397   -0.091894    0.025229
 C   -0.405642   -0.926682    0.490142
 C    1.806080   -0.742475   -0.465814
 C   -4.484735    1.670916   -0.459242
 C   -4.791816    0.447220    0.118901
 C   -3.778405   -0.308675    0.799706
 N   -2.503659    0.251607    0.849179
 H    9.234978    2.305751    0.827053
 H    9.707223    0.832375    1.672735
 H   10.339163    1.163806    0.059406
 H   -5.573804   -1.605760    1.023440
 H   -5.060425    3.202664   -1.440824
 H   -0.073537   -2.955124   -2.187163
 H   -1.731135   -2.301356   -0.481669
 H    2.162161   -1.980482   -2.192875
 H   -2.901655    3.111260   -0.817288
 H   -1.192303    1.763043    0.359413
 H    1.151062    0.353887    1.236952
 H    8.528401   -0.537245   -0.043483
 H    8.074809    0.934915   -0.904666
 H    6.730711    1.684022    1.022901
 H    7.280450    0.302147    1.968512
 H    5.049349   -0.161195    1.191464
 H    6.165025   -1.238868    0.348859
 H    6.032353    0.172675   -1.673154
 H    5.043583    1.355597   -0.801741
 H    4.230497   -1.550377   -1.246614
 H    3.730048   -0.194535   -2.296386
 H   -0.984607    0.126361    2.276741
 H   -1.909512   -1.368173    1.962757
