42 
4f9u_ligand_dft.xyz
 C    3.876378   -4.000685   -0.292703
 C    6.246369    0.777581    0.527903
 S   -0.343968    3.938545    0.150082
 C   -6.199491   -2.144543    1.196109
 C    1.467647   -0.542555   -0.264412
 C    2.249892   -1.703914   -0.276209
 C   -5.511458   -0.966276    1.302739
 C   -5.799011   -1.520308   -0.797217
 C    3.466669    0.741176    0.152731
 C   -2.985041    0.374461   -0.253852
 C   -2.186640    1.594531   -0.711300
 C   -4.489510    0.590507   -0.404946
 N   -6.376633   -2.485066   -0.121839
 N   -0.775207    1.326071   -0.587144
 N    1.393472    1.919458    0.018040
 O    4.452515   -2.734109   -0.082158
 O    5.579390   -0.442492    0.313934
 C    0.061608    2.187199   -0.190316
 C    2.074647    0.684131   -0.047043
 C    3.619901   -1.662552   -0.082518
 C    4.237451   -0.408990    0.134018
 N   -5.261865   -0.565395    0.010635
 H    3.144990   -4.247237    0.488648
 H    3.388082   -4.064831   -1.274379
 H    4.699252   -4.715529   -0.253291
 H    6.126238    1.459067   -0.325051
 H    5.894358    1.276313    1.441078
 H    7.301725    0.527039    0.640831
 H    0.386975    4.020747    1.273994
 H   -6.583723   -2.764869    1.993933
 H    0.403071   -0.598199   -0.434611
 H    1.752917   -2.651687   -0.448578
 H   -5.186429   -0.382439    2.151032
 H   -5.740017   -1.448729   -1.875811
 H    3.937547    1.703200    0.328593
 H   -2.747145    0.158891    0.794113
 H   -2.681710   -0.501549   -0.837466
 H   -2.499350    2.482522   -0.139366
 H   -2.413534    1.798174   -1.767736
 H   -4.743702    0.796921   -1.450125
 H   -4.818203    1.455391    0.182117
 H    1.992062    2.728851    0.060815
