42 
4f9u_ligand_xtb.xyz
 C    4.704325   -3.576070   -0.561670
 C    5.961527    1.311857    1.340850
 S   -0.985428    3.363248   -0.096424
 C   -6.464372   -1.286496    1.694104
 C    1.716912   -0.594952   -0.565603
 C    2.680853   -1.593870   -0.579936
 C   -5.835231   -0.214767    1.130415
 C   -5.573542   -1.990102   -0.096038
 C    3.323808    0.904282    0.405868
 C   -2.986614    0.103759   -0.462305
 C   -2.099792    0.870130   -1.446484
 C   -4.443474    0.078275   -0.930533
 N   -6.292358   -2.386736    0.916443
 N   -0.735645    0.815598   -1.030546
 N    1.124243    1.718728   -0.008186
 O    4.971194   -2.281144   -0.085598
 O    5.566746    0.064112    0.831194
 C   -0.154185    1.756897   -0.445003
 C    2.033078    0.656756   -0.072180
 C    3.961854   -1.365575   -0.111115
 C    4.288081   -0.085202    0.391251
 N   -5.269354   -0.672726   -0.026189
 H    3.915807   -4.065741    0.019808
 H    4.421892   -3.567346   -1.619900
 H    5.634579   -4.129311   -0.442699
 H    5.876911    2.102360    0.586969
 H    5.380075    1.589918    2.226814
 H    7.007103    1.196166    1.621625
 H    0.091902    3.985145    0.377426
 H   -7.028685   -1.336411    2.603369
 H    0.725577   -0.784276   -0.936469
 H    2.407559   -2.561439   -0.967933
 H   -5.750456    0.807468    1.437553
 H   -5.257744   -2.616927   -0.906534
 H    3.559867    1.885753    0.789333
 H   -2.924993    0.577307    0.520069
 H   -2.612750   -0.917353   -0.366809
 H   -2.457552    1.908394   -1.531690
 H   -2.155016    0.399117   -2.432934
 H   -4.505518   -0.382569   -1.920899
 H   -4.828870    1.100493   -0.998043
 H    1.496082    2.559960    0.408565
