39 
4fab_ligand_xtb.xyz
 C    4.056690   -0.864822    0.160556
 O    5.347143   -1.242429   -0.036453
 C    3.052616   -1.733740   -0.240519
 C    1.719825   -1.386961   -0.061672
 O    0.797178   -2.304908   -0.469598
 C   -0.507207   -2.125711   -0.097611
 C   -1.360689   -3.199485   -0.311502
 C   -2.695054   -3.106305    0.056530
 O   -3.499211   -4.177850   -0.175664
 C   -3.167480   -1.940676    0.651519
 C   -2.310321   -0.877131    0.855568
 C   -0.978040   -0.949890    0.479439
 C   -0.069734    0.243179    0.646737
 C    1.375504   -0.164920    0.513465
 C    2.392301    0.685019    0.918929
 C    3.721862    0.349309    0.751220
 C   -0.406658    1.255634   -0.430586
 C   -0.183891    0.912277   -1.760256
 C   -0.467631    1.790422   -2.787744
 C   -0.976769    3.047543   -2.503636
 C   -1.186750    3.414219   -1.189625
 C   -0.909938    2.528288   -0.146177
 C   -1.205350    2.974745    1.246633
 O   -0.824692    4.235392    1.534455
 O   -1.753502    2.302950    2.076845
 H    5.941765   -0.561792    0.301205
 H    3.305201   -2.680636   -0.687285
 H   -0.985138   -4.104392   -0.758845
 H   -4.391416   -3.987997    0.138757
 H   -4.203991   -1.868781    0.950965
 H   -2.668964    0.030366    1.317006
 H   -0.240524    0.688469    1.629947
 H    2.133202    1.629247    1.375789
 H    4.500011    1.026422    1.075780
 H    0.213691   -0.064039   -1.992252
 H   -0.295770    1.494837   -3.811661
 H   -1.209718    3.736971   -3.300810
 H   -1.610245    4.386364   -0.971455
 H   -0.383156    4.663752    0.788583
