42 
4fai_ligand_xtb.xyz
 C    5.728802   -2.293575   -1.495321
 C    4.673650    0.294800    3.115204
 S   -1.325665    2.921776   -0.288021
 C   -6.375579   -0.951811    1.784367
 C    2.335844    0.212546   -1.333248
 C    3.441027   -0.625429   -1.416497
 C   -5.670131   -0.066596    1.022480
 C   -5.623851   -2.051641    0.135628
 C    2.895868    0.690276    0.954903
 C   -2.883343   -0.202127   -0.607798
 C   -1.969376    0.344117   -1.708001
 C   -4.336576   -0.283488   -1.081800
 N   -6.338005   -2.185950    1.217514
 N   -0.620119    0.557174   -1.245786
 N    0.958247    1.729334    0.001997
 O    5.377458   -1.615836   -0.315059
 O    4.877231   -0.361209    1.887939
 C   -0.286059    1.658239   -0.535654
 C    2.047763    0.861630   -0.144209
 C    4.276437   -0.818033   -0.331854
 C    4.000953   -0.134693    0.877745
 N   -5.193546   -0.780073   -0.041798
 H    4.945168   -2.991433   -1.809282
 H    5.942990   -1.596522   -2.312324
 H    6.631276   -2.852593   -1.254092
 H    4.712476    1.383310    3.001973
 H    3.720050    0.009723    3.571955
 H    5.490272   -0.028496    3.758342
 H   -6.907617   -0.781284    2.698545
 H    1.734869    0.382634   -2.212056
 H    3.642414   -1.116134   -2.354862
 H   -5.475492    0.979989    1.135846
 H   -5.400994   -2.842079   -0.553864
 H    2.666732    1.218921    1.866638
 H   -2.827104    0.467188    0.253056
 H   -2.543782   -1.192542   -0.294094
 H   -2.350584    1.311187   -2.046076
 H   -1.934437   -0.343574   -2.556472
 H   -4.414181   -0.952708   -1.943737
 H   -4.677117    0.712714   -1.379994
 H   -0.045317   -0.263338   -1.110183
 H    1.084900    2.514292    0.626822
