22 
4fbx_ligand_dft.xyz
Br   -2.506572    2.649607   -0.010950
 C   -1.215257    1.300158   -0.113915
 C   -1.516516   -0.049201    0.013497
Br   -3.297595   -0.576508    0.308884
 C   -0.493424   -1.022508   -0.079112
Br   -0.927092   -2.845067    0.104790
 C    0.831560   -0.654049   -0.302261
Br    2.177596   -1.973388   -0.458623
 C    1.132572    0.705777   -0.416671
 C    0.113175    1.675895   -0.323603
 N    0.625244    2.944964   -0.463688
 C    1.900453    2.755499   -0.629018
 N    2.287712    1.438521   -0.633194
 C    3.688985    1.040669   -0.654979
 C    4.302803    1.199943    0.744778
 O    4.845602    2.240220    1.065968
 N    4.150475    0.133695    1.567108
 H    2.639774    3.537324   -0.748201
 H    4.221217    1.723087   -1.319062
 H    3.772414    0.030094   -1.049499
 H    4.442392    0.227341    2.528406
 H    3.627460   -0.685532    1.293211
