64 
4fc0_ligand_xtb.xyz
 C   -1.551668    2.103957   -0.496148
 N   -1.665904    0.669180   -0.669537
 C   -0.568369   -0.027926   -1.159599
 C   -0.729408   -1.121505   -2.015926
 C    0.374040   -1.776583   -2.526353
 C    1.637603   -1.331804   -2.201463
 F    2.725669   -1.969013   -2.710358
 C    1.836880   -0.227537   -1.370484
 N    3.147929    0.164185   -1.106175
 C    3.576661    1.222242   -0.368402
 O    2.851933    2.042855    0.152710
 C    5.070250    1.361728   -0.303381
 C    5.566344    2.660288   -0.397451
 C    6.923008    2.909967   -0.360939
 C    7.812677    1.863073   -0.195920
 C    7.343431    0.564699   -0.050009
 O    8.215762   -0.488227    0.086520
 C    8.623074   -0.841514    1.416651
 C    9.770178    0.059062    1.900369
 C    9.052116   -2.310229    1.352242
 C    7.526772   -0.705685    2.368631
 N    6.688279   -0.572449    3.133305
 C    5.968251    0.314827   -0.114904
Cl    5.448806   -1.325318    0.086884
 C    0.720129    0.414478   -0.854094
 C   -2.862896    0.066954   -0.358777
 C   -2.942256   -1.301499   -0.018034
 C   -4.156019   -1.860255    0.303323
 C   -5.286117   -1.042809    0.284071
 N   -6.576898   -1.385651    0.561870
 C   -7.346850   -0.360101    0.466726
 N   -8.694615   -0.440396    0.692107
 C   -9.535979    0.637298    0.582053
 O   -9.116562    1.734352    0.279945
 C  -10.970806    0.373097    0.852835
 C  -11.621675   -0.937901    0.487944
 C  -11.410289   -0.596610    1.921882
 S   -6.609822    1.176657    0.029986
 C   -5.091949    0.317337   -0.035605
 N   -3.933044    0.859128   -0.339997
 H   -2.552013    2.527009   -0.548879
 H   -1.111978    2.349800    0.473754
 H   -0.932433    2.523573   -1.287250
 H   -1.718808   -1.442208   -2.299934
 H    0.264339   -2.620512   -3.188448
 H    3.851713   -0.442527   -1.508769
 H    4.855416    3.464867   -0.505533
 H    7.292022    3.919140   -0.456943
 H    8.877411    2.038183   -0.182448
 H   10.579066    0.026058    1.174127
 H    9.429419    1.086618    2.012905
 H   10.136814   -0.291671    2.861908
 H    8.222709   -2.922795    1.006562
 H    9.873479   -2.407722    0.647407
 H    9.368114   -2.656276    2.332806
 H    0.870919    1.256032   -0.201756
 H   -2.042489   -1.893753    0.023935
 H   -4.243552   -2.898934    0.581077
 H   -9.038453   -1.356238    0.942474
 H  -11.560207    1.272290    0.726669
 H  -11.015201   -1.706071    0.031759
 H  -12.623786   -0.894406    0.090147
 H  -12.266062   -0.316860    2.516662
 H  -10.652091   -1.120706    2.484347
