40 
4fcd_ligand_xtb.xyz
 C   -1.930113    4.539018   -0.284767
 C   -1.557152    3.104851   -0.265493
 C   -0.283101    2.550614   -0.153922
 N    0.915556    3.113642   -0.000786
 N    1.951958    2.398341    0.110372
 C    1.869379    1.040890   -0.015475
 C    0.646795    0.353447   -0.224252
 N   -0.475429    1.155244   -0.181157
 C   -1.813930    0.959915   -0.270764
 N   -2.459835    2.115360   -0.339278
 C   -2.517117   -0.317058   -0.220364
 C   -3.479142   -0.605371   -1.185894
 C   -4.188190   -1.790471   -1.145979
 C   -3.954165   -2.704314   -0.131301
 C   -3.026402   -2.422687    0.856613
 C   -2.321291   -1.232468    0.815878
Cl   -1.211361   -0.870619    2.096511
 C    0.624337   -1.004311   -0.489619
 C    1.815571   -1.721186   -0.477165
 C    3.027714   -1.079470   -0.208905
 C    3.070747    0.287563    0.010460
 O    4.192315    0.991039    0.242561
 C    5.431820    0.326213    0.259417
 O    1.696961   -3.044643   -0.740519
 C    2.849462   -3.853343   -0.745116
 H   -1.557330    5.034998    0.609248
 H   -1.485210    5.031287   -1.148016
 H   -3.011376    4.627739   -0.331068
 H   -3.654003    0.119796   -1.964999
 H   -4.924463   -2.002226   -1.906064
 H   -4.501692   -3.633820   -0.097956
 H   -2.853731   -3.115554    1.665140
 H   -0.291680   -1.524003   -0.711467
 H    3.939441   -1.651630   -0.185201
 H    5.478968   -0.420726    1.058820
 H    5.646420   -0.152923   -0.701622
 H    6.173818    1.099898    0.447969
 H    3.564002   -3.532486   -1.509692
 H    3.338667   -3.862828    0.233914
 H    2.500024   -4.857267   -0.980209
