21 
4fck_ligand_xtb.xyz
 N    0.623073    1.540290   -0.162020
 C    0.839022    0.152177    0.235220
 C    2.306880   -0.309949    0.139246
 O    2.631563   -1.449523   -0.024500
 O    3.142731    0.710372    0.274392
 C   -0.046030   -0.789581   -0.600350
 N   -1.374728   -0.992515   -0.050773
 C   -2.321119   -0.054447    0.036162
 N   -3.561822   -0.421140    0.374623
 N   -2.031067    1.209427   -0.204914
 H    1.049902    2.177312    0.502818
 H    1.052329    1.723012   -1.065092
 H   -1.026263    1.509254   -0.281145
 H    0.563524    0.051993    1.292957
 H    4.070024    0.421003    0.245429
 H    0.446575   -1.762411   -0.643174
 H   -0.123970   -0.392985   -1.617926
 H   -1.631720   -1.941823    0.169593
 H   -4.292787    0.262376    0.475362
 H   -3.812673   -1.386282    0.503663
 H   -2.750010    1.910133   -0.141707
