40 
4fev_ligand_xtb.xyz
 N   -1.791219   -0.757307    0.032969
 C   -2.633788    2.655742   -0.069559
 N   -2.924407    1.376749   -0.005787
 C   -1.840681    0.589688    0.004441
 C   -0.502040    1.055047   -0.027735
 C   -0.354780    2.449870   -0.168741
 N   -1.439544    3.223537   -0.167145
 N   -0.524517   -1.186653    0.025571
 C    0.275371   -0.138409   -0.000308
 N    0.839091    3.068855   -0.294441
 C    1.723387   -0.294926    0.017657
 C    2.532516    0.572526    0.748526
 C    3.904703    0.406572    0.759116
 C    4.506096   -0.625633    0.049457
 C    3.692643   -1.500638   -0.662570
 C    2.321426   -1.343487   -0.677554
 C    5.995542   -0.786854    0.042296
 C   -2.921474   -1.672564    0.089587
 C   -2.387330   -3.101284    0.115420
 C   -3.719082   -1.368007    1.360009
 C   -3.789170   -1.438137   -1.149465
 H   -3.474844    3.337382   -0.064306
 H    1.662593    2.531357   -0.502233
 H    0.819373    4.049652   -0.515433
 H    2.081539    1.355184    1.342068
 H    4.518265    1.084431    1.336038
 H    4.143243   -2.316878   -1.209360
 H    1.693647   -2.029272   -1.225108
 H    6.425179   -0.253369   -0.806777
 H    6.434844   -0.382133    0.951224
 H    6.270756   -1.835303   -0.047143
 H   -1.742395   -3.248039    0.977157
 H   -3.217297   -3.800480    0.167289
 H   -1.806427   -3.304520   -0.779756
 H   -4.575122   -2.033371    1.430469
 H   -3.095040   -1.506602    2.240414
 H   -4.070915   -0.339912    1.335314
 H   -3.217767   -1.633015   -2.054657
 H   -4.650250   -2.100475   -1.130996
 H   -4.135236   -0.407924   -1.165831
