37 
4few_ligand_dft.xyz
 C    2.186178    0.580199    0.003016
 N    3.314422    1.314928   -0.004628
 C    3.064933    2.611297   -0.073547
 N    1.880586    3.236952   -0.168105
 C    0.774941    2.489472   -0.165325
 C    0.877257    1.083947   -0.030686
 C    0.046080   -0.076059    0.001537
 N    0.792702   -1.164263    0.034371
 N    2.088442   -0.774719    0.034033
 C   -1.422396   -0.190108    0.010281
 C   -2.208678    0.688299    0.762673
 C   -3.595043    0.575074    0.773233
 C   -4.197084   -0.436245    0.034346
 C   -3.434973   -1.335076   -0.705572
 C   -2.052502   -1.206305   -0.714776
 C    3.192061   -1.762608    0.094264
 C    3.997161   -1.513073    1.376247
 C    2.596681   -3.170322    0.113516
 C    4.073771   -1.581480   -1.148321
 N   -0.410812    3.142061   -0.280988
Cl   -5.938713   -0.584900    0.039043
 H    3.933125    3.266418   -0.068725
 H   -1.733160    1.456422    1.366112
 H   -4.200980    1.255285    1.361689
 H   -3.921028   -2.121740   -1.272168
 H   -1.445794   -1.898549   -1.289029
 H    4.428408   -0.509016    1.376557
 H    3.356253   -1.625101    2.256770
 H    4.810710   -2.242500    1.445875
 H    1.953880   -3.322561    0.983690
 H    2.005023   -3.367105   -0.783990
 H    3.421124   -3.889146    0.154538
 H    3.487540   -1.741957   -2.059052
 H    4.506663   -0.578737   -1.177402
 H    4.888015   -2.313197   -1.128587
 H   -0.348811    4.114578   -0.544361
 H   -1.230551    2.633415   -0.573749
