68 
4ff8_ligand_dft.xyz
 O   -7.236786   -0.602391    1.991307
 C   -6.962177    0.430344    1.407433
 C   -7.186404    1.855964    1.900091
 C   -6.938487    2.725241    0.662767
 C   -6.003905    1.863559   -0.203989
 N   -6.360717    0.510503    0.181377
 C   -5.831954   -0.660326   -0.480513
 C   -4.371445   -0.938960   -0.120801
 C   -3.842371   -2.184098   -0.833466
 N   -2.451494   -2.468472   -0.530866
 C   -1.451834   -1.749463   -1.125093
 O   -1.721860   -0.906175   -1.988566
 C   -0.070724   -2.031291   -0.689843
 C    1.006645   -1.137224   -0.995457
 N    0.827459   -0.037926   -1.740465
 C    1.873870    0.942887   -1.996480
 C    2.169909    1.801327   -0.757587
 C    0.980613    2.775779   -0.683047
 C    0.464799    2.924719   -2.141321
 C    1.343944    1.979883   -2.991348
 C    0.296615   -3.160158    0.038210
 N    1.511231   -3.408988    0.508685
 C    2.423419   -2.456610    0.212688
 N    2.241607   -1.368904   -0.531788
 N    3.661976   -2.635442    0.734482
 C    4.730087   -1.680776    0.549032
 C    4.538372   -0.371879    1.294717
 C    3.622363   -0.223744    2.326033
 C    3.438968    1.002885    2.964115
 C    4.187552    2.099154    2.561730
 C    5.120871    1.976352    1.532906
 C    5.295203    0.744679    0.904763
 O    6.177878    0.522453   -0.108693
 C    6.890091    1.622851   -0.623247
 H   -6.456195    2.052518    2.694265
 H   -8.182055    1.960248    2.335537
 H   -6.502620    3.699595    0.894152
 H   -7.878788    2.893361    0.128770
 H   -4.945253    2.072464    0.010267
 H   -6.162641    2.012977   -1.277399
 H   -5.938849   -0.526943   -1.564459
 H   -6.461581   -1.502579   -0.178106
 H   -4.296606   -1.069521    0.965568
 H   -3.741383   -0.088759   -0.403453
 H   -3.921343   -2.055207   -1.916254
 H   -4.432550   -3.064804   -0.557603
 H   -2.255730   -2.921332    0.347809
 H   -0.103613    0.070513   -2.131285
 H    2.766570    0.421362   -2.353773
 H    3.106765    2.345579   -0.930636
 H    2.306946    1.201569    0.144434
 H    1.269072    3.734978   -0.243283
 H    0.195072    2.356891   -0.046199
 H    0.527697    3.955874   -2.501394
 H   -0.588580    2.632760   -2.208088
 H    0.808283    1.526038   -3.831580
 H    2.198925    2.524846   -3.405944
 H   -0.440093   -3.936315    0.245883
 H    3.782195   -3.444219    1.321839
 H    4.830755   -1.459683   -0.517053
 H    5.663074   -2.161117    0.862126
 H    3.025684   -1.082562    2.619647
 H    2.710877    1.096566    3.763557
 H    4.053262    3.062823    3.044034
 H    5.697774    2.842786    1.230458
 H    6.211196    2.398228   -1.001650
 H    7.555109    2.062633    0.131201
 H    7.490234    1.235377   -1.447529
