72 
4fhh_ligand_xtb.xyz
 C   -2.918241   -0.242332   -0.950252
 C   -3.888558   -0.321063    0.036388
 C   -3.868557    0.586698    1.101074
 C   -2.880055    1.555183    1.141887
 C   -1.901753    1.651969    0.159850
 C   -1.940798    0.734029   -0.881570
 C   -0.815226    2.719169    0.140500
 C    0.508035    2.004659   -0.103757
 C   -0.695929    3.453916    1.493276
 C   -1.165736    3.703392   -0.996592
 C   -2.552427    4.326816   -0.869841
 C    0.476294    4.427475    1.567045
 C    1.446087    2.404330   -1.047879
 C    2.648372    1.739559   -1.216383
 C    2.934289    0.629393   -0.411530
 C    3.653110    2.187950   -2.233702
 C    2.007831    0.217527    0.535223
 C    0.814308    0.900954    0.681168
 O   -4.906855   -1.246782    0.064191
 O   -8.069338   -3.556895    0.565976
 C   -5.005448   -2.164953   -0.994408
 C   -6.222785   -3.052940   -0.797109
 N   -6.933881   -2.792010    0.302343
 O   -6.543878   -3.937807   -1.571444
 C    6.514982   -2.691695    0.459538
 C    6.709846   -2.338597    1.935354
 C    5.625044   -3.929343    0.328349
 C    7.880849   -2.989458   -0.167653
 C    4.506296   -1.081805    0.165592
 O    4.139527    0.023910   -0.636858
 C    5.906580   -1.496497   -0.308854
 O    6.778012   -0.393820   -0.196986
 C   -4.915932    0.491572    2.168620
 H   -2.908197   -0.934116   -1.777563
 H   -2.892009    2.245830    1.969922
 H   -1.188407    0.770884   -1.655148
 H   -0.569476    2.705334    2.277969
 H   -1.616137    4.002255    1.695495
 H   -0.426481    4.503756   -1.028733
 H   -1.118069    3.162178   -1.943659
 H   -3.318657    3.558041   -0.804050
 H   -2.757705    4.941631   -1.743718
 H   -2.623657    4.962259    0.008890
 H    0.544098    4.841829    2.570913
 H    1.412729    3.923610    1.339944
 H    0.350795    5.254168    0.872750
 H    1.255342    3.257463   -1.679525
 H    3.980641    1.342621   -2.836162
 H    3.232658    2.950303   -2.884062
 H    4.533004    2.598431   -1.738178
 H    2.202330   -0.635826    1.165694
 H    0.104797    0.555276    1.418586
 H   -8.099814   -4.176726   -0.191911
 H   -4.120932   -2.815327   -1.050107
 H   -5.116404   -1.655850   -1.962235
 H   -6.731913   -2.086182    0.990069
 H    7.288402   -3.115431    2.429008
 H    5.755864   -2.249203    2.449465
 H    7.246184   -1.397581    2.018490
 H    6.142624   -4.793944    0.737127
 H    5.395504   -4.131312   -0.715675
 H    4.691909   -3.809267    0.872952
 H    8.506806   -2.103407   -0.122288
 H    8.374101   -3.798223    0.365804
 H    7.766955   -3.280330   -1.209477
 H    3.793579   -1.902996    0.033523
 H    4.537792   -0.783116    1.220134
 H    5.815763   -1.779044   -1.372508
 H    6.304328    0.370249   -0.548032
 H   -4.870943   -0.483217    2.653068
 H   -5.908267    0.600518    1.732556
 H   -4.774568    1.264227    2.919247
