48 
4fl2_ligand_xtb.xyz
 P    0.591056   -2.187571   -0.526936
 O    1.465498   -2.901488   -1.652831
 O    0.533380   -0.729715   -0.647128
 O    1.171631   -2.812943    0.783984
 P   -2.014637   -2.030478    0.221823
 O   -3.253394   -2.998254    0.315795
 O   -1.520408   -1.476098    1.474254
 N   -0.938187   -2.877047   -0.723246
 P   -3.633622    0.097084   -0.339116
 O   -4.343613    0.535599   -1.671215
 O   -4.507341   -0.573584    0.630180
 O   -2.467470   -0.890171   -0.845271
 O   -2.925489    1.443868    0.062657
 C   -1.789025    1.451274    0.919124
 C   -1.153568    2.847666    0.899580
 O    0.042805    2.829909    1.669887
 C   -0.733310    3.281247   -0.511555
 O   -0.658197    4.677100   -0.586291
 C    0.655340    2.633711   -0.633746
 O    1.488908    3.372646   -1.474842
 C    1.144807    2.621700    0.841970
 N    1.804516    1.361538    1.110703
 C    1.493964    0.378106    1.991199
 N    2.223070   -0.694249    1.852315
 C    3.063485   -0.425717    0.796209
 C    3.994268   -1.184747    0.065617
 N    4.340254   -2.446136    0.384645
 N    4.588648   -0.607068   -0.983600
 C    4.274232    0.632676   -1.309268
 N    3.395192    1.434343   -0.732316
 C    2.799548    0.865120    0.319235
 H    1.411931   -2.422029   -2.478839
 H    1.484466   -2.101924    1.415754
 H   -3.986732   -2.494058    0.699262
 H   -0.997854   -3.877827   -0.642908
 H   -5.263174    0.270647   -1.671949
 H   -2.089110    1.192800    1.938249
 H   -1.060894    0.711098    0.577430
 H   -1.820396    3.588114    1.347556
 H   -1.432273    2.894971   -1.263444
 H    0.094850    4.885930   -1.158624
 H    0.552291    1.596921   -0.979058
 H    2.346899    2.905841   -1.498591
 H    1.878579    3.427900    1.006740
 H    0.717123    0.490606    2.719928
 H    3.744185   -2.959662    1.010996
 H    4.885516   -2.952996   -0.292025
 H    4.789258    1.037322   -2.170163
