50 
4fli_ligand_xtb.xyz
 N   -2.113689    1.586465    0.733902
 O    0.075393   -0.054603   -1.574707
 N   -0.348019    4.621722   -0.312366
 O   -2.876923   -2.895024   -0.617882
 O   -0.259625   -2.830373   -1.564851
 O   -3.217460    1.021235   -1.147727
 O    0.304711    2.473298   -0.297206
 O   -2.105447   -0.823719    1.680299
 C    4.082923   -0.239745    0.305197
 C    2.615102    0.039972   -0.061464
 C    1.711725   -1.187491   -0.153246
 C    0.246550   -0.780001   -0.373897
 C   -0.645252   -2.024084   -0.473473
 C   -2.141457   -1.689195   -0.649131
 C   -2.727666   -0.738217    0.415124
 C    4.835007    1.095452    0.270526
 C    4.725397   -1.196398   -0.701350
 C    4.194241   -0.828995    1.713296
 C   -2.697639    0.701788   -0.100563
 C   -1.967245    2.967982    0.368347
 C   -0.557233    3.304419   -0.114469
 C   -2.543087   -1.925438    2.448462
 H   -1.631009    1.224933    1.542318
 H    0.281487    0.869668   -1.377826
 H   -1.084463    5.298593   -0.225293
 H    0.539466    4.921151   -0.682507
 H   -2.384004   -3.530566   -1.155619
 H   -0.117079   -2.222540   -2.303708
 H    2.195909    0.726127    0.678661
 H    2.594762    0.554184   -1.024451
 H    1.757992   -1.768770    0.767767
 H    2.020609   -1.825064   -0.981831
 H   -0.083824   -0.183087    0.483134
 H   -0.518678   -2.641689    0.421469
 H   -2.273425   -1.201529   -1.628048
 H   -3.791787   -1.010442    0.501136
 H    5.878340    0.955649    0.545744
 H    4.799520    1.528638   -0.726547
 H    4.388995    1.803278    0.965854
 H    5.791650   -1.288951   -0.504395
 H    4.595975   -0.826479   -1.715953
 H    4.282981   -2.186606   -0.635011
 H    5.240000   -0.930647    1.996326
 H    3.736703   -1.813377    1.763993
 H    3.704859   -0.182419    2.438521
 H   -2.235297    3.615752    1.208737
 H   -2.661204    3.139425   -0.463305
 H   -1.922718   -1.939679    3.342886
 H   -2.431849   -2.864581    1.902855
 H   -3.595332   -1.805088    2.730787
