60 
4flk_ligand_dft.xyz
 N   -1.859971   -0.166326   -0.417015
 O    3.223265    1.982429    0.900465
 O   -0.297614    2.494812   -1.270395
 O    2.325193    2.127403   -1.687344
 O   -0.051911   -1.082454    0.614776
 O   -1.523998    2.111115    1.028087
 C    6.002711   -1.298319    0.131671
 C    4.781617   -0.521268    0.667260
 C    3.769939   -0.038112   -0.370982
 C    2.684052    0.835448    0.262283
 C    1.648564    1.278612   -0.773306
 C    0.488393    2.065519   -0.167954
 C   -0.383004    1.294658    0.834095
 C    6.844949   -1.740179    1.337836
 C    5.561018   -2.542551   -0.651421
 C    6.865119   -0.404246   -0.771127
 C   -0.747856   -0.111475    0.344669
 C   -2.441838   -1.422528   -0.859466
 C   -3.183640   -2.117011    0.307036
 C   -4.532425   -1.436246    0.281001
 C   -4.751929   -0.859375   -0.974572
 C   -3.560789   -1.115826   -1.872363
 C   -5.490886   -1.330704    1.279583
 C   -6.674911   -0.641545    1.011921
 C   -6.892584   -0.068908   -0.239553
 C   -5.929319   -0.176146   -1.243796
 C   -2.309002    1.747422    2.145927
 H   -2.379901    0.691930   -0.532942
 H    3.488197    2.568100    0.175137
 H   -0.991295    3.060910   -0.907706
 H    1.633372    2.592085   -2.179239
 H    5.139212    0.350894    1.228692
 H    4.255567   -1.159968    1.392050
 H    4.260785    0.539509   -1.163502
 H    3.279096   -0.891889   -0.854888
 H    2.179191    0.255000    1.040834
 H    1.247894    0.397215   -1.294019
 H    0.903689    2.933191    0.360643
 H    0.168869    1.168414    1.774359
 H    7.739018   -2.287240    1.015348
 H    7.172906   -0.874218    1.925248
 H    6.267857   -2.396603    1.999976
 H    4.909156   -3.179560   -0.041236
 H    6.430362   -3.139808   -0.951975
 H    5.014480   -2.274495   -1.562289
 H    7.169582    0.507934   -0.243991
 H    7.774307   -0.932485   -1.082323
 H    6.331160   -0.106478   -1.679849
 H   -1.641366   -2.042712   -1.267090
 H   -3.289978   -3.190472    0.100525
 H   -2.639365   -2.017751    1.249744
 H   -3.306781   -0.282268   -2.535513
 H   -3.739295   -1.993610   -2.506240
 H   -5.323343   -1.775422    2.257073
 H   -7.430663   -0.547693    1.786262
 H   -7.816704    0.467659   -0.433327
 H   -6.098782    0.276002   -2.217558
 H   -2.756258    0.751943    2.018496
 H   -3.107895    2.486947    2.223794
 H   -1.711837    1.759485    3.067448
