67 
4fll_ligand_dft.xyz
 O    2.536543   -1.342394   -2.203439
 C    2.666155   -1.384169   -0.976732
 C    3.434775   -0.296478   -0.214990
 O    3.010324   -0.337812    1.128571
 C    3.911560    0.216585    2.066566
 C    3.263063    1.065196   -0.888150
 O    4.334365    1.895995   -0.479515
 C    1.943308    1.784753   -0.570921
 O    2.007327    3.055643   -1.204624
 C    0.681500    1.028120   -0.991420
 O    0.673524    0.816965   -2.400020
 C   -0.608353    1.721202   -0.642398
 C   -0.770555    2.747575    0.187713
 C   -2.087126    3.359432    0.616714
 C   -3.294998    2.703448   -0.060010
 C   -2.057854    4.859129    0.272195
 C   -2.207442    3.193820    2.143601
 N    2.174422   -2.372344   -0.214922
 C    1.307391   -3.394780   -0.775461
 C   -0.084246   -2.868527   -1.143425
 C   -1.083508   -2.731022    0.024177
 C   -0.567091   -1.958542    1.205719
 C   -0.807576   -0.711670    1.687090
 C   -0.005649   -0.562743    2.863794
 C    0.649960   -1.736668    3.020332
 O    0.319204   -2.601936    2.023319
 C   -2.414940   -2.132290   -0.414679
 C   -2.513558   -1.187833   -1.437630
 C   -3.743465   -0.616183   -1.759852
 C   -4.892413   -0.981147   -1.067437
 C   -4.805788   -1.928246   -0.049477
 C   -3.577922   -2.494559    0.270798
 H    4.505097   -0.552460   -0.285340
 H    3.459374    0.060776    3.048437
 H    4.069985    1.283621    1.889092
 H    4.883578   -0.295349    2.024920
 H    3.319798    0.893469   -1.971598
 H    4.078557    2.781825   -0.780785
 H    1.911776    1.966655    0.507760
 H    1.658843    2.910363   -2.098278
 H    0.673412    0.062499   -0.462159
 H    1.302184    0.095098   -2.587472
 H   -1.473617    1.257113   -1.108154
 H    0.104685    3.219516    0.634277
 H   -4.220343    3.182964    0.278522
 H   -3.242525    2.806199   -1.149757
 H   -3.367211    1.635463    0.174738
 H   -1.205398    5.356699    0.749049
 H   -1.971176    5.007637   -0.809375
 H   -2.974147    5.353140    0.616619
 H   -2.250448    2.134121    2.420350
 H   -1.350966    3.645095    2.658325
 H   -3.117761    3.679277    2.514879
 H    2.197287   -2.224111    0.784849
 H    1.790030   -3.775903   -1.678767
 H    1.248216   -4.211706   -0.050976
 H    0.057481   -1.911686   -1.651961
 H   -0.533335   -3.545663   -1.879366
 H   -1.283630   -3.748151    0.390327
 H   -1.471117    0.019567    1.250668
 H    0.059635    0.305090    3.503955
 H    1.348519   -2.111219    3.752287
 H   -1.634453   -0.873334   -1.991592
 H   -3.795420    0.123171   -2.553718
 H   -5.848761   -0.532068   -1.317795
 H   -5.696324   -2.225201    0.496732
 H   -3.514438   -3.224216    1.074719
