66 
4fm7_ligand_dft.xyz
 C    0.467132    3.065761   -0.977696
 C   -3.176673   -2.955676    0.169175
 C    1.410910    2.047684   -1.081323
 C   -4.323916   -2.878646   -0.616294
 C   -0.099201    3.389147    0.251706
 C   -3.229216   -0.558061    0.497992
 C    1.254587    1.673984    1.305630
 C   -2.621594   -1.804231    0.719186
 C    1.780570    1.331765    0.058493
 C   -4.925279   -1.648733   -0.841753
 C   -4.378344   -0.475701   -0.272251
 C    0.315199    2.691681    1.377547
 C    1.090369   -1.131041   -1.415345
 C    2.358216   -2.167158    0.436330
 C    3.613450   -1.300445   -1.570605
 C   -0.145315   -1.054261   -0.530845
 C    1.181217   -2.008695    1.389662
 C    2.408868   -1.073956   -0.645593
 C    1.196423   -3.071887    2.480878
 C   -3.594546    2.550872   -0.721731
 C   -6.017879    2.739764   -0.019818
 C    6.055440   -0.849008   -1.447253
 C   -1.347059   -1.880755    1.497614
 C   -4.751046    1.903895    0.030451
 N    2.694161    0.230989   -0.000531
 N    4.749011   -0.840596   -0.786954
 N   -0.121649   -2.050096    0.599540
 O    4.479840    1.726911   -1.107444
 O    4.934885    0.806275    1.170570
 O   -6.034660   -1.571386   -1.591550
 O   -5.089333    0.637539   -0.562848
 F   -0.209331    2.998721    2.567358
 S    4.335344    0.656714   -0.135561
 H    0.179562    3.624670   -1.861889
 H   -2.728961   -3.928881    0.359481
 H    1.884839    1.828813   -2.031558
 H   -4.776945   -3.764893   -1.046146
 H   -0.828956    4.184543    0.351498
 H   -2.793458    0.334485    0.935398
 H    1.592695    1.176154    2.207707
 H    1.082787   -2.074516   -1.976557
 H    1.015577   -0.329842   -2.154362
 H    3.280487   -2.132338    1.021894
 H    2.314147   -3.158110   -0.038547
 H    3.750652   -2.359590   -1.807532
 H    3.493463   -0.739648   -2.512623
 H   -1.048048   -1.255908   -1.106818
 H   -0.252116   -0.073766   -0.064799
 H    1.204398   -1.008193    1.829145
 H    2.190310   -3.084090    2.934703
 H    0.480596   -2.878784    3.281918
 H    1.012577   -4.071680    2.069808
 H   -3.354536    3.516634   -0.266632
 H   -3.875204    2.721549   -1.765549
 H   -2.690380    1.934248   -0.706023
 H   -6.831861    2.240216    0.511686
 H   -5.843797    3.712767    0.448239
 H   -6.324855    2.906193   -1.057118
 H    6.805230   -0.470106   -0.749817
 H    6.302945   -1.885386   -1.686545
 H    6.064647   -0.242926   -2.361805
 H   -1.342567   -2.735789    2.173952
 H   -1.157559   -0.971568    2.074738
 H   -4.479175    1.724789    1.078765
 H   -0.193005   -2.983805    0.181461
 H   -6.325393   -0.645727   -1.602479
