50 
4fny_ligand_xtb.xyz
 C   -8.071555   -2.822399    0.223295
 O   -7.485281   -1.692961    0.822997
 C   -6.293372   -1.260832    0.343811
 C   -5.595133   -1.833434   -0.684711
 C   -5.767335   -0.103944    1.008183
 O   -6.543306    0.373213    2.015205
 C   -6.097896    1.508631    2.714435
 C   -4.570969    0.424995    0.606951
 C   -3.846622   -0.154187   -0.455567
 C   -4.360397   -1.300059   -1.112447
 N   -3.719851   -1.902761   -2.131021
 C   -2.583706   -1.396813   -2.528089
 C   -1.975879   -0.269644   -1.963483
 C   -2.606009    0.357881   -0.910243
 O   -2.155824    1.495451   -0.305610
 C   -0.827670    1.840878   -0.356410
 C    0.183780    0.909507   -0.160758
 C   -0.552880    3.201167   -0.529270
 C    0.743421    3.685025   -0.524310
 C    1.746713    2.758047   -0.348829
 O    3.104708    2.923869   -0.305205
 C    1.483195    1.386594   -0.166445
 N    2.684308    0.730045   -0.012769
 C    3.580196    1.660125   -0.102205
 N    4.922706    1.557609   -0.025035
 C    5.688134    0.410460    0.153481
 C    5.112605   -0.848662    0.305161
 C    5.917165   -1.958247    0.478612
 C    7.296080   -1.816791    0.501685
Cl    8.299744   -3.207459    0.718594
 C    7.879813   -0.568406    0.352488
 C    7.075762    0.540847    0.179382
 H   -8.278793   -2.650376   -0.837658
 H   -7.435883   -3.707317    0.328349
 H   -9.008339   -2.983776    0.754127
 H   -5.954304   -2.703071   -1.208562
 H   -5.141641    1.323369    3.214690
 H   -5.997051    2.374641    2.052022
 H   -6.862852    1.712472    3.461873
 H   -4.148019    1.293650    1.084246
 H   -2.105137   -1.904538   -3.355641
 H   -1.041547    0.099396   -2.356805
 H   -0.026881   -0.135494   -0.003314
 H   -1.384609    3.873820   -0.664688
 H    0.956443    4.732908   -0.656808
 H    5.421220    2.430683   -0.126968
 H    4.039320   -0.938935    0.283765
 H    5.473998   -2.934235    0.595863
 H    8.953260   -0.466789    0.371114
 H    7.528008    1.515126    0.062670
