15 
4fp1_ligand_xtb.xyz
 O   -0.000377   -0.194143    1.831427
 C   -0.000686   -0.159324    0.451683
 C   -0.016871   -1.643048   -0.091552
 O   -0.021803   -1.842507   -1.384131
 O   -0.025154   -2.510003    0.728120
 C   -1.267464    0.587361   -0.037511
 F   -1.313555    0.630279   -1.383915
 F   -1.340791    1.833048    0.399433
 F   -2.362457   -0.056616    0.361071
 C    1.279609    0.563547   -0.038762
 F    2.362962   -0.087584    0.378489
 F    1.365165    1.815278    0.379245
 F    1.336741    0.585901   -1.385236
 H   -0.008229   -1.131135    2.123466
 H   -0.013222   -1.069597   -1.971725
