55 
4fqo_ligand_xtb.xyz
 N    7.121716    3.868145    0.117440
 C    6.629618    2.865523    0.726042
 N    6.796657    2.782436    2.082773
 C    5.937584    1.713240    0.097335
 C    6.105976    0.421709    0.581936
 C    5.485945   -0.657269   -0.022290
 C    5.124895    1.903131   -1.019127
 C    4.493746    0.837486   -1.618855
 C    4.667103   -0.460458   -1.130454
 O    4.015634   -1.432126   -1.822470
 C    4.016351   -2.761657   -1.347300
 C    3.082883   -2.964858   -0.151130
 C    1.634556   -2.645383   -0.513789
 C    0.700690   -2.785839    0.684890
 C   -0.742304   -2.446033    0.322762
 C   -1.678405   -2.590327    1.520112
 C   -3.113290   -2.209497    1.169975
 O   -3.139250   -0.827656    0.875423
 C   -4.316584   -0.249796    0.526244
 C   -5.540268   -0.907314    0.447188
 C   -6.675485   -0.208447    0.078333
 C   -4.260234    1.115104    0.231304
 C   -5.397891    1.804243   -0.122860
 C   -6.626909    1.150400   -0.206177
 C   -7.856020    1.874665   -0.615942
 N   -7.926288    3.182619   -0.219707
 N   -8.796927    1.410118   -1.335176
 H    7.042075    3.823387   -0.893012
 H    7.158833    3.620129    2.509664
 H    6.112897    2.269934    2.613280
 H    6.751970    0.250857    1.430829
 H    5.657116   -1.644768    0.377498
 H    4.974965    2.901267   -1.405911
 H    3.857573    0.977923   -2.478543
 H    5.035404   -3.088784   -1.105727
 H    3.659133   -3.351280   -2.196526
 H    3.396671   -2.318081    0.670803
 H    3.167425   -4.001582    0.180702
 H    1.306654   -3.315718   -1.311533
 H    1.583455   -1.624552   -0.897380
 H    1.036905   -2.122620    1.485286
 H    0.748333   -3.810384    1.063013
 H   -1.079210   -3.105077   -0.480955
 H   -0.795377   -1.419387   -0.042346
 H   -1.337068   -1.942502    2.329119
 H   -1.671032   -3.621212    1.879211
 H   -3.776053   -2.425452    2.019928
 H   -3.455235   -2.788271    0.300554
 H   -5.622253   -1.959579    0.669948
 H   -7.621780   -0.729310    0.028994
 H   -3.303679    1.610506    0.288795
 H   -5.334522    2.855154   -0.363073
 H   -8.812483    3.627075   -0.398188
 H   -7.450514    3.450392    0.624774
 H   -8.639118    0.465230   -1.669318
