42 
4frs_ligand_dft.xyz
 C    1.008875    0.573268    0.185257
 S    0.032614   -0.863401    0.131466
 C    0.226609    1.661861   -0.089375
 C   -1.146262    1.363895   -0.316001
 C   -1.411409    0.028450   -0.225447
 C    3.219646    0.616892   -0.937038
 C    4.675152    0.209137   -0.897178
 N    4.993102   -0.815854   -0.021358
 C    4.078250   -1.429737    0.845489
 N    2.776929   -0.925456    0.839202
 C    2.506535    0.450337    0.408691
 C    3.019212    1.448317    1.461456
Cl    0.791025    3.302351   -0.240768
 C   -2.708673   -0.639591   -0.393848
 C   -3.888153   -0.021794    0.021780
 C   -5.109315   -0.668888   -0.174125
 C   -5.084278   -1.937677   -0.772737
 N   -3.968769   -2.543969   -1.167166
 C   -2.815475   -1.903623   -0.985828
 N    4.489171   -2.411063    1.550844
 O    5.501572    0.724088   -1.623208
 C    6.360907   -1.326323   -0.004679
 C   -6.345633   -0.076164    0.232695
 C   -7.393568    0.417892    0.573589
 C   -8.660580    1.011384    0.989387
 H   -1.883246    2.117653   -0.565497
 H    2.724049   -0.014454   -1.683805
 H    3.170980    1.649685   -1.285392
 H    2.298357   -1.169008    1.698800
 H    4.086646    1.280572    1.636788
 H    2.486580    1.304538    2.406857
 H    2.882680    2.483069    1.145039
 H   -3.861485    0.947813    0.509144
 H   -6.015969   -2.474910   -0.931443
 H   -1.924366   -2.416185   -1.344368
 H    3.745856   -2.775198    2.143964
 H    6.366486   -2.382359   -0.280505
 H    6.933458   -0.738113   -0.718532
 H    6.781717   -1.230628    0.997890
 H   -9.499087    0.552439    0.455956
 H   -8.674810    2.086725    0.784473
 H   -8.823749    0.868680    2.062717
