51 
4fs3_ligand_dft.xyz
 O   -1.407423   -3.538462   -1.453333
 C   -1.377899   -2.787226   -0.490461
 C   -0.084493   -2.098075   -0.069677
 C    1.062425   -2.415801   -1.033087
 C    2.317635   -1.673839   -0.652839
 C    2.471876   -0.309182   -0.923039
 C    3.616949    0.362254   -0.534140
 C    3.916902    1.807386   -0.831669
 C    4.717133    2.438110    0.311242
 C    3.366650   -2.298907    0.012406
 N    4.479700   -1.680731    0.420696
 C    4.583374   -0.386068    0.155377
 N    5.752862    0.246038    0.585542
 C    5.923920    1.607605    0.717345
 O    6.948967    2.081501    1.163342
 N   -2.498399   -2.540987    0.267142
 C   -3.772785   -3.087027   -0.161767
 C   -2.565163   -1.551391    1.332413
 C   -3.061505   -0.218848    0.871622
 O   -2.148057    0.536742    0.174675
 C   -2.792543    1.675513   -0.194017
 C   -4.112219    1.653652    0.265381
 C   -4.267386    0.393466    0.960767
 C   -5.516402   -0.097863    1.619118
 C   -2.248191    2.726940   -0.916960
 C   -3.093711    3.797342   -1.179915
 C   -4.425128    3.804628   -0.732609
 C   -4.946944    2.741177   -0.009867
 H    0.191226   -2.413150    0.945538
 H   -0.244474   -1.015156   -0.024978
 H    0.755191   -2.151819   -2.050041
 H    1.242864   -3.494644   -1.041620
 H    1.688914    0.228579   -1.455932
 H    2.991825    2.366806   -1.002994
 H    4.501895    1.869660   -1.759766
 H    4.083546    2.532812    1.203326
 H    5.076378    3.437255    0.058213
 H    3.311765   -3.363350    0.235177
 H    6.474731   -0.347619    0.973579
 H   -4.263651   -3.596855    0.675671
 H   -4.435023   -2.291967   -0.527229
 H   -3.588093   -3.798353   -0.964822
 H   -1.585754   -1.438384    1.800912
 H   -3.240751   -1.931685    2.106043
 H   -5.383387   -1.090987    2.057264
 H   -5.833877    0.582948    2.416898
 H   -6.337435   -0.160581    0.896130
 H   -1.218505    2.706747   -1.256601
 H   -2.717312    4.645354   -1.743460
 H   -5.054585    4.659617   -0.958792
 H   -5.977515    2.753211    0.332615
