47 
4fut_ligand_xtb.xyz
 P   -4.030049   -0.891217   -0.182497
 O   -4.418165   -1.074114   -1.675251
 O   -5.439934   -0.689515    0.482074
 O   -3.235978   -1.933583    0.484785
 P   -2.162226    0.943075    0.835794
 O   -2.201459    2.490952    0.814015
 O   -2.149802    0.239211    2.104413
 O   -3.385849    0.588446   -0.118298
 P   -0.770020   -0.840773   -0.799845
 O   -1.796338   -1.062698   -1.824315
 O   -0.705513   -1.933535    0.319915
 O   -0.884987    0.586263   -0.100836
 O    0.710529   -0.692625   -1.337337
 C    1.411447   -1.878279   -1.693626
 C    2.572094   -2.173051   -0.728866
 O    3.728870   -1.429450   -1.093400
 C    2.270734   -1.829337    0.751142
 O    1.991709   -2.960995    1.528496
 C    3.569134   -1.142111    1.218009
 O    4.530154   -2.066016    1.642032
 C    4.032343   -0.496520   -0.091548
 N    3.343654    0.750085   -0.376852
 C    3.429503    1.377281   -1.594896
 N    2.603463    2.361515   -1.749288
 C    1.897509    2.409434   -0.576009
 C    0.798757    3.169678   -0.149212
 N    0.230095    4.121387   -0.905898
 N    0.308815    2.935836    1.076909
 C    0.865536    1.988974    1.831536
 N    1.861353    1.195746    1.522510
 C    2.349988    1.400760    0.294316
 H   -3.603629   -1.152317   -2.193772
 H   -5.432220   -0.967305    1.398476
 H   -1.286121    2.859570    1.051481
 H   -1.649852   -2.128888    0.566248
 H    0.721665   -2.724048   -1.717908
 H    1.827130   -1.717475   -2.691854
 H    2.832506   -3.235231   -0.817527
 H    1.461659   -1.099550    0.813385
 H    1.035567   -3.076108    1.557982
 H    3.370727   -0.397964    1.997545
 H    4.047326   -2.820462    2.009179
 H    5.115404   -0.331550   -0.113521
 H    4.129685    1.050620   -2.337846
 H   -0.652643    4.508696   -0.619703
 H    0.525324    4.197217   -1.863748
 H    0.432053    1.856838    2.812732
