34 
4fxf_ligand_xtb.xyz
 P   -0.977992    2.294434   -0.080942
 O   -1.701891    3.671850    0.200491
 O   -1.513964    1.574743   -1.254325
 O   -1.000974    1.601925    1.312031
 O    0.533735    2.804441   -0.276343
 C    1.477361    1.922245   -0.830314
 C    1.650970    0.651079    0.013735
 O    1.750340    0.939433    1.372773
 C    2.925492   -0.135860   -0.357510
 O    4.069057    0.346724    0.265750
 C    2.512894   -1.563478    0.055959
 O    3.168855   -2.581605   -0.639063
 C    1.016159   -1.580738   -0.275437
 O    0.570752   -0.223544   -0.248528
 C    0.201229   -2.433819    0.691112
 O   -1.071440   -2.735567    0.173227
 P   -2.158769   -1.556286    0.054096
 O   -2.003264   -0.946111   -1.379071
 O   -3.485005   -2.408614   -0.026208
 O   -2.161681   -0.635000    1.204727
 H   -1.973364    4.097556   -0.610808
 H   -1.505026    0.729178    1.307248
 H    2.423879    2.468241   -0.860306
 H    1.168701    1.624209   -1.836381
 H    0.920538    1.359960    1.655382
 H    3.098144   -0.107363   -1.438320
 H    3.813543    0.637447    1.154339
 H    2.661570   -1.666924    1.142862
 H    4.120384   -2.455068   -0.538141
 H    0.876176   -1.969225   -1.292122
 H    0.096954   -1.900763    1.641712
 H    0.703639   -3.392783    0.839835
 H   -1.779858    0.022512   -1.373868
 H   -3.514659   -2.945190   -0.817699
