71 
4fxy_ligand_dft.xyz
 C   -0.039343   -0.669182   -1.087711
 C    2.238065   -0.354616   -0.354101
 N   -2.470132    0.425725    0.037236
 C   -3.478633    0.076415    2.149120
 N    1.355996   -1.060016   -1.173573
 C   -0.588425   -1.105141    0.282602
 C   -2.037076    1.783829   -0.073047
 C   -2.746022    2.629343   -0.931894
 C   -2.387126    3.947225   -1.135511
 C   -1.254804    4.446349   -0.495091
 C   -0.511098    3.614835    0.333308
 C   -0.899920    2.294604    0.548765
 C    4.553210   -0.272986    0.458060
 N    3.469649   -0.939908   -0.243545
 O    1.939701    0.695982    0.198676
 C   -0.832187   -1.283946   -2.240106
 O   -0.083275   -2.027901    0.905803
 N   -1.615999   -0.390204    0.823213
 F   -3.825623    2.138850   -1.572705
 C   -3.806432    0.275794    0.654964
 C   -4.612690   -0.873135    0.084998
 C   -4.018408   -1.959821   -0.558472
 C   -4.772602   -3.020161   -1.046989
 C   -6.154853   -3.017150   -0.899237
 C   -6.775268   -1.953649   -0.254784
 C   -6.003035   -0.905172    0.231530
Cl   -6.836749    0.403276    1.055908
 C   -2.222659   -0.786927    2.095062
 C    5.280178    0.781215   -0.404218
 C    6.008668    0.094733   -1.570653
 C    7.037857   -0.909964   -1.024927
 C    6.318392   -1.972916   -0.177702
 C    5.576143   -1.294097    0.987952
 C    6.600677   -0.551337    1.863017
 C    7.330332    0.513059    1.027050
 C    8.057157   -0.168486   -0.144090
 C    6.303375    1.515856    0.476926
 H   -0.070847    0.418183   -1.163152
 H   -4.292657   -0.393572    2.703442
 H   -3.262027    1.049320    2.600817
 H    1.466390   -2.064593   -1.087488
 H   -2.987044    4.556473   -1.802675
 H   -0.954618    5.476309   -0.657913
 H    0.388458    3.982623    0.815227
 H   -0.287246    1.641870    1.158965
 H    4.082451    0.236109    1.304620
 H    3.710206   -1.640375   -0.928234
 H   -0.893698   -2.374513   -2.140508
 H   -0.335617   -1.051495   -3.185767
 H   -1.844717   -0.873461   -2.263400
 H   -4.357370    1.199975    0.495411
 H   -2.943054   -1.973213   -0.679389
 H   -4.276139   -3.848473   -1.542469
 H   -6.753633   -3.838367   -1.280111
 H   -7.851728   -1.929666   -0.125468
 H   -2.450703   -1.858149    2.071163
 H   -1.529455   -0.604427    2.919242
 H    4.534198    1.488351   -0.782387
 H    6.511589    0.849075   -2.189071
 H    5.288668   -0.414544   -2.224949
 H    7.557058   -1.395984   -1.859775
 H    7.044458   -2.693033    0.221161
 H    5.629908   -2.556157   -0.805369
 H    5.047141   -2.045409    1.585377
 H    7.322968   -1.268700    2.274078
 H    6.094325   -0.080204    2.715208
 H    8.057652    1.038445    1.657343
 H    8.807011   -0.874432    0.237077
 H    8.593722    0.580689   -0.740919
 H    5.789834    2.021811    1.304867
 H    6.811015    2.292939   -0.109146
