50 
4fz6_ligand_xtb.xyz
 C   -2.772082   -2.035427   -0.106436
 N   -3.786018   -1.099969   -0.119926
 C   -1.431992   -1.576800   -0.056826
 N   -3.619512    0.214748   -0.095392
 C   -1.252967   -0.208165   -0.041004
 C   -2.377057    0.645222   -0.063722
 N    1.458688   -1.220444    0.045172
 C    2.789218   -1.111954    0.156744
 N    3.276348    0.147385    0.084703
 N   -3.258434   -3.267265   -0.130156
 N   -0.466343   -2.537064   -0.014529
 C    0.905024   -2.424905    0.090511
 C   -4.953036   -1.790075   -0.156268
 C   -4.597396   -3.118591   -0.161425
 C   -2.210254    2.105780   -0.024280
 C    4.659664    0.535865    0.262768
 C    2.394519    1.283350   -0.088248
 C    3.612926   -2.237555    0.332134
 C    1.646643   -3.599030    0.241073
 C    3.019997   -3.481760    0.369728
 C    3.328005    2.489295   -0.152745
 C    4.552545    2.019838    0.630635
 C   -1.101278    2.722148   -0.596876
 C   -3.178169    2.895463    0.592489
 C    5.475527    0.319341   -1.015567
 C   -0.955238    4.095585   -0.535481
 C   -3.028922    4.267696    0.652052
 C   -1.913984    4.871771    0.093751
 H   -0.256967    0.187045    0.022120
 H   -0.838508   -3.478832   -0.011789
 H   -5.904243   -1.302460   -0.174503
 H   -5.240474   -3.976113   -0.185551
 H    5.110554   -0.040343    1.079358
 H    1.707540    1.354539    0.763582
 H    1.801307    1.158480   -0.997860
 H    4.679768   -2.137315    0.434987
 H    1.157250   -4.559509    0.263746
 H    3.628018   -4.365730    0.498974
 H    2.873847    3.379747    0.276737
 H    3.600939    2.706579   -1.185444
 H    4.370019    2.123036    1.700928
 H    5.454299    2.572139    0.375055
 H   -0.362593    2.128563   -1.112622
 H   -4.041838    2.413939    1.023438
 H    5.432841   -0.722745   -1.321049
 H    6.514713    0.590940   -0.847222
 H    5.079780    0.926213   -1.825190
 H   -0.090666    4.562758   -0.984863
 H   -3.783075    4.870425    1.136673
 H   -1.795768    5.944353    0.143342
