83 
4fzg_ligand_dft.xyz
 C    1.750616   -2.540731   -0.155452
 O    1.475131   -3.696099    0.147791
 C    3.163146   -2.090021   -0.278672
 C    3.595483   -0.837274   -0.077696
 C    4.993119   -0.432363   -0.134335
 C    5.392788    0.829196    0.067434
 C    6.803640    1.340377    0.029998
 C    7.888354    0.298929   -0.235984
 C    9.291846    0.905158   -0.243590
 C   10.385260   -0.130099   -0.514450
 C   11.792916    0.462025   -0.633887
 C   12.331699    1.079965    0.658365
 C   13.758583    1.604449    0.506379
 N    0.791578   -1.602563   -0.382320
 C   -0.607218   -1.874365   -0.188611
 C   -1.395287   -0.781663   -0.897689
 O   -0.946780    0.342951   -1.083731
 C   -0.998156   -1.912689    1.332559
 O   -2.407857   -1.974388    1.510167
 C   -0.415447   -0.738293    2.110401
 N   -2.654746   -1.152882   -1.226790
 C   -3.728549   -0.206483   -1.395277
 C   -3.759101    0.811844   -0.238262
 O   -3.339581    0.546001    0.891533
 C   -5.051728   -0.988102   -1.540871
 C   -5.498286   -1.951624   -0.407096
 O   -4.513314   -2.946679   -0.160299
 C   -5.987993   -1.323871    0.909112
 C   -7.422310   -0.776592    0.879931
 N   -7.706697    0.182368   -0.177443
 N   -4.322116    1.994989   -0.534280
 C   -4.472115    3.073744    0.438081
 C   -3.681151    4.301227   -0.007162
 C   -5.950427    3.400128    0.688511
 C   -6.794356    2.161807    0.982664
 C   -7.245610    1.460494   -0.292960
 O   -7.255712    2.024939   -1.381298
 H    3.867202   -2.896978   -0.464484
 H    2.882400   -0.049470    0.168366
 H    5.719032   -1.213288   -0.353547
 H    4.632089    1.581326    0.282664
 H    6.864529    2.132920   -0.730874
 H    7.010804    1.846286    0.984876
 H    7.835968   -0.487809    0.528466
 H    7.699635   -0.190261   -1.201060
 H    9.472254    1.398966    0.720299
 H    9.344563    1.693220   -1.008568
 H   10.143877   -0.660924   -1.445133
 H   10.374061   -0.887214    0.282217
 H   12.484464   -0.326152   -0.960788
 H   11.799460    1.222631   -1.427836
 H   12.297737    0.327254    1.457613
 H   11.679361    1.901087    0.980599
 H   14.445300    0.800338    0.217649
 H   14.127558    2.041116    1.440189
 H   13.810581    2.377882   -0.268636
 H    1.013484   -0.670794   -0.705855
 H   -0.846897   -2.855552   -0.613228
 H   -0.597621   -2.852035    1.721058
 H   -2.741042   -1.059472    1.391557
 H   -0.751080    0.214889    1.687894
 H    0.677132   -0.760412    2.094718
 H   -0.748583   -0.798688    3.150293
 H   -2.952671   -2.090383   -0.985831
 H   -3.575963    0.361071   -2.321699
 H   -4.935171   -1.605506   -2.438974
 H   -5.847828   -0.271861   -1.757793
 H   -6.347655   -2.504084   -0.834051
 H   -3.932333   -2.690527    0.583604
 H   -5.290292   -0.557810    1.256130
 H   -5.970599   -2.122211    1.660522
 H   -7.661685   -0.328768    1.849249
 H   -8.126770   -1.603089    0.742248
 H   -8.013044   -0.194555   -1.064537
 H   -4.715645    2.137513   -1.455311
 H   -4.036355    2.677460    1.358775
 H   -3.756488    5.094360    0.743843
 H   -2.625933    4.050187   -0.144633
 H   -4.071158    4.695782   -0.952843
 H   -6.374145    3.916534   -0.179023
 H   -5.998207    4.092206    1.536121
 H   -6.246416    1.474703    1.636093
 H   -7.707448    2.441874    1.523532
