60 
4g0k_ligand_dft.xyz
 C   -5.599891   -0.118016    0.162813
 C   -5.545350   -2.517854   -0.725216
 C   -0.189390    2.380373    1.238408
 C    0.440537    3.868683   -0.735457
 C    1.821807   -3.380119   -1.108785
 O    4.530714   -3.633444   -0.924281
 C    4.144101   -2.533758   -0.591772
 C    5.066234   -1.479279   -0.112314
 C    4.570684   -0.214141    0.236467
 C    3.137831    0.085340    0.103162
 C    2.206349   -0.999097   -0.317912
 S    0.474279   -0.591399   -0.483539
 C    0.018676   -0.196879    1.254313
 C   -0.901225    1.028932    1.382745
 N   -2.045643    0.994940    0.477593
 C   -3.070142    0.143399    0.656948
 C   -4.196450    0.242051   -0.352349
 C   -5.917746   -1.593534    0.436115
 O   -5.307389   -3.762167   -0.289899
 O   -5.521256   -2.160829   -1.868499
 N   -5.283206   -2.085670    1.706434
 O   -3.048555   -0.691360    1.575884
 N    0.438694    2.511556   -0.151989
 C   -0.933389    4.121861   -1.333921
 O   -1.753937    3.239616   -1.479931
 O   -1.074718    5.375675   -1.700213
 O   -1.089186    3.411638    1.430009
 C    2.657735   -2.232338   -0.650469
 O    2.721109    1.224443    0.352761
 C    5.446072    0.773991    0.691074
 C    6.804385    0.496521    0.800361
 C    7.292651   -0.761061    0.451339
 C    6.425329   -1.750594   -0.007073
 H   -5.843563    0.464377    1.058883
 H   -6.309523    0.196092   -0.606591
 H    0.654472    2.418447    1.933455
 H    1.193285    3.901591   -1.528264
 H    0.697144    4.618750    0.011804
 H    1.980426   -3.538347   -2.182101
 H    0.759615   -3.214488   -0.932752
 H    2.152901   -4.297921   -0.617042
 H    0.927956   -0.034897    1.837772
 H   -0.502233   -1.058023    1.673787
 H   -1.283305    1.024172    2.410575
 H   -2.154259    1.744818   -0.202074
 H   -4.240205    1.259551   -0.752879
 H   -3.936206   -0.397995   -1.203816
 H   -7.000112   -1.699148    0.567447
 H   -5.145552   -4.345241   -1.052731
 H   -5.801995   -1.770238    2.529591
 H   -4.302149   -1.670191    1.758093
 H   -5.242891   -3.110398    1.719426
 H    1.397949    2.077046   -0.079246
 H   -0.056351    1.895421   -0.808743
 H   -1.941511    5.503123   -2.124783
 H   -0.773755    4.027450    2.103069
 H    5.055919    1.750559    0.954447
 H    7.485494    1.262471    1.155507
 H    8.353416   -0.972197    0.536452
 H    6.790548   -2.733651   -0.284419
