36 
4g0p_ligand_xtb.xyz
 N    0.740459    1.324414    0.425486
 C    1.401709    1.499674   -0.732562
 N    2.755358    1.186164   -0.702627
 C    3.413861    0.409941    0.224473
 C    2.531510   -0.011706    1.372505
 C    1.485161    1.057696    1.642042
 O    0.896060    1.905205   -1.767915
 O    4.570946    0.112007    0.082323
 C   -0.678949    1.679131    0.502913
 C   -1.482334    1.103658   -0.694944
 O   -1.842260    2.069585   -1.630140
 C   -2.724574    0.491575   -0.029934
 C   -2.211908    0.173598    1.380109
 O   -3.780834    1.404518    0.046614
 O   -1.257042    1.185414    1.672422
 C   -1.595256   -1.226979    1.512393
 O   -0.379330   -1.309736    0.788383
 P   -0.300171   -2.209414   -0.520982
 O   -1.531297   -2.361444   -1.295976
 O    0.307481   -3.562594    0.052849
 O    0.935344   -1.564784   -1.288776
 H    3.261997    1.411073   -1.551695
 H    2.041031   -0.944886    1.081892
 H    3.143430   -0.200662    2.253458
 H    1.965526    1.983467    1.987960
 H    0.771013    0.729221    2.396208
 H   -0.767545    2.779252    0.513740
 H   -0.906651    0.297079   -1.162693
 H   -1.016491    2.352169   -2.059352
 H   -3.040670   -0.416240   -0.560130
 H   -3.021749    0.279103    2.107747
 H   -3.690054    2.004489   -0.708164
 H   -1.349305   -1.419003    2.560323
 H   -2.307960   -1.973135    1.154545
 H    0.107035   -4.299342   -0.522484
 H    0.654368   -1.100313   -2.076884
