36 
4g0p_ligand_dft.xyz
 N    1.319954    0.652830    0.472558
 C    2.397776    0.968717   -0.283212
 N    3.430579    0.032722   -0.305404
 C    3.370337   -1.290990    0.113289
 C    2.036925   -1.665684    0.712793
 C    1.369316   -0.479396    1.393118
 O    2.506563    2.012146   -0.926489
 O    4.305161   -2.043081   -0.042926
 C    0.317404    1.722700    0.622119
 C   -0.413302    2.030676   -0.707103
 O    0.055499    3.179851   -1.355643
 C   -1.854592    2.275889   -0.243529
 C   -1.962964    1.395560    1.001750
 O   -2.012685    3.615311    0.145769
 O   -0.648590    1.326901    1.554394
 C   -2.499772   -0.003098    0.767878
 O   -1.673198   -0.642656   -0.217260
 P   -1.806436   -2.209703   -0.458324
 O   -3.124603   -2.750591   -0.822973
 O   -1.172217   -2.787811    0.902069
 O   -0.638585   -2.440831   -1.532285
 H    4.244053    0.310167   -0.839514
 H    1.401515   -2.033749   -0.101678
 H    2.190012   -2.486820    1.414995
 H    1.911118   -0.201491    2.308051
 H    0.349043   -0.732049    1.670759
 H    0.821261    2.627461    0.985688
 H   -0.363712    1.145213   -1.351056
 H    1.024229    3.075306   -1.398597
 H   -2.587670    1.992665   -1.011812
 H   -2.609535    1.887832    1.735059
 H   -1.379757    4.115830   -0.395416
 H   -2.456543   -0.570377    1.703129
 H   -3.532969    0.030961    0.407611
 H   -1.504499   -3.677233    1.085463
 H   -1.009266   -2.617180   -2.407769
