51 
4g2l_ligand_dft.xyz
 C   -5.955652   -0.839214   -1.177873
 C   -5.953046    0.543720   -1.308613
 C   -4.838841   -1.409854   -0.581672
 C    4.173830   -1.793054   -1.067830
 C    2.884779   -1.937685   -0.509161
 C    2.506286   -0.639531   -0.174617
 C   -3.916887    0.649594   -0.330187
 C    1.981299   -3.031891   -0.263415
 C    0.508100   -1.239178    0.621066
 C    2.115788    3.152382    0.818899
 C    2.209651    3.614489   -0.640159
 C    3.309448    2.198070    0.982483
 C    2.598735    2.335256   -1.386687
 C   -2.302843    1.167765    1.596965
 C   -1.370220    0.978705   -0.318315
 C   -2.753414    1.479945    0.152490
 C    3.594563    1.630009   -0.437076
 C   -0.729224   -1.223431    2.807296
 C   -0.799760   -0.910905    1.314159
 N   -4.933459    1.298905   -0.885502
 N   -3.810933   -0.671548   -0.153193
 N    4.540899   -0.524556   -1.071866
 N    1.322949   -0.254331    0.403130
 N    3.518843    0.175976   -0.521845
 N    0.763018   -2.536516    0.324158
 N   -1.014345    0.551392    1.092417
 O    2.097951   -4.213930   -0.476655
 H   -6.785678   -1.443181   -1.523802
 H   -6.786537    1.071078   -1.764313
 H   -4.758383   -2.484331   -0.441092
 H    4.833490   -2.555031   -1.456348
 H    2.127560    3.975094    1.538218
 H    1.172906    2.603202    0.963343
 H    3.000292    4.367354   -0.738642
 H    1.286561    4.064667   -1.017847
 H    3.128439    1.404235    1.710906
 H    4.186494    2.752636    1.327605
 H    3.029372    2.511194   -2.374961
 H    1.716238    1.697652   -1.519957
 H   -2.910363    0.439111    2.131972
 H   -2.090371    2.031892    2.225757
 H   -0.674380    1.744542   -0.659697
 H   -1.369345    0.129639   -1.001536
 H   -2.948736    2.532472   -0.045918
 H    4.621262    1.846394   -0.733284
 H    0.084556   -0.668318    3.284686
 H   -1.670121   -0.997216    3.314815
 H   -0.531035   -2.289045    2.946840
 H   -1.651712   -1.410234    0.840344
 H    0.073184   -3.255448    0.510073
 H   -0.151652    1.016675    1.398467
