35 
4g2r_ligand_xtb.xyz
 O    6.748751    1.056494   -0.742544
 C    5.935446    0.417931    0.107431
 O    5.604902    0.866965    1.166627
 C    5.533091   -0.948168   -0.443825
 C    6.663460   -1.936129   -0.149652
 O    4.376729   -1.439549    0.191328
 C    3.213086   -0.742295    0.092159
 C    2.147963   -1.237906    0.845656
 C    0.912849   -0.627744    0.817174
 C    3.015483    0.385427   -0.697780
 C    1.775932    0.998582   -0.727780
 C    0.723842    0.494284    0.020945
 O   -0.460772    1.219896   -0.014201
 C   -1.647207    0.626782   -0.010862
 N   -1.760727   -0.686270   -0.109394
 C   -2.957558   -1.242467   -0.134331
 C   -4.126234   -0.503899   -0.052189
 C   -5.474650   -1.157290   -0.101480
 F   -5.430527   -2.464945    0.184428
 F   -6.042325   -1.055668   -1.319192
 F   -6.344084   -0.603538    0.758869
 C   -4.037266    0.887466    0.048971
 C   -2.787851    1.463357    0.069189
Cl   -2.587318    3.163441    0.189434
 H    7.037348    1.903779   -0.365676
 H    5.386544   -0.863905   -1.530863
 H    6.821775   -1.996539    0.923968
 H    7.577663   -1.611751   -0.637908
 H    6.383594   -2.919216   -0.517027
 H    2.318156   -2.107790    1.458852
 H    0.102720   -1.016444    1.411182
 H    3.813308    0.802602   -1.292007
 H    1.617337    1.878177   -1.331483
 H   -2.969538   -2.319759   -0.217883
 H   -4.926174    1.495561    0.115856
