51 
4g31_ligand_xtb.xyz
 C    6.281750   -0.579801   -0.445283
 F   -6.336071   -2.331849   -0.979247
 N    7.425986   -0.166962   -0.996867
 O   -1.432514    2.471301    2.115436
 C    7.085857   -2.770918    0.380842
 F   -7.686337   -1.074155    0.121851
 N    6.081292   -1.766331    0.178034
 C    4.778133   -1.819180    0.587786
 F   -7.577674   -0.917392   -2.020521
 N   -1.280153    0.325718    1.407071
 C    4.113484   -0.668173    0.249064
 N    4.041112    2.188598   -1.281830
 C    2.721781   -0.359340    0.561580
 N    6.257651    1.782760   -1.673095
 C    2.376814    0.911515    1.045288
 C    1.074787    1.250247    1.359208
 C    0.098984    0.282750    1.185281
 C   -1.788071   -0.927779    1.083845
 C   -0.800425   -1.748305    0.668111
 C    0.425255   -1.006803    0.717908
 C    1.738594   -1.328764    0.406866
 C   -1.976767    1.425001    1.851937
 C   -3.484372    1.245903    1.970695
 C   -4.129675    1.037118    0.628101
 C   -3.712239    1.779212   -0.472469
 C   -4.300360    1.599867   -1.711059
 C   -5.321163    0.679004   -1.874447
 C   -5.747605   -0.053179   -0.776616
 C   -5.155773    0.116756    0.467732
 C   -6.835251   -1.079386   -0.918160
 C    5.070168    0.149673   -0.432390
 C    5.110184    1.371348   -1.132892
 C    7.331655    1.015747   -1.564718
 H    6.776418   -3.719466   -0.062864
 H    7.998425   -2.423774   -0.100388
 H    7.272045   -2.922281    1.446643
 H    4.412035   -2.672073    1.126644
 H    4.153580    2.965312   -1.910091
 H    3.118228    1.842960   -1.086356
 H    3.161974    1.635965    1.202311
 H    0.830550    2.229688    1.734717
 H   -2.833386   -1.142351    1.171361
 H   -0.908637   -2.768891    0.358536
 H    1.991432   -2.311306    0.038664
 H   -3.869613    2.167297    2.416520
 H   -3.714015    0.420030    2.645955
 H   -2.921153    2.504677   -0.352126
 H   -3.963778    2.180190   -2.555909
 H   -5.785850    0.533166   -2.836818
 H   -5.507583   -0.465349    1.307480
 H    8.234503    1.404805   -2.016975
