45 
4g34_ligand_dft.xyz
 N    2.548918    2.290689    0.173495
 C    3.818927    1.799301    0.003940
 N    4.788013    2.709287   -0.038530
 C    6.059376    2.302203   -0.181975
 C    6.453667    0.987893   -0.315319
 C    5.428860    0.034901   -0.272417
 S    5.599663   -1.686319   -0.451719
 C    3.885773   -1.905029   -0.274486
 C    3.201073   -0.748811   -0.080544
 C    1.730847   -0.743920    0.125403
 C    1.180387   -0.237777    1.321630
 C   -0.183578   -0.249959    1.568170
 C   -1.009021   -0.793183    0.582875
 N   -2.403134   -0.950640    0.536017
 C   -2.724323   -1.552976   -0.688503
 C   -1.601459   -1.781652   -1.403499
 C   -0.486715   -1.310198   -0.617620
 C    0.891057   -1.281859   -0.845062
 C   -3.297198   -0.566096    1.534815
 O   -2.915764   -0.004407    2.540120
 C   -4.770162   -0.858338    1.292906
 C   -5.389879    0.068409    0.263348
 C   -6.215629   -0.433396   -0.742571
 C   -6.794765    0.420924   -1.677168
 C   -6.550325    1.788910   -1.615448
 C   -5.728093    2.297598   -0.612805
 C   -5.152704    1.443735    0.321564
 C    4.087494    0.402474   -0.088181
 H    2.472086    3.284445    0.013250
 H    1.764510    1.730126   -0.120125
 H    6.800983    3.097627   -0.202375
 H    7.493861    0.716159   -0.450602
 H    3.465809   -2.902027   -0.287593
 H    1.849132    0.180782    2.067021
 H   -0.594419    0.142120    2.487681
 H   -3.752823   -1.739484   -0.953336
 H   -1.556296   -2.228423   -2.386528
 H    1.307876   -1.664746   -1.772064
 H   -5.251114   -0.719640    2.264957
 H   -4.912224   -1.904141    1.001133
 H   -6.412411   -1.502228   -0.794102
 H   -7.435827    0.015071   -2.454017
 H   -6.998226    2.456769   -2.344878
 H   -5.533649    3.364445   -0.557276
 H   -4.513994    1.845228    1.104195
