41 
4g55_ligand_xtb.xyz
 C   -4.830478   -0.745955   -0.117345
 C   -5.447868    0.359827    0.500252
 C   -6.690611    0.766103    0.097473
 C   -7.366721    0.090952   -0.931317
 C   -6.792197   -0.986656   -1.545149
 C   -5.511991   -1.436059   -1.159110
 C   -4.889727   -2.542989   -1.775222
 C   -3.643088   -2.956616   -1.393307
 C   -2.962037   -2.275397   -0.372709
 C   -3.550293   -1.209351    0.244157
 S   -2.615247   -0.371215    1.511186
 O   -3.366049   -0.256360    2.720389
 O   -1.297209   -0.961353    1.587112
 N   -2.459334    1.152297    0.850243
 C   -1.325641    1.548321    0.446281
 S    0.196134    0.666511    0.510843
 N   -1.146206    2.766819   -0.123911
 C    0.122819    3.117540   -0.545704
 O    0.384864    4.173834   -1.064792
 C    1.047184    2.009118   -0.261501
 C    2.350678    2.134224   -0.590210
 C    3.447199    1.216934   -0.424750
 C    3.317397   -0.051176    0.154382
 C    4.409227   -0.884401    0.283482
 C    5.650306   -0.460157   -0.166839
Br    7.153166   -1.608812    0.007689
 C    5.811675    0.790727   -0.743927
 C    4.716045    1.617616   -0.868567
 H   -4.921636    0.863351    1.293875
 H   -7.163449    1.612454    0.572597
 H   -8.347023    0.429427   -1.232482
 H   -7.308898   -1.511644   -2.335577
 H   -5.420365   -3.060249   -2.561700
 H   -3.173941   -3.803727   -1.869580
 H   -1.976329   -2.579858   -0.057619
 H   -1.929573    3.398456   -0.220282
 H    2.602715    3.083247   -1.053763
 H    2.356404   -0.386823    0.507971
 H    4.300591   -1.859799    0.732002
 H    6.783927    1.107705   -1.088857
 H    4.837243    2.592742   -1.316390
