20 
4g5y_ligand_xtb.xyz
 C   -1.587042    1.092257    1.591201
 N   -1.750834    0.814724    0.183739
 C   -3.110736    0.934516   -0.294948
 S   -1.017485   -0.646531   -0.238413
 O   -1.237335   -1.655918    0.759381
 O   -1.369340   -0.938905   -1.594928
 C    0.692553   -0.162379   -0.181151
 C    1.219581    0.885186   -0.970229
 C    2.548790    1.057715   -0.761168
 S    3.170205   -0.057184    0.394487
 C    1.622567   -0.763566    0.603731
 H   -2.143510    0.382811    2.213771
 H   -0.528668    1.013640    1.832850
 H   -1.928836    2.105812    1.797759
 H   -3.129138    0.555670   -1.313734
 H   -3.815422    0.359099    0.315958
 H   -3.400266    1.985695   -0.287752
 H    0.618395    1.459375   -1.648868
 H    3.209245    1.769737   -1.214213
 H    1.469636   -1.579262    1.280633
