52 
4g68_ligand_dft.xyz
 C   -6.204834   -0.562498    0.834213
 C   -5.664427   -1.080651   -0.488709
 C   -4.177902   -0.717346   -0.539795
 C   -4.011766    0.806400   -0.485584
 C   -5.246710    1.477437    0.118167
 O   -6.808321   -1.274276    1.599560
 O   -5.832898   -2.465236   -0.579069
 O   -3.579949   -1.202451   -1.717589
 O   -2.894202    1.221726    0.274737
 O   -5.898533    0.701580    1.136482
 C   -1.664988    0.835193   -0.227595
 C   -0.617484    1.871831    0.152120
 C    0.764575    1.399689   -0.298581
 C    1.051857   -0.009292    0.216711
 C   -0.116249   -0.927914   -0.145535
 O   -0.932785    3.093181   -0.466804
 O    1.673421    2.371858    0.163184
 O    2.212118   -0.584538   -0.381478
 O   -1.321785   -0.408804    0.359344
 C    3.441613   -0.261279    0.159405
 C    4.398424   -1.412652   -0.138395
 C    5.781910   -1.071528    0.390407
 C    6.249358    0.259185   -0.182774
 C    5.191835    1.325717    0.086995
 O    3.985014   -2.601370    0.496451
 O    6.740631   -2.044966    0.042406
 O    7.449679    0.683747    0.413268
 O    3.933983    0.926839   -0.448182
 H   -6.185367   -0.587799   -1.325119
 H   -3.694455   -1.144230    0.348790
 H   -3.903682    1.166915   -1.518581
 H   -4.951571    2.405323    0.605484
 H   -5.977768    1.703881   -0.665152
 H   -6.311565   -2.728273    0.225822
 H   -3.750593   -2.154633   -1.733533
 H   -1.708635    0.722633   -1.324580
 H   -0.622801    1.963458    1.249255
 H    0.766526    1.356167   -1.400699
 H    1.175646    0.023581    1.308094
 H    0.020266   -1.913651    0.304681
 H   -0.163542   -1.048771   -1.239531
 H   -0.145803    3.645979   -0.358455
 H    2.548718    2.139158   -0.193584
 H    3.359055   -0.103835    1.249265
 H    4.445787   -1.535724   -1.230454
 H    5.717109   -0.969317    1.486865
 H    6.365299    0.140787   -1.271427
 H    5.113565    1.503011    1.169929
 H    5.455702    2.264358   -0.401478
 H    3.114809   -2.822575    0.140337
 H    6.411809   -2.893577    0.367213
 H    8.059240   -0.064940    0.362087
