24 
4g8m_ligand_xtb.xyz
 C   -2.224431   -0.494940   -0.261177
 O   -3.366838   -0.428511   -0.881581
 O   -1.873279   -1.482967    0.373006
 C   -1.439887    0.781569   -0.350394
 C    2.398449   -0.183005   -0.458484
 O    2.857166    0.454687   -1.351495
 O    3.090133   -0.719623    0.546333
 C    0.895383   -0.495924   -0.321393
 N    0.601498   -1.183613    0.956395
 C    0.109536    0.807873   -0.471366
 C    0.172458    1.771018    0.730275
 C   -1.321083    1.540065    0.998547
 H   -3.916231   -1.226954   -0.780492
 H   -1.903348    1.397335   -1.120508
 H    4.041736   -0.541857    0.457124
 H    0.632340   -1.171753   -1.143798
 H   -0.462620   -1.427756    0.907505
 H    1.172009   -2.027104    1.062648
 H    0.794829   -0.564613    1.749493
 H    0.441016    1.253827   -1.410442
 H    0.854386    1.511448    1.538103
 H    0.394389    2.790838    0.428785
 H   -1.933330    2.433437    1.068437
 H   -1.525662    0.909804    1.862218
