61 
4g8o_ligand_xtb.xyz
 F    4.611525    3.715724   -2.255392
 C    4.025307    2.665606   -1.661336
 F    3.138287    2.179847   -2.534210
 F    4.996116    1.719898   -1.566181
 C    3.434693    3.003280   -0.323776
 C    3.999517    4.028033    0.424070
 C    3.451512    4.346388    1.654079
 C    2.357817    3.649320    2.131311
 C    2.343798    2.282195    0.140980
 C    1.806121    2.619453    1.377532
 O    0.668284    2.020208    1.858010
 C    0.522926    0.662389    1.739381
 O    1.433201   -0.098571    1.543940
 N   -0.766674    0.327134    1.964471
 C   -1.235074   -0.972964    1.552143
 C   -1.652328   -0.972758    0.064561
 O   -3.070773   -0.979225   -0.092952
 C   -3.726711    0.142167    0.238032
 C   -5.175866    0.051499   -0.017965
 C   -5.763670   -1.111470   -0.504349
 C   -7.130725   -1.151570   -0.729275
 O   -7.712734   -2.278311   -1.198536
 C   -7.910698   -0.018288   -0.469016
 O   -9.254014   -0.085237   -0.703655
 C   -7.313591    1.146145    0.018702
 O   -8.144939    2.211114    0.247427
 C   -5.951708    1.179368    0.245564
 O   -3.180697    1.119831    0.700451
 C   -1.141611   -2.210720   -0.687659
 O    0.201732   -2.522541   -0.384651
 C    1.155425   -1.644878   -0.768620
 O    0.898646   -0.618550   -1.352846
 C    2.505315   -2.111193   -0.413655
 C    3.599433   -1.364713   -0.846161
 C    4.879882   -1.767940   -0.519171
 O    6.013981   -1.104367   -0.901371
 C    5.071899   -2.924723    0.239830
 O    6.328966   -3.349285    0.573688
 C    3.973720   -3.673596    0.672180
 O    4.168847   -4.795999    1.407358
 C    2.692709   -3.263480    0.343031
 H    4.847904    4.573049    0.040739
 H    3.879588    5.142909    2.242089
 H    1.913053    3.891912    3.083316
 H    1.912262    1.484456   -0.446380
 H   -1.452704    1.072440    1.903933
 H   -2.086764   -1.263291    2.171124
 H   -0.415190   -1.678703    1.704314
 H   -1.247770   -0.068757   -0.409004
 H   -5.171395   -1.986126   -0.710542
 H   -8.661683   -2.112129   -1.292978
 H   -9.634300    0.774356   -0.478936
 H   -7.627746    2.955198    0.574400
 H   -5.470953    2.069813    0.622232
 H   -1.721439   -3.084687   -0.383795
 H   -1.257306   -2.044578   -1.764382
 H    3.432116   -0.481014   -1.441225
 H    5.774816   -0.291857   -1.360925
 H    6.951948   -2.711549    0.199827
 H    5.121989   -4.903424    1.535519
 H    1.854361   -3.845017    0.684071
