43 
4g8y_ligand_dft.xyz
 C    4.917292   -0.342827    0.951887
 C    4.674849    0.901914    0.527798
 C    3.455468    1.107916   -0.332645
 C    2.032829    0.024144   -2.054672
 C    0.664125    0.144621   -1.457469
 C   -0.131321   -0.832006   -0.901895
 N    3.078464   -0.108958   -1.048986
 N    4.112456   -1.409173    0.567269
 O    2.646848   -2.354565   -0.890276
 C    3.226052   -1.352661   -0.491440
 O    5.909584   -0.779787    1.764788
 C    5.483181    2.115205    0.881055
 N    0.024651    1.337045   -1.329166
 N   -1.111833    1.139198   -0.733485
 N   -1.219308   -0.169656   -0.461723
 C   -2.427754   -0.719505    0.159153
 O   -3.480419   -0.764267   -0.754495
 C   -4.392155    0.325129   -0.549134
 C   -5.792429   -0.249451   -0.454236
 O   -5.888519   -1.003564    0.745119
 C   -3.926758    1.091420    0.717500
 O   -3.396331    2.354155    0.435479
 C   -2.934423    0.095457    1.365578
 O   -3.549603   -0.765692    2.286024
 H    2.600328    1.485469    0.255625
 H    3.668699    1.875195   -1.087988
 H    2.086048   -0.845689   -2.710219
 H    2.242158    0.921632   -2.643407
 H    0.011736   -1.894689   -0.785912
 H    4.331249   -2.331482    0.911144
 H    6.361048   -0.018011    2.146293
 H    4.904235    2.825929    1.485668
 H    6.395187    1.881807    1.442888
 H    5.804461    2.647428   -0.023186
 H   -2.170968   -1.737020    0.459326
 H   -4.344668    1.001989   -1.409718
 H   -5.980769   -0.885387   -1.328691
 H   -6.514939    0.578673   -0.456259
 H   -6.754243   -1.420883    0.796212
 H   -4.756336    1.252281    1.409826
 H   -2.569887    2.219960   -0.066472
 H   -2.129742    0.619952    1.883990
 H   -4.400822   -1.042717    1.901520
