40 
4g90_ligand_dft.xyz
 C    4.891590   -0.290498    0.990164
 C    4.588973    0.922502    0.536347
 C    3.471986    1.164596   -0.419697
 C    2.047978    0.005022   -2.075717
 C    0.678985    0.126425   -1.481077
 C   -0.120635   -0.848957   -0.929395
 N    3.094099   -0.093625   -1.063185
 N    4.157401   -1.386923    0.559827
 O    2.661861   -2.333084   -0.861481
 C    3.251076   -1.331180   -0.481069
 O    5.874247   -0.613196    1.856527
 F    5.308908    2.000135    0.939478
 N    0.044824    1.321282   -1.348029
 N   -1.092335    1.125872   -0.753049
 N   -1.205666   -0.183508   -0.487352
 C   -2.414878   -0.729815    0.136908
 O   -3.474100   -0.753490   -0.769080
 C   -4.380946    0.335178   -0.537199
 C   -5.781310   -0.237121   -0.430152
 O   -5.862672   -1.007724    0.759680
 C   -3.895334    1.084509    0.731294
 O   -3.358541    2.346049    0.455430
 C   -2.902259    0.075726    1.357847
 O   -3.510472   -0.790590    2.277580
 H    2.598414    1.628778    0.067338
 H    3.808283    1.861470   -1.198190
 H    2.252107    0.890389   -2.684161
 H    2.111899   -0.879281   -2.710110
 H    0.017142   -1.912587   -0.816624
 H    4.330131   -2.293219    0.965449
 H    6.295969    0.207724    2.144767
 H   -2.164250   -1.753003    0.422945
 H   -4.343645    1.021927   -1.390291
 H   -5.983976   -0.860159   -1.310672
 H   -6.501229    0.593015   -0.410578
 H   -6.731063   -1.418165    0.820590
 H   -4.715359    1.244925    1.435016
 H   -2.540571    2.211883   -0.059729
 H   -2.087982    0.590476    1.871085
 H   -4.368237   -1.059125    1.901601
