55 
4g93_ligand_xtb.xyz
 C    1.243985   -0.191645   -1.028491
 N    0.272994    0.542819   -0.447215
 O    1.017165   -1.174863   -1.709450
 C   -1.122617    0.219500   -0.595421
 N   -3.155263    1.524379   -1.130422
 O   -1.277529    2.588305   -0.491937
 C   -1.874683    1.552725   -0.737273
 C   -3.915461    2.762080   -1.145655
 C   -5.046469    2.686945   -0.122397
 C   -5.939284    1.484422   -0.417568
 C   -5.094395    0.213472   -0.445761
 C   -3.959259    0.369610   -1.462045
 C   -1.594939   -0.602071    0.624103
 C   -0.653253   -1.750564    0.837985
 C   -0.801452   -2.847065   -0.026627
 C    0.094041   -3.902524    0.052757
 C    1.134281   -3.864748    0.966548
 C    1.288112   -2.783848    1.811013
 C    0.393329   -1.729578    1.739496
 C    2.637222    0.271096   -0.746317
 C    3.621665   -0.017745   -1.688831
 C    4.932436    0.350825   -1.465961
 C    5.256547    0.999511   -0.280202
 C    4.288988    1.277785    0.678159
 C    2.978139    0.913989    0.441831
 N    6.626426    1.381345   -0.033405
 O    6.881513    1.904558    1.029764
 C   -1.930124   -3.754227   -1.917008
 O    7.438541    1.154673   -0.904206
 O   -1.846171   -2.775954   -0.905345
Br   -1.756236    0.563212    2.187582
 H    0.439275    1.479312   -0.093077
 H   -1.229419   -0.409969   -1.487263
 H   -4.323395    2.910674   -2.151545
 H   -3.229943    3.577214   -0.912212
 H   -5.625355    3.610094   -0.155777
 H   -4.615681    2.589626    0.875926
 H   -6.427343    1.619091   -1.385955
 H   -6.717037    1.398626    0.342219
 H   -5.704985   -0.649665   -0.714318
 H   -4.678444    0.041634    0.549002
 H   -3.352114   -0.532670   -1.512501
 H   -4.393109    0.540510   -2.455631
 H   -2.602395   -0.983764    0.458161
 H    0.000458   -4.752238   -0.603369
 H    1.829386   -4.689496    1.008111
 H    2.102052   -2.750823    2.518216
 H    0.513869   -0.883351    2.399588
 H    3.336351   -0.537819   -2.590234
 H    5.709841    0.142556   -2.184891
 H    4.579698    1.773156    1.592018
 H    2.229329    1.112714    1.192703
 H   -2.766009   -3.453906   -2.547926
 H   -2.131651   -4.746354   -1.502190
 H   -1.013221   -3.778805   -2.511747
