54 
4gd6_ligand_dft.xyz
 C    3.203391   -1.957787    1.778906
 C    3.246767   -1.370569    3.045178
 C    3.791213   -0.098649    3.207408
 C    4.302678    0.576409    2.100040
 C    4.268112   -0.017864    0.842915
 C    3.710541   -1.288002    0.665198
 C    3.658373   -1.923761   -0.702209
 C    2.848292   -1.192223   -1.757349
 O    2.835851   -1.480045   -2.925578
 O    2.118976   -0.188138   -1.236622
 C    1.244100    0.505095   -2.124019
 C    0.328681    1.363175   -1.258392
 S    1.379323    2.518119   -0.276974
 O    0.485146    3.307358    0.563945
 O    2.302227    3.154253   -1.213240
 C   -0.512448    2.283010   -2.151206
 C   -0.593842    0.522823   -0.325223
 C    0.157146   -0.445444    0.601798
 O    0.155479   -1.644570    0.497636
 O    0.792615    0.220491    1.576750
 N   -1.579684   -0.177837   -1.139517
 C   -2.690197   -0.703136   -0.480890
 N   -3.622749    0.064234    0.152068
 C   -3.726209    1.443580    0.222965
 C   -4.743407    2.005072    0.914627
 C   -5.726389    1.186794    1.562051
 C   -5.662079   -0.166865    1.448938
 C   -4.609097   -0.780229    0.715411
 C   -4.285720   -2.077752    0.386053
 C   -3.085925   -2.035096   -0.369683
 C   -2.375104   -3.139300   -0.990233
 O   -1.447514   -3.003571   -1.773224
 H    2.750053   -2.936772    1.655192
 H    2.852814   -1.909025    3.902217
 H    3.819872    0.363258    4.189199
 H    4.733645    1.566157    2.217050
 H    4.665098    0.518434   -0.015593
 H    4.662841   -2.049196   -1.121025
 H    3.225957   -2.928489   -0.641991
 H    1.830063    1.129656   -2.802720
 H    0.669218   -0.209946   -2.720815
 H    2.100175    1.693541    0.515578
 H   -1.157826    1.677598   -2.789567
 H    0.136257    2.908852   -2.769654
 H   -1.137894    2.938823   -1.539588
 H   -1.101776    1.237212    0.329546
 H    1.338165   -0.418793    2.074137
 H   -1.154669   -0.964386   -1.634819
 H   -2.985329    2.008017   -0.326675
 H   -4.813650    3.085606    0.957077
 H   -6.527232    1.656571    2.122229
 H   -6.405989   -0.811318    1.905287
 H   -4.850166   -2.959288    0.656030
 H   -2.737257   -4.153110   -0.728417
