24 
4ge1_ligand_xtb.xyz
 N   -3.453880   -0.647353    0.743275
 C   -2.774798   -0.872176   -0.523027
 C   -1.901808    0.335489   -0.860238
 C   -0.872369    0.619954    0.243356
 C   -0.336301    2.026808    0.179377
 N    0.928868    2.124602    0.069142
 C    1.444676    0.824589    0.044149
 C    0.419701   -0.134881    0.146367
 C    2.772940    0.457268   -0.061919
 C    3.069682   -0.896817   -0.066564
 C    2.065976   -1.847419    0.040649
 C    0.731611   -1.475885    0.152991
 H   -3.981493   -1.467610    1.018544
 H   -1.373150    0.445873    1.202751
 H   -4.104598    0.127514    0.660511
 H   -3.466069   -1.051959   -1.364309
 H   -2.150475   -1.760802   -0.409918
 H   -2.545181    1.212539   -0.971275
 H   -1.390324    0.167437   -1.809285
 H   -0.962926    2.902655    0.212156
 H    3.544965    1.206571   -0.135909
 H    4.097795   -1.217374   -0.150310
 H    2.325136   -2.896346    0.039926
 H   -0.034466   -2.230829    0.249356
