26 
4gfm_ligand_xtb.xyz
 C   -1.734416    0.044464   -0.123141
 C   -2.225915   -1.253748   -0.245116
 C   -3.566094   -1.535981   -0.037855
 C    4.203232    0.509220   -0.447918
 C   -0.294645    0.365586   -0.419952
 C    1.940877   -0.238939    0.463327
 C    2.625401   -0.966036    1.380052
 C    4.050586   -0.935289    1.356071
 C    2.671856    0.573502   -0.535975
 N    0.560571   -0.254303    0.459432
 N    4.780211   -0.273158    0.535481
 C   -2.626739    1.061221    0.215230
 O    4.881481    1.131961   -1.224908
 O    0.045701    1.083899   -1.323298
Cl   -2.040260    2.668985    0.395482
 C   -3.968902    0.787994    0.433710
Cl   -1.149720   -2.536064   -0.690062
 C   -4.430680   -0.509278    0.301778
 H   -3.923098   -2.547467   -0.144964
 H    2.121525   -1.568074    2.120413
 H    4.585706   -1.523741    2.094080
 H    2.379355    0.281528   -1.550433
 H    2.374138    1.624975   -0.461033
 H    0.135576   -0.842876    1.166152
 H   -4.638550    1.589315    0.700293
 H   -5.475297   -0.724279    0.463337
