26 
4gfo_ligand_dft.xyz
 C   -1.746692   -0.000752   -0.156008
 C   -2.449507    1.195379   -0.001594
 C   -3.807068    1.208273    0.294528
 C    4.242712   -0.005852   -0.590939
 C   -0.286650   -0.001961   -0.553698
 C    1.949860    0.004651    0.548849
 C    2.618973    0.011575    1.721098
 C    4.065420    0.014677    1.707837
 C    2.716964   -0.002434   -0.734610
 N    0.561485    0.004786    0.535230
 N    4.847077    0.007824    0.681361
 C   -2.448963   -1.196335    0.005348
 O    4.919009   -0.019928   -1.593074
 O    0.064263   -0.008290   -1.710529
Cl   -1.605298   -2.714440   -0.156272
 C   -3.806489   -1.208051    0.301566
Cl   -1.606673    2.713006   -0.172653
 C   -4.478943    0.000387    0.441249
 H   -4.325244    2.153729    0.405540
 H    2.106001    0.016938    2.677987
 H    4.558553    0.024385    2.682095
 H    2.433837   -0.867943   -1.342585
 H    2.437578    0.859470   -1.349569
 H    0.112890    0.010172    1.441917
 H   -4.324252   -2.153064    0.418132
 H   -5.539662    0.000811    0.669135
