95 
4gid_ligand_dft.xyz
 C    1.550037    0.285693    3.963152
 C    0.351038    1.046814    3.392379
 C    0.469022    2.549796    3.647727
 C    0.250334    0.738959    1.896019
 N   -0.882300    1.372081    1.228980
 C   -2.115590    0.864141    1.305823
 O   -2.404515   -0.169087    1.908036
 C   -3.214467    1.694281    0.626704
 C   -4.223491    2.195267    1.667181
 C   -3.584535    3.169504    2.644746
 O   -5.248879    2.794165    0.886410
 N   -3.985785    0.938284   -0.428090
 C   -4.425250   -0.477763   -0.135627
 C   -3.617422   -1.487436   -0.965774
 C   -3.915797   -2.919616   -0.500169
 C   -5.391362   -3.241386   -0.563161
 C   -6.018455   -3.422465   -1.798885
 C   -7.384999   -3.670706   -1.869547
 C   -8.142625   -3.741546   -0.702452
 C   -7.526520   -3.567411    0.532772
 C   -6.158048   -3.317331    0.600710
 N   -2.181447   -1.240421   -0.906530
 C   -1.579506   -0.338603   -1.714883
 O   -2.243960    0.383831   -2.472703
 C   -0.110238   -0.143045   -1.564244
 C    0.725956   -1.033948   -0.901190
 C    0.380273    1.097013   -1.972873
 C    1.679231    1.464800   -1.652448
 N    2.159772    2.790275   -1.941759
 C    2.459013    3.028483   -3.363321
 S    1.232747    4.005891   -1.208017
 O    0.770085    3.464859    0.070366
 O    0.255080    4.544414   -2.141699
 C    2.459684    5.248369   -0.865027
 C    2.517274    0.576314   -0.982894
 C    2.043576   -0.681292   -0.614692
 C    2.817854   -1.611925    0.281765
 O    2.219163   -2.308899    1.092685
 N    4.163560   -1.584713    0.163219
 C    5.026512   -2.432531    0.997304
 C    5.118649   -1.873398    2.419924
 C    6.380141   -2.559689    0.330074
 C    7.157365   -1.424672    0.078588
 C    8.399922   -1.538213   -0.535638
 C    8.886055   -2.791759   -0.898790
 C    8.122420   -3.927173   -0.646646
 C    6.874530   -3.809476   -0.040290
 H    2.484144    0.640440    3.508883
 H    1.471008   -0.789193    3.769304
 H    1.629257    0.434986    5.044265
 H   -0.562107    0.670199    3.870790
 H   -0.394316    3.098809    3.255690
 H    1.365181    2.956502    3.163551
 H    0.540853    2.757755    4.719922
 H    0.187543   -0.342048    1.742252
 H    1.145113    1.101960    1.384267
 H   -0.682371    2.224009    0.713783
 H   -2.798789    2.558648    0.099473
 H   -4.614897    1.325495    2.213090
 H   -2.809165    2.674454    3.237058
 H   -4.337828    3.550147    3.340946
 H   -3.144205    4.019837    2.114932
 H   -5.980019    3.058174    1.457617
 H   -3.447589    0.925074   -1.323685
 H   -4.818050    1.526830   -0.566244
 H   -5.482512   -0.556045   -0.391358
 H   -4.289565   -0.657739    0.929370
 H   -3.902407   -1.380844   -2.016924
 H   -3.342829   -3.603085   -1.136004
 H   -3.547644   -3.042312    0.526351
 H   -5.430901   -3.381729   -2.713772
 H   -7.858211   -3.816974   -2.835482
 H   -9.208314   -3.939876   -0.757453
 H   -8.108378   -3.633045    1.446960
 H   -5.679652   -3.191161    1.569360
 H   -1.672468   -1.631034   -0.124962
 H    0.380853   -2.001801   -0.550445
 H   -0.286102    1.791091   -2.475946
 H    3.176150    2.268694   -3.678691
 H    1.563984    2.975841   -3.992952
 H    2.924796    4.008244   -3.488921
 H    3.210242    4.822737   -0.199375
 H    2.907246    5.592517   -1.798014
 H    1.937036    6.076340   -0.381720
 H    3.508882    0.911100   -0.693688
 H    4.576459   -1.168483   -0.658694
 H    4.554820   -3.419864    1.046752
 H    5.570182   -0.876288    2.418705
 H    5.739368   -2.529492    3.036795
 H    4.122305   -1.812519    2.865121
 H    6.794706   -0.442612    0.376072
 H    8.993085   -0.648406   -0.723830
 H    9.857940   -2.883168   -1.373420
 H    8.496546   -4.907618   -0.924698
 H    6.280818   -4.699904    0.149832
