95 
4gid_ligand_xtb.xyz
 C    0.919397    1.891580    4.370708
 C    0.197597    2.366603    3.111960
 C    1.123341    3.230641    2.258967
 C   -0.290183    1.144820    2.327199
 N   -1.236514    1.481961    1.279257
 C   -2.441956    0.917292    1.238855
 O   -2.829050    0.074033    2.030012
 C   -3.368415    1.440021    0.122700
 C   -4.559167    2.175057    0.774668
 C   -4.099423    3.483334    1.402136
 O   -5.502976    2.369234   -0.265190
 N   -3.927067    0.377758   -0.769352
 C   -4.181667   -0.967128   -0.184719
 C   -3.097509   -1.969588   -0.617656
 C   -3.242904   -3.274481    0.171502
 C   -4.588946   -3.910312   -0.063506
 C   -4.850220   -4.570224   -1.258032
 C   -6.087712   -5.144959   -1.486751
 C   -7.078032   -5.067045   -0.521839
 C   -6.824715   -4.414040    0.672168
 C   -5.587201   -3.836551    0.898693
 N   -1.755311   -1.434858   -0.427516
 C   -1.208986   -0.590684   -1.314350
 O   -1.880498   -0.136424   -2.249027
 C    0.159242   -0.100001   -1.054030
 C    1.123294   -0.776918   -0.321069
 C    0.417771    1.188613   -1.512778
 C    1.591377    1.841313   -1.167127
 N    1.727177    3.199922   -1.454542
 C    2.873089    3.701009   -2.184122
 S    0.337716    4.139144   -1.558340
 O   -0.613119    3.596236   -0.614488
 O   -0.099309    4.284227   -2.908572
 C    0.916276    5.722182   -0.925502
 C    2.576914    1.146012   -0.466493
 C    2.346196   -0.163634   -0.065703
 C    3.317315   -0.914521    0.802660
 O    2.913246   -1.578317    1.737265
 N    4.612509   -0.758596    0.481665
 C    5.684045   -1.453656    1.180417
 C    6.720569   -0.447948    1.680792
 C    6.310864   -2.496614    0.283020
 C    6.876274   -2.140009   -0.935536
 C    7.451090   -3.098224   -1.750976
 C    7.469015   -4.425243   -1.356742
 C    6.906817   -4.789087   -0.145411
 C    6.328416   -3.830042    0.667805
 H    1.749807    1.241285    4.105969
 H    0.243973    1.338064    5.017334
 H    1.307806    2.739537    4.928234
 H   -0.674047    2.961761    3.404430
 H    0.624133    3.554152    1.349395
 H    2.012072    2.664568    1.987597
 H    1.432312    4.110140    2.818800
 H   -0.804175    0.454335    2.999982
 H    0.568322    0.628893    1.887167
 H   -0.979585    2.219043    0.630135
 H   -2.823031    2.145706   -0.511466
 H   -4.997643    1.524889    1.548427
 H   -3.388849    3.283534    2.198506
 H   -4.946977    4.017138    1.826557
 H   -3.622127    4.112028    0.653635
 H   -6.136641    3.044322   -0.003124
 H   -3.253753    0.222377   -1.590884
 H   -4.800120    0.799614   -1.117405
 H   -5.148390   -1.337087   -0.526783
 H   -4.193862   -0.888146    0.904112
 H   -3.213218   -2.167031   -1.691890
 H   -2.455918   -3.962779   -0.143198
 H   -3.113011   -3.058117    1.233434
 H   -4.076303   -4.645532   -2.008393
 H   -6.277172   -5.660032   -2.416059
 H   -8.041270   -5.520347   -0.697420
 H   -7.589963   -4.357710    1.431164
 H   -5.391156   -3.335875    1.835756
 H   -1.238409   -1.735817    0.384386
 H    0.969228   -1.778917    0.049261
 H   -0.319207    1.691959   -2.117371
 H    3.476733    2.870146   -2.545311
 H    2.517840    4.266139   -3.046944
 H    3.490206    4.343395   -1.551937
 H    1.464210    5.541971   -0.010163
 H    1.530981    6.202006   -1.674580
 H    0.036405    6.322434   -0.727328
 H    3.497061    1.645500   -0.202670
 H    4.861549   -0.278410   -0.368715
 H    5.206974   -1.945028    2.034065
 H    7.181384    0.079935    0.849006
 H    7.499882   -0.971694    2.226806
 H    6.254755    0.276069    2.345140
 H    6.878458   -1.106286   -1.254314
 H    7.888888   -2.807821   -2.694470
 H    7.920651   -5.171907   -1.991848
 H    6.917446   -5.822133    0.167498
 H    5.887201   -4.117210    1.610886
