37 
4gii_ligand_xtb.xyz
 C   -3.355685    1.122221    0.175356
 C    3.856746   -1.678537    0.803138
 C   -2.101228    0.540812    0.031650
 C   -0.980985    1.332252    0.265555
 C    3.556635    0.521745   -0.873506
 C    1.494876    1.276491    0.361313
 C    2.614519    0.287493    0.128687
 C    4.637024   -0.326467   -1.052059
 C    4.783291   -1.424267   -0.206883
 N   -3.530845    2.395841    0.519384
 C   -1.158969    2.666844    0.626877
 C   -2.456866    3.133687    0.734948
 N    0.271124    0.733799    0.121666
 O    1.715402    2.407196    0.718308
 C    2.782421   -0.819969    0.959339
Cl    1.640636   -1.119007    2.222465
 C    5.888683   -2.295034   -0.375473
 N    6.780667   -2.999739   -0.511909
Cl    3.354892    1.872492   -1.918543
 N   -4.547512    0.437981   -0.021918
 C   -4.739422   -0.875407   -0.364026
 O   -3.834713   -1.658181   -0.563685
 C   -6.175441   -1.252631   -0.466355
 C   -6.542172   -2.300571   -1.489834
 C   -6.549276   -2.654641   -0.047157
 H    3.976944   -2.529626    1.454646
 H   -2.014215   -0.495388   -0.249035
 H    5.356324   -0.136567   -1.832787
 H   -0.317659    3.308859    0.816789
 H   -2.652069    4.160715    1.011364
 H    0.238797   -0.239975   -0.153036
 H   -5.354185    1.028976    0.130141
 H   -6.888678   -0.461678   -0.275336
 H   -5.734446   -2.682467   -2.094929
 H   -7.480436   -2.186413   -2.010144
 H   -7.492370   -2.791915    0.458713
 H   -5.746446   -3.275188    0.319971
