72 
4gj7_ligand_dft.xyz
 C   -1.490986    2.175615   -0.573181
 N   -0.774368    2.735463    0.430555
 C    0.301376    3.648531    0.048254
 C   -2.415006    1.043139   -0.314687
 C    1.520864    3.020476   -0.687325
 C   -1.980661   -0.044327    0.441273
 C   -2.686114   -1.240570    0.461875
 N    1.047150    1.649665   -2.586299
 C    1.822701    1.536548   -0.317975
 O   -1.282274    2.522887   -1.752341
 C   -3.918157   -1.326520   -0.213953
 C   -3.605488    0.934893   -1.038412
 C    3.159999    1.376676    0.420683
 C   -1.205582    2.714378    1.847067
 C   -4.362374   -0.219241   -0.950496
 C    1.460327    3.041423   -2.223667
 C    1.786929    0.750726   -1.641784
 O   -2.140591   -2.335945    1.076932
 C    3.498456   -0.049771    0.788283
 O   -4.696435   -2.420265   -0.268263
 C    0.226491   -2.654270    0.520830
 O    0.911149   -2.393918   -1.745799
 C   -1.220419   -3.046124    0.236614
 C    1.177307   -3.128991   -0.561916
 C   -0.118216    2.159448    2.765322
 C   -1.695833    4.094562    2.291114
 C    2.913920   -0.648374    1.907585
 C    4.418270   -0.787429    0.039624
 C   -4.735223   -3.341901    0.818874
 C    1.754041   -2.779117   -2.805419
 C    3.251635   -1.945552    2.279745
 C    4.759535   -2.087055    0.407510
 C    4.179932   -2.667487    1.532385
 H   -0.101421    4.467611   -0.556204
 H    0.675640    4.089400    0.972465
 H    2.377046    3.639185   -0.400232
 H   -1.043670   -0.003406    0.985352
 H    1.221506    1.422165   -3.566018
 H    0.015187    1.628593   -2.420089
 H    1.023475    1.161737    0.327031
 H   -3.934715    1.759345   -1.661895
 H    3.960728    1.797634   -0.201512
 H    3.118726    1.987618    1.330433
 H   -2.059799    2.037656    1.883188
 H   -5.306729   -0.312457   -1.475635
 H    2.449580    3.209257   -2.656733
 H    0.740687    3.745303   -2.639501
 H    2.791672    0.618081   -2.054414
 H    1.297321   -0.226306   -1.586928
 H    0.543451   -3.056194    1.488537
 H    0.319414   -1.565430    0.587375
 H   -1.374081   -4.110392    0.442577
 H   -1.463450   -2.861013   -0.815253
 H    2.217272   -2.969817   -0.248782
 H    1.045620   -4.205473   -0.758487
 H    0.150096    1.133878    2.491748
 H    0.790921    2.771489    2.746697
 H   -0.480575    2.145135    3.797024
 H   -2.139572    4.019763    3.288054
 H   -0.885528    4.829045    2.347030
 H   -2.459720    4.472038    1.605163
 H    2.213167   -0.080185    2.515542
 H    4.903471   -0.329718   -0.819908
 H   -5.699443   -3.844200    0.732424
 H   -4.672190   -2.823104    1.779056
 H   -3.930088   -4.076478    0.750927
 H    1.632735   -3.844038   -3.047112
 H    2.812012   -2.593516   -2.563882
 H    1.471474   -2.188673   -3.680906
 H    2.803375   -2.387089    3.164559
 H    5.490843   -2.639029   -0.174838
 H    4.454952   -3.674498    1.829778
