66 
4gja_ligand_xtb.xyz
 C    5.838256   -3.928563    0.130840
 C    4.767173   -2.926696   -0.149750
 C    3.500387   -3.070527    0.413401
 C    2.494890   -2.163516    0.134875
 C    2.758474   -1.101847   -0.709026
 C    4.004189   -0.937250   -1.282840
 C    5.004654   -1.850769   -1.000921
 S    1.462208    0.064233   -1.064255
 O    0.251066   -0.593905   -1.421634
 O    2.004929    1.093082   -1.915541
 N    1.097285    0.798057    0.400893
 C    1.877120    1.742754    1.171446
 C    2.869170    2.511717    0.293598
 N    2.162074    3.386565   -0.657495
 C    1.308620    4.383695    0.012199
 C    0.236791    3.621799    0.793131
 C    0.915503    2.736477    1.846988
 C   -0.578195    2.777144   -0.205931
 O   -0.194617    2.632712   -1.360860
 N   -1.701506    2.250180    0.264858
 C   -2.495699    1.303501   -0.497710
 C   -3.208975    0.338589    0.457551
 C   -4.272935   -0.483876   -0.234347
 C   -5.375406   -0.899777    0.502770
 C   -6.364506   -1.672530   -0.077825
 C   -6.263493   -2.040131   -1.408585
 C   -5.166422   -1.635359   -2.148606
 C   -4.173757   -0.864532   -1.566789
 C   -2.190750   -0.545136    1.146813
 C   -1.788497   -1.750779    0.586824
 C   -0.866266   -2.552703    1.235125
 C   -0.306226   -2.147628    2.437015
 C   -0.686388   -0.938642    2.994673
 C   -1.631577   -0.150785    2.357550
 H    5.760410   -4.309571    1.145912
 H    5.734298   -4.773682   -0.549765
 H    6.825567   -3.499573   -0.016218
 H    3.301997   -3.905723    1.067870
 H    1.505779   -2.272703    0.548908
 H    4.168564   -0.112410   -1.958416
 H    5.977849   -1.733592   -1.452763
 H    0.485379    0.217523    0.954228
 H    2.460639    1.221349    1.947660
 H    3.485220    1.811025   -0.269676
 H    3.507169    3.124551    0.937185
 H    1.481565    2.782167   -1.250905
 H    2.826456    3.820097   -1.299815
 H    0.841255    5.011827   -0.748313
 H    1.909785    5.008754    0.677889
 H   -0.427549    4.335020    1.287465
 H    0.172055    2.175836    2.412633
 H    1.470953    3.362539    2.547776
 H   -2.019310    2.468625    1.196915
 H   -3.233830    1.840248   -1.103144
 H   -1.806542    0.772956   -1.160137
 H   -3.710332    0.943084    1.225655
 H   -5.459725   -0.616246    1.542533
 H   -7.215040   -1.985025    0.508697
 H   -7.035694   -2.639326   -1.865934
 H   -5.079526   -1.921016   -3.186079
 H   -3.322395   -0.566229   -2.159021
 H   -2.214228   -2.074294   -0.348519
 H   -0.596027   -3.505622    0.804967
 H    0.407626   -2.776445    2.948428
 H   -0.268398   -0.621983    3.939538
 H   -1.962091    0.763599    2.834198
