65 
4gjc_ligand_xtb.xyz
 C   -3.614378    1.109222   -1.327869
 O   -2.885299    0.000203    1.220333
 C   -2.537332    1.710834   -0.465328
 C   -4.587026    0.337156   -0.476356
 C   -2.219093    1.122925    0.752206
 C   -4.163175   -0.202561    0.734499
 C   -2.988612    0.169899   -2.390362
 C   -5.891790    0.102121   -0.887977
 C   -1.830891    2.839347   -0.859747
 C   -1.217474    1.650263    1.561749
 C   -5.015074   -0.987996    1.501476
 C   -0.837629    3.371318   -0.059942
 C   -6.747599   -0.672031   -0.126118
 C   -0.534554    2.780349    1.155664
 C   -6.304609   -1.224735    1.064945
 N   -2.363568   -0.978812   -1.771492
 C   -1.035327   -1.096315   -1.644054
 C   -0.580202   -2.346368   -0.854163
 C    0.952239   -2.464419   -0.830658
 C    0.987819   -1.887570    1.611568
 N   -0.417235   -1.470860    1.452800
 C    1.614615   -1.590941    0.240716
 C   -1.151533   -2.396691    0.565598
 O   -0.243966   -0.320467   -2.141339
 N    1.381504   -0.176476    0.016046
 S    2.443450    0.900806    0.775437
 O    2.266443    0.628157    2.178700
 O    2.107457    2.188665    0.267929
 C    4.067746    0.408207    0.248771
 C    4.472657    0.758946   -1.025429
 C    6.586348   -0.333327   -0.620565
 C    6.152566   -0.670193    0.659205
 C    5.732265    0.385655   -1.455533
 C    4.893316   -0.301050    1.099111
 C    7.956308   -0.706535   -1.083772
 H   -4.137679    1.899964   -1.873694
 H   -2.213483    0.703770   -2.942756
 H   -3.762872   -0.175861   -3.078674
 H   -6.232846    0.533283   -1.817200
 H   -2.075784    3.303815   -1.803150
 H   -1.018172    1.207459    2.526532
 H   -4.660738   -1.387894    2.439060
 H   -0.298581    4.248059   -0.377714
 H   -7.758506   -0.843905   -0.459149
 H    0.230864    3.196501    1.787849
 H   -6.967262   -1.829807    1.663001
 H   -2.986745   -1.676308   -1.395244
 H   -0.977359   -3.205947   -1.405490
 H    1.232995   -3.502313   -0.646039
 H    1.336186   -2.181268   -1.811107
 H    1.054500   -2.940433    1.884351
 H    1.473459   -1.257027    2.360678
 H   -0.324034   -0.525950    1.000751
 H   -0.910115   -1.353481    2.341705
 H    2.690767   -1.812695    0.269806
 H   -1.046490   -3.406975    0.971291
 H   -2.208507   -2.128424    0.580080
 H    1.183365    0.069461   -0.949369
 H    3.806260    1.331722   -1.650609
 H    6.809160   -1.218525    1.317508
 H    6.063414    0.659223   -2.445666
 H    4.548522   -0.535572    2.093904
 H    8.332952   -1.569996   -0.542112
 H    7.962604   -0.920825   -2.149425
 H    8.639446    0.124565   -0.908399
