50 
4gk2_ligand_xtb.xyz
 O   -6.429861   -0.006596   -0.073426
 C   -5.259868   -0.315346   -0.023708
 N   -4.865276   -1.607693    0.255438
 C   -3.580882   -2.158942    0.360402
 O   -3.421216   -3.334459    0.615066
 N   -4.241844    0.588874   -0.240217
 C   -4.543833    1.970028   -0.539099
 C   -2.946191    0.177659   -0.165417
 C   -2.604703   -1.149415    0.127087
 N   -1.866496    0.966902   -0.356202
 C   -0.848620    0.135502   -0.168858
 N   -1.227042   -1.149021    0.113783
 C   -0.110942   -1.926468    0.241986
 N    0.500656    0.177810   -0.213396
 C    0.966738   -1.111771    0.039804
 C    2.393952   -1.410204    0.134599
 C    2.961574   -2.512332   -0.511515
 C    2.147152   -3.452715   -1.346795
 C    4.329481   -2.721078   -0.374378
 C    5.126276   -1.877940    0.371138
 C    3.195580   -0.557993    0.893045
 C    4.556933   -0.782942    1.014252
 O    5.362699    0.032795    1.744091
 C    1.262737    1.315552   -0.539657
 C    2.248762    1.250678   -1.510185
 C    2.971039    2.383306   -1.843330
 C    2.687211    3.582974   -1.217622
 C    1.704287    3.658936   -0.244604
 C    0.989004    2.524895    0.122816
 O    0.061374    2.470438    1.109789
 C   -0.420896    3.677229    1.650361
 H   -5.631102   -2.253983    0.408657
 H   -4.136188    2.613253    0.240874
 H   -4.092783    2.244704   -1.492182
 H   -5.626337    2.070239   -0.585319
 H   -0.159691   -2.965052    0.492075
 H    1.734230   -4.248667   -0.727800
 H    1.318267   -2.938702   -1.827587
 H    2.769229   -3.913769   -2.110368
 H    4.780819   -3.567167   -0.871221
 H    6.186279   -2.047223    0.468592
 H    2.744421    0.282685    1.403619
 H    4.841743    0.743668    2.136339
 H    2.442786    0.310583   -2.002922
 H    3.740964    2.327896   -2.596199
 H    3.235386    4.474229   -1.482353
 H    1.507386    4.604800    0.234199
 H    0.353086    4.201725    2.220983
 H   -0.810776    4.334247    0.868324
 H   -1.230411    3.393331    2.320360
