47 
4gk3_ligand_xtb.xyz
 O   -5.956116   -0.385834   -0.013634
 C   -4.756129   -0.531533    0.059022
 N   -4.199156   -1.657306    0.629870
 N   -3.862699    0.404221   -0.418257
 C   -4.343326    1.617135   -1.040187
 C   -2.524556    0.178253   -0.307448
 C   -2.016221   -0.985959    0.283698
 C   -2.854551   -2.011326    0.804561
 O   -2.544403   -3.059840    1.330879
 N   -1.553314    1.013152   -0.738292
 C   -0.434812    0.368295   -0.415755
 N   -0.648862   -0.834874    0.198429
 N    0.894844    0.564693   -0.521630
 C    1.510620    1.676427   -1.206745
 C    0.952492    3.009869   -0.711365
 C    1.304541    3.290276    0.747464
 C    0.691342    4.600899    1.223314
 C    1.518314   -0.551195    0.023899
 C    0.558403   -1.414486    0.469508
 C    2.976960   -0.687176    0.099199
 C    3.635171   -1.738369   -0.547201
 C    2.883007   -2.757118   -1.347147
 C    5.016832   -1.825417   -0.434291
 C    5.739447   -0.900621    0.297211
 C    5.083412    0.137175    0.936645
 C    3.709044    0.240113    0.837039
 H   -4.875752   -2.330624    0.971232
 H   -4.010675    2.482975   -0.467764
 H   -3.947367    1.690977   -2.052649
 H   -5.430261    1.571603   -1.058273
 H    1.312797    1.579597   -2.280936
 H    2.588763    1.615676   -1.042681
 H   -0.132272    2.989754   -0.827843
 H    1.351575    3.805321   -1.342755
 H    2.391146    3.337833    0.857505
 H    0.934740    2.473864    1.372319
 H    1.055881    5.432149    0.623904
 H   -0.391902    4.564701    1.136590
 H    0.947535    4.788989    2.263129
 H    0.649166   -2.358962    0.962742
 H    2.512615   -3.547129   -0.694559
 H    2.027098   -2.311123   -1.848355
 H    3.532569   -3.212580   -2.090685
 H    5.533366   -2.633235   -0.932265
 H    6.812909   -0.990283    0.369280
 H    5.638741    0.860796    1.514035
 H    3.187854    1.034418    1.350713
