86 
4gk7_ligand_dft.xyz
 C   -1.532934   -0.678773    1.475686
 O   -0.755856   -0.112880    2.246049
 C   -2.924748   -0.195174    1.301907
 C   -3.967705   -0.961066    0.949688
 C   -5.333139   -0.473851    0.828527
 C   -6.369087   -1.255291    0.500104
 C   -7.782612   -0.786274    0.346075
 C   -8.311765   -0.993032   -1.081595
 C   -9.789823   -0.620761   -1.248793
 C  -10.144584    0.814519   -0.841175
 C   -9.360819    1.887700   -1.599878
 C   -9.763946    3.323019   -1.245768
 C   -9.467376    3.703049    0.205751
 N   -1.170311   -1.771503    0.754743
 C    0.126155   -2.405967    0.890530
 C    1.179928   -1.676739    0.037737
 O    1.672412   -2.181272   -0.972140
 C    0.014219   -3.873154    0.448397
 O   -0.491889   -3.920633   -0.873802
 C   -0.910103   -4.683931    1.339591
 N    1.495861   -0.441364    0.467085
 C    2.553754    0.305053   -0.169903
 C    3.929126   -0.308554    0.162563
 O    4.119352   -0.933728    1.194826
 C    2.521278    1.758202    0.252563
 C    3.155828    2.234830    1.322528
 C    3.265062    3.694472    1.643479
 C    4.648887    4.249141    1.232666
 N    4.938683    4.042932   -0.174323
 N    4.888940   -0.030496   -0.750450
 C    6.294134   -0.328904   -0.523136
 C    6.780752   -1.426935   -1.488851
 C    8.265621   -1.740051   -1.280829
 C    5.937040   -2.695370   -1.337425
 C    7.130707    0.961523   -0.594559
 C    6.489433    2.140994    0.140776
 C    5.536759    2.947305   -0.737334
 O    5.358686    2.689906   -1.922078
 H   -3.065194    0.851027    1.559968
 H   -3.817824   -2.023878    0.757215
 H   -5.498028    0.586269    1.021097
 H   -6.188275   -2.314363    0.306601
 H   -7.848824    0.272730    0.622581
 H   -8.428852   -1.337620    1.044793
 H   -8.178014   -2.045274   -1.364017
 H   -7.692314   -0.411564   -1.775146
 H  -10.401405   -1.315856   -0.658183
 H  -10.070286   -0.776619   -2.298751
 H  -11.218242    0.972539   -1.009705
 H   -9.989904    0.934194    0.238408
 H   -9.496842    1.728705   -2.678305
 H   -8.285439    1.769261   -1.406508
 H   -9.230414    4.012223   -1.911710
 H  -10.833925    3.462688   -1.449970
 H  -10.069329    3.119113    0.909684
 H   -8.411013    3.529348    0.445062
 H   -9.681339    4.761050    0.388395
 H   -1.727638   -2.092873   -0.025297
 H    0.425688   -2.341534    1.941922
 H    1.024033   -4.303685    0.485115
 H    0.205481   -3.505049   -1.410557
 H   -0.981655   -5.705538    0.957642
 H   -1.915069   -4.251059    1.357936
 H   -0.528919   -4.715520    2.365172
 H    1.071006   -0.103548    1.326401
 H    2.403550    0.240378   -1.253124
 H    1.950221    2.431877   -0.384247
 H    3.715203    1.545963    1.956234
 H    3.122304    3.877738    2.715009
 H    2.487462    4.256737    1.111412
 H    4.689004    5.323043    1.443181
 H    5.437582    3.783872    1.828162
 H    4.302818    4.489447   -0.824259
 H    4.672280    0.580412   -1.528645
 H    6.339860   -0.724094    0.498343
 H    6.649411   -1.041580   -2.511333
 H    8.459344   -2.021194   -0.237670
 H    8.909384   -0.890347   -1.529350
 H    8.571214   -2.580871   -1.912300
 H    6.255902   -3.455500   -2.058864
 H    4.873687   -2.496898   -1.497493
 H    6.048683   -3.115351   -0.330629
 H    7.296878    1.240711   -1.640782
 H    8.110463    0.760096   -0.151614
 H    7.261883    2.833840    0.498001
 H    5.961295    1.782559    1.031943
