43 
4gkh_ligand_xtb.xyz
 N   -2.414475    2.995714   -0.791443
 C   -3.448127    2.170933   -0.695242
 N   -3.446277    0.894741   -0.384884
 C   -2.225094    0.423659   -0.101002
 C   -1.037975    1.196868   -0.106120
 C   -1.193430    2.535872   -0.520575
 C   -3.473707   -2.209981   -0.960481
 C   -1.919488   -3.198747    0.753423
 C   -3.774919   -1.659887    1.471949
 N   -0.168204    3.402033   -0.652194
 C    4.451315   -2.009426   -0.996530
 C    3.105141   -2.337308   -1.215424
 C    1.766960    1.671783    1.137462
 C    4.775481   -0.866604   -0.322426
 C    4.097756    1.173765    0.870172
 C    2.108646   -1.522035   -0.755975
 N   -0.555454   -0.924464    0.430685
 C    1.401447    0.536240    0.446545
 C   -0.018795    0.266231    0.248914
 C    3.771497   -0.004876    0.167805
 C    2.407791   -0.340459   -0.047688
 N   -1.873949   -0.836477    0.225904
 C   -2.758845   -1.982630    0.373785
 C    3.113209    1.991046    1.349948
 H   -4.413595    2.605945   -0.920168
 H   -2.751717   -2.419401   -1.747258
 H   -4.153945   -3.053245   -0.878434
 H   -4.040667   -1.322566   -1.229545
 H   -1.194235   -3.419447   -0.024867
 H   -1.377394   -3.011694    1.676059
 H   -2.567147   -4.060557    0.888267
 H   -3.265424   -1.477363    2.415817
 H   -4.341071   -0.773101    1.198994
 H   -4.461399   -2.492113    1.600717
 H   -0.373268    4.299606   -1.055022
 H    0.780721    3.073958   -0.611144
 H    5.226380   -2.664799   -1.366480
 H    2.861299   -3.242099   -1.753028
 H    1.001558    2.312433    1.552791
 H    5.809686   -0.602491   -0.151175
 H    5.139525    1.412742    1.029642
 H    1.073758   -1.779556   -0.913953
 H    3.362268    2.886255    1.901079
