33 
4gkm_ligand_dft.xyz
 O    1.066321    2.815282    0.254892
 C    1.979121    1.974498    0.799976
 O    2.678840    2.360522    1.698339
 C    2.081707    0.596746    0.215441
 C    3.374010    0.121666   -0.005819
 C    3.623434   -1.135798   -0.547624
 C    5.034375   -1.613686   -0.779397
 C    2.516337   -1.922389   -0.865164
 C    1.219605   -1.485109   -0.633831
 C    0.972582   -0.229895   -0.065251
 N   -0.324069    0.215504    0.196763
 C   -1.476135   -0.539509    0.325436
 C   -1.461276   -1.823130    0.896884
 C   -2.635107   -2.531389    1.084288
 C   -3.867638   -1.981652    0.728367
 C   -3.897264   -0.720338    0.160766
 C   -2.721255    0.006776   -0.073864
 C   -2.775561    1.341084   -0.733534
 O   -3.827272    1.578792   -1.540007
 O   -1.937432    2.207745   -0.599464
 H    0.728820    2.485348   -0.590471
 H    4.202112    0.771961    0.263023
 H    5.573559   -0.946385   -1.460769
 H    5.599282   -1.647842    0.158707
 H    5.047431   -2.617355   -1.214324
 H    2.665234   -2.902727   -1.310997
 H    0.385889   -2.120976   -0.910186
 H   -0.499699    1.212116    0.221110
 H   -0.517616   -2.238954    1.231327
 H   -2.592155   -3.513709    1.544940
 H   -4.789102   -2.524230    0.908797
 H   -4.862193   -0.274057   -0.069265
 H   -4.318343    0.762292   -1.699375
