97 
4gm8_ligand_dft.xyz
 C    5.895044    0.893413   -0.219807
 C    5.623287    0.230251   -1.577747
 C    6.807007    0.384370   -2.527141
 C    4.349133    0.802320   -2.209167
 O    4.366700    1.475467   -3.227178
 C    1.851634    0.687135   -2.008402
 C    0.886016    0.561677   -0.819118
 C    1.521369   -0.379738   -3.073186
 N    3.212577    0.518320   -1.491563
 O   -0.246052    0.102661   -0.961687
 C    1.599906    2.093384   -2.623460
 C    2.043484    3.297684   -1.795929
 C    1.601960   -1.828372   -2.596039
 N    1.317321    1.069676    0.360777
 C    0.605103    0.947647    1.624311
 C   -0.681511    1.780061    1.760078
 O   -1.316927    1.709282    2.800164
 C    1.532545    1.273250    2.804112
 C    2.813534    0.440186    2.865530
 C    2.585455   -1.052221    3.138574
 N    3.721053   -1.877603    2.752246
 C    4.036591   -2.000526    1.413918
 N    5.349203   -2.376420    1.173724
 N    3.252005   -1.782845    0.414550
 N   -1.086365    2.510297    0.689736
 O   -4.476501    1.673176    1.246349
 C   -2.490586    2.885580    0.536446
 C   -3.391007    1.628668    0.689162
 C   -2.718429    3.506337   -0.854331
 C   -2.956316    3.996753    1.489811
 C   -4.068065    4.218351   -0.712501
 C   -4.104738    4.723182    0.752212
 N   -2.886426    0.510994    0.100280
 C   -3.419751   -0.812290    0.377427
 C   -3.755091   -1.588981   -0.882666
 C   -2.431478   -1.539578    1.290423
 C   -2.415738   -1.210922    2.648566
 C   -1.478105   -1.766131    3.511035
 C   -0.553391   -2.660306    2.993476
 C   -0.523170   -2.994046    1.648391
 C   -1.474276   -2.428776    0.801001
 C   -3.074176   -1.387635   -2.084221
 C   -3.376255   -2.147313   -3.210863
 C   -4.367971   -3.110637   -3.121323
 C   -5.061743   -3.338829   -1.942821
 C   -4.744964   -2.571548   -0.828081
 F    0.361829   -3.204813    3.820710
 F   -4.666131   -3.844866   -4.206378
 H    5.079478    0.712399    0.486258
 H    6.021275    1.975653   -0.338709
 H    6.809670    0.487021    0.222641
 H    5.440149   -0.837482   -1.395333
 H    7.001806    1.441332   -2.729845
 H    6.613722   -0.103166   -3.486242
 H    7.705543   -0.058088   -2.084203
 H    2.228059   -0.214899   -3.894250
 H    0.518726   -0.178081   -3.463643
 H    3.321556   -0.284938   -0.863411
 H    0.522578    2.153836   -2.825326
 H    2.114829    2.121210   -3.584305
 H    3.114144    3.247862   -1.578117
 H    1.866639    4.216135   -2.363518
 H    1.499617    3.390295   -0.849442
 H    1.430735   -2.508655   -3.436165
 H    2.578282   -2.064927   -2.162431
 H    0.840069   -2.035270   -1.838354
 H    2.259705    1.437146    0.362110
 H    0.237504   -0.084505    1.704913
 H    1.797229    2.337248    2.753214
 H    0.937803    1.143686    3.712375
 H    3.469146    0.853719    3.640768
 H    3.366110    0.533266    1.923344
 H    1.704666   -1.422045    2.610105
 H    2.381174   -1.234063    4.196471
 H    4.526182   -1.779386    3.356408
 H    5.471837   -2.716751    0.229473
 H    5.753560   -3.002403    1.857615
 H    2.325061   -1.502264    0.724687
 H   -0.547193    2.426175   -0.158593
 H   -1.916549    4.234610   -1.036755
 H   -2.695573    2.761658   -1.657373
 H   -3.256015    3.588867    2.454507
 H   -2.106139    4.667702    1.651282
 H   -4.878534    3.503672   -0.882624
 H   -4.181712    5.022492   -1.444804
 H   -3.968647    5.808042    0.801736
 H   -5.067188    4.490440    1.211717
 H   -1.920255    0.521833   -0.212473
 H   -4.346365   -0.641912    0.933304
 H   -3.125564   -0.482280    3.028447
 H   -1.457787   -1.514188    4.565391
 H    0.224655   -3.688895    1.280608
 H   -1.461993   -2.682942   -0.253940
 H   -2.290290   -0.639573   -2.144246
 H   -2.854697   -1.999484   -4.150299
 H   -5.834436   -4.098888   -1.911032
 H   -5.279042   -2.740120    0.103606
