104 
4gne_ligand_dft.xyz
 N   -1.656690    1.247704   -1.425713
 C   -0.819357    2.217676   -2.167336
 C    0.599023    2.038367   -1.611537
 O    0.762331    1.495489   -0.528532
 C   -1.345513    3.637864   -1.978412
 N    1.606397    2.548653   -2.361307
 C    2.967888    2.076215   -2.142117
 C    2.970602    0.544522   -2.384170
 O    2.070277    0.008178   -3.020488
 C    3.532373    2.431045   -0.756724
 C    3.278711    3.853287   -0.269300
 C    3.726859    4.031921    1.186965
 N    2.895611    3.331488    2.154894
 C    3.081991    2.074548    2.641284
 N    2.130103    1.671302    3.556067
 N    4.025511    1.240229    2.317449
 N    3.985657   -0.145206   -1.828328
 C    4.058827   -1.597093   -1.803620
 C    3.123754   -2.149732   -0.709847
 O    3.557158   -2.809831    0.242965
 C    5.514548   -1.992782   -1.531152
 O    5.923955   -1.204117   -0.404319
 C    6.409463   -1.745194   -2.736528
 N    1.830348   -1.834988   -0.821629
 C    0.921114   -2.058191    0.280616
 C   -0.491832   -1.865631   -0.260294
 O   -0.687071   -1.331831   -1.353780
 C    1.184709   -1.078309    1.468956
 C    1.175434   -1.740525    2.851968
 C    2.299241   -2.743078    3.158566
 C    3.652602   -2.174848    3.588347
 N    4.416098   -1.490381    2.496742
 N   -1.495522   -2.311620    0.523771
 C   -2.867522   -1.920021    0.276148
 C   -3.115936   -0.500844    0.833736
 O   -2.168793    0.244191    1.092044
 C   -3.873719   -3.016190    0.690628
 C   -4.496282   -3.749659   -0.499932
 C   -5.359309   -2.858608   -1.386513
 O   -5.356516   -1.625595   -1.286562
 N   -6.105081   -3.488406   -2.304343
 N   -4.402957   -0.124455    0.896295
 C   -4.792324    1.266057    0.902353
 C   -5.939688    1.444656    1.886784
 O   -5.946832    2.662250    2.438801
 C   -5.261466    1.688456   -0.529593
 O   -4.431178    1.087798   -1.520519
 C   -5.222316    3.192325   -0.720264
 O   -6.763552    0.591502    2.096506
 H   -1.361574    0.267753   -1.610212
 H   -1.516883    1.326508   -0.405646
 H   -2.682650    1.325816   -1.601363
 H   -0.847715    1.930279   -3.222240
 H   -2.364904    3.726756   -2.364674
 H   -0.716878    4.350070   -2.518345
 H   -1.340389    3.912918   -0.918515
 H    1.381760    2.774479   -3.320631
 H    3.582359    2.547008   -2.916727
 H    3.113391    1.728718   -0.034706
 H    4.620073    2.278451   -0.792367
 H    2.212005    4.090383   -0.342520
 H    3.811612    4.578996   -0.894879
 H    3.702940    5.092245    1.452964
 H    4.766660    3.713345    1.321454
 H    2.027820    3.784466    2.398685
 H    2.438185    0.897065    4.125968
 H    1.700190    2.398389    4.111879
 H    4.642505    1.616713    1.605830
 H    4.651051    0.303806   -1.214164
 H    3.738399   -1.984017   -2.776275
 H    5.528826   -3.052802   -1.256496
 H    6.888406   -1.222460   -0.372228
 H    6.102258   -2.371131   -3.579420
 H    6.371390   -0.697394   -3.050091
 H    7.449052   -2.001657   -2.505314
 H    1.486548   -1.313476   -1.627676
 H    1.037426   -3.093953    0.620495
 H    0.436189   -0.281296    1.453821
 H    2.140860   -0.579627    1.286612
 H    0.219467   -2.262096    2.995541
 H    1.170216   -0.947411    3.608112
 H    1.978480   -3.366043    4.000885
 H    2.458390   -3.422621    2.315326
 H    3.546361   -1.452231    4.403452
 H    4.277901   -2.993110    3.951377
 H    5.418720   -1.520060    2.686312
 H    4.171471   -0.448962    2.421014
 H    4.264354   -1.957502    1.578869
 H   -1.262279   -2.632215    1.453748
 H   -2.935833   -1.776505   -0.806460
 H   -3.355141   -3.756874    1.307289
 H   -4.662337   -2.606075    1.327468
 H   -5.099117   -4.590925   -0.140859
 H   -3.706273   -4.181618   -1.128503
 H   -6.697581   -2.943308   -2.914912
 H   -6.147184   -4.493993   -2.372817
 H   -5.092331   -0.767639    0.521050
 H   -3.927624    1.857728    1.209132
 H   -6.728824    2.721056    3.014452
 H   -6.282812    1.314713   -0.673275
 H   -4.737108    0.172332   -1.659424
 H   -5.574305    3.452604   -1.721089
 H   -5.852385    3.697013    0.015974
 H   -4.198938    3.565477   -0.596191
