43 
4gny_ligand_xtb.xyz
 S   -4.785005    0.910544    0.041206
 O   -5.293147    0.753585    1.353012
 O   -4.692317   -0.494846   -0.690585
 O   -5.912374    1.561604   -0.860622
 O   -3.590435    1.652399   -0.175566
 C   -4.371546   -1.580304    0.171616
 C    8.646390    1.125850    0.965380
 C    7.209652    1.091464    0.458266
 C    6.961030   -0.116362   -0.442816
 C    5.570129   -0.128088   -1.077726
 C    4.443420   -0.351555   -0.071071
 C    3.083793   -0.465137   -0.757031
 C    1.953594   -0.702281    0.241944
 C    0.595747   -0.822927   -0.446184
 C   -0.536964   -1.051860    0.551841
 C   -1.888365   -1.189419   -0.145349
 C   -3.024739   -1.383741    0.857105
 H   -5.517561    1.949492   -1.642619
 H   -4.368136   -2.461045   -0.475712
 H   -5.166076   -1.666092    0.919235
 H    8.869766    0.228753    1.539005
 H    9.344769    1.180514    0.132785
 H    8.807376    1.990728    1.604843
 H    7.001337    2.006087   -0.101790
 H    6.531075    1.060960    1.312175
 H    7.101273   -1.032760    0.135585
 H    7.708050   -0.113739   -1.240927
 H    5.534302   -0.926554   -1.823553
 H    5.404956    0.816837   -1.600671
 H    4.413163    0.475646    0.639736
 H    4.640820   -1.267263    0.491620
 H    3.109120   -1.288793   -1.474792
 H    2.884266    0.452108   -1.315828
 H    1.923250    0.123575    0.955963
 H    2.156417   -1.617100    0.804154
 H    0.625621   -1.652445   -1.156969
 H    0.394228    0.089695   -1.010596
 H   -0.579267   -0.212174    1.247673
 H   -0.331752   -1.955827    1.130977
 H   -1.859550   -2.039148   -0.832096
 H   -2.088134   -0.287266   -0.725220
 H   -2.828593   -2.256103    1.484616
 H   -3.097317   -0.502585    1.497337
