93 
4gpl_ligand_xtb.xyz
 C    6.958516   -2.543301   -1.831959
 O    8.007804   -2.242222   -1.303122
 C    6.856103   -3.242703   -3.170520
 N    5.756088   -2.253073   -1.283522
 C    5.613107   -1.701322    0.044064
 C    4.148530   -1.895026    0.441847
 O    3.419112   -2.639348   -0.192437
 C    6.090731   -0.236227    0.125534
 C    5.041769    0.770355   -0.255817
 C    4.328560    0.657392   -1.443576
 C    4.762206    1.836742    0.590527
 C    3.359982    1.584735   -1.781816
 C    3.802892    2.774436    0.258237
 C    3.107494    2.651490   -0.934114
 O    2.175194    3.616507   -1.267703
 P    0.642198    3.245555   -1.040040
 O    0.478967    3.065385    0.552468
 O    0.141518    2.080575   -1.781721
 O    0.015562    4.642370   -1.344361
 N    3.759861   -1.249796    1.546750
 C    2.411491   -1.311942    2.070839
 C    1.443060   -0.529327    1.174853
 O    1.532254    0.710198    1.148723
 C    2.435388   -0.631414    3.463049
 O    3.113877    0.594788    3.368511
 C    3.144630   -1.503603    4.492090
 N    0.545257   -1.201081    0.478755
 C   -0.438145   -0.532275   -0.355129
 C   -1.681074   -0.210499    0.474161
 O   -1.871693   -0.662384    1.585275
 C   -0.796117   -1.598650   -1.393716
 C   -0.767933   -2.876719   -0.559883
 C    0.385556   -2.647917    0.419707
 N   -2.564036    0.592523   -0.163999
 C   -3.954952    0.564687    0.234074
 C   -4.623544   -0.617743   -0.482062
 O   -4.212901   -0.987217   -1.578564
 C   -4.683820    1.858865   -0.132252
 C   -4.255278    3.023679    0.764369
 C   -2.804849    3.352244    0.495791
 O   -2.410228    3.736389   -0.584327
 O   -2.032800    3.182606    1.543369
 N   -5.656761   -1.199881    0.130230
 C   -6.310395   -2.379543   -0.437036
 C   -7.322696   -1.956795   -1.527477
 O   -8.521345   -2.030775   -1.378096
 C   -7.009211   -3.022592    0.755052
 C   -7.373776   -1.813765    1.612422
 C   -6.156973   -0.903014    1.462980
 N   -6.725072   -1.518836   -2.645668
 H    6.247220   -2.656999   -3.855002
 H    7.850802   -3.368227   -3.587418
 H    6.395430   -4.219811   -3.041840
 H    4.903217   -2.649430   -1.660211
 H    6.232741   -2.293085    0.736382
 H    6.953437   -0.151180   -0.539563
 H    6.447278   -0.028839    1.135863
 H    4.532177   -0.166125   -2.110589
 H    5.297364    1.939923    1.523705
 H    2.791407    1.495948   -2.693998
 H    3.582694    3.602248    0.914078
 H    0.817976    2.182399    0.818979
 H   -0.947623    4.537591   -1.303473
 H    4.329382   -0.522645    1.961896
 H    2.110648   -2.356942    2.156113
 H    1.392500   -0.468564    3.779318
 H    2.680114    1.098699    2.656481
 H    4.146165   -1.751166    4.151142
 H    3.223022   -0.955861    5.426485
 H    2.585363   -2.418987    4.660341
 H   -0.030554    0.376104   -0.805157
 H   -0.030423   -1.623282   -2.168468
 H   -1.766537   -1.423012   -1.854335
 H   -0.615033   -3.768431   -1.163486
 H   -1.707235   -2.979831   -0.015740
 H    0.146082   -3.047955    1.407714
 H    1.315378   -3.091275    0.053695
 H   -2.360624    0.859873   -1.117392
 H   -3.958790    0.404582    1.316280
 H   -5.760707    1.707366   -0.041779
 H   -4.461717    2.107370   -1.172172
 H   -4.376830    2.774572    1.817788
 H   -4.855527    3.901993    0.522612
 H   -1.078056    3.296386    1.310181
 H   -5.554849   -3.020755   -0.902463
 H   -7.889033   -3.576719    0.437079
 H   -6.327900   -3.687678    1.285600
 H   -7.567404   -2.072488    2.650555
 H   -8.258059   -1.334418    1.193782
 H   -5.391291   -1.150486    2.207502
 H   -6.418824    0.151810    1.562557
 H   -5.719417   -1.398274   -2.674312
 H   -7.294393   -1.183160   -3.405513
