27 
4gqp_ligand_xtb.xyz
 N   -1.601513    0.967295   -0.179665
 C   -1.759717   -0.481076    0.191808
 C   -3.177068   -0.940306   -0.094444
 C   -0.706816   -1.274339   -0.595509
 C    0.662957   -0.701927   -0.333677
 C    1.392111   -1.098371    0.781088
 C    1.178548    0.296097   -1.161197
 C    2.616873   -0.518034    1.059687
 C    2.407029    0.876180   -0.879494
 C    3.122518    0.474586    0.234675
 C   -2.009733    1.932757    0.853784
 H   -0.585971    1.087629   -0.404525
 H   -2.136774    1.137489   -1.038916
 H   -1.540683   -0.558928    1.260624
 H   -3.908200   -0.359599    0.462207
 H   -3.291065   -1.979024    0.201523
 H   -3.402802   -0.871906   -1.156767
 H   -0.939400   -1.241889   -1.661758
 H   -0.746732   -2.315068   -0.277097
 H    1.005927   -1.877013    1.421909
 H    0.663754    0.568853   -2.074842
 H    3.180897   -0.844785    1.918914
 H    2.804850    1.632829   -1.537413
 H    4.079033    0.922424    0.451536
 H   -3.055243    1.787130    1.117239
 H   -1.878655    2.950115    0.490974
 H   -1.398560    1.797275    1.743715
