75 
4gr0_ligand_xtb.xyz
 O    5.079466    2.228059    0.649509
 N   -0.855173    1.120973    2.371463
 O    0.461298    1.416907    2.475968
 C    4.254615    1.874029   -0.166834
 C    2.780125    1.663014    0.172194
 C    2.255905    2.571105    1.293256
 C   -0.277057    2.498844    0.703389
 C   -1.320987    1.753810    1.317930
 C   -2.706478    1.622147    0.901094
 C   -3.644400    1.067309    1.771215
 C   -4.954791    0.905032    1.375094
 C   -5.366703    1.293676    0.101004
 C   -4.429438    1.857388   -0.761973
 C   -3.115637    2.018355   -0.370469
 C    0.817006    2.247204    1.479557
Cl   -9.550457   -1.733553   -0.057646
 C   -8.736943   -0.252617   -0.428186
 C   -7.425031   -0.082592   -0.024757
 C   -9.410640    0.739582   -1.122830
 C   -8.746173    1.917063   -1.419961
 C   -7.432284    2.099548   -1.030452
 C   -6.760221    1.103755   -0.325334
 C    2.693207    0.182186    0.562326
 P    2.127601   -0.818396   -0.881449
 O    2.875978   -2.222202   -0.765289
 O    2.306066   -0.147334   -2.184123
 C    0.406977   -1.249985   -0.509234
 C    0.080261   -1.984827    0.621392
 C   -1.242145   -2.271491    0.900495
 C   -2.225231   -1.810119    0.040424
Br   -4.034803   -2.248714    0.391715
 C   -1.917802   -1.059602   -1.081142
 C   -0.590210   -0.778695   -1.348191
 N    4.529939    1.542687   -1.449622
 C    5.869072    1.131540   -1.843271
 C    6.223648   -0.099781   -0.993865
 O    5.367052   -0.937549   -0.727799
 C    6.858055    2.289301   -1.759167
 N    7.486312   -0.214470   -0.587506
 C    7.952771   -1.281615    0.267484
 C    9.263559   -0.796507    0.893146
 O    9.863123    0.157953    0.451160
 C    8.198949   -2.562240   -0.539182
 N    9.698736   -1.530674    1.932848
 H    2.177364    1.839140   -0.724002
 H    2.812002    2.388799    2.212676
 H    2.377260    3.616099    1.005984
 H   -0.332025    3.129447   -0.157830
 H   -3.319564    0.763601    2.753922
 H   -5.673992    0.478838    2.057741
 H   -4.730378    2.145927   -1.758723
 H   -2.399678    2.435564   -1.062592
 H   -6.910785   -0.876106    0.495180
 H  -10.435035    0.590083   -1.424691
 H   -9.261838    2.697760   -1.958946
 H   -6.927827    3.027850   -1.253541
 H    3.669766   -0.189966    0.879147
 H    2.004203    0.026840    1.392048
 H    3.824449   -2.047637   -0.873557
 H    0.863456   -2.343555    1.271812
 H   -1.509744   -2.847756    1.772743
 H   -2.703076   -0.705849   -1.731751
 H   -0.308693   -0.204501   -2.218117
 H    3.775902    1.095971   -1.962216
 H    5.796027    0.785813   -2.881438
 H    7.003731    2.588271   -0.724846
 H    6.447005    3.136714   -2.302945
 H    7.810194    2.024441   -2.212228
 H    8.173850    0.513724   -0.744113
 H    7.200831   -1.474258    1.042602
 H    8.948186   -2.379183   -1.305729
 H    7.271543   -2.865828   -1.017736
 H    8.542144   -3.366602    0.105574
 H   10.559217   -1.268794    2.385494
 H    9.162895   -2.288718    2.315176
