77 
4gr3_ligand_dft.xyz
 O    2.665131   -1.715105    1.841384
 N   -3.740017   -2.728781    1.625349
 O   -2.388259   -3.015950    1.684469
 C    1.797599   -1.551600    0.983089
 C    0.326203   -1.790035    1.322095
 C   -0.342928   -2.831084    0.387077
 C   -2.773233   -2.346745   -0.381681
 C   -3.966561   -2.324361    0.395910
 C   -5.295417   -1.851620   -0.022207
 C   -5.637284   -1.831547   -1.375513
 C   -6.869172   -1.329958   -1.782338
 C   -7.768651   -0.844627   -0.838789
 C   -7.436412   -0.871995    0.514283
 C   -6.206834   -1.370558    0.922844
 C   -1.825694   -2.772200    0.487313
 C   -0.431008   -0.445188    1.446055
 P   -0.737512    0.518275   -0.095786
 O    0.057531    1.891701    0.107728
 O   -0.401577   -0.248358   -1.344394
 C   -2.456939    1.064837   -0.064031
 C   -3.193224    1.011599   -1.247912
 C   -4.512548    1.449365   -1.279300
 C   -5.089489    1.936137   -0.113224
Br   -6.869733    2.574322   -0.152265
 C   -4.378706    1.981594    1.081360
 C   -3.058525    1.549047    1.099340
 N    2.057221   -1.143938   -0.279342
 C    3.365382   -0.702858   -0.683028
 C    3.597826    0.779872   -0.346518
 O    2.730287    1.531170    0.100320
 C    3.627522   -1.019791   -2.170655
 C    4.245539   -2.405572   -2.359495
 C    5.541995   -2.594058   -1.592696
 O    6.214962   -1.431820   -1.439217
 O    5.937437   -3.644275   -1.158828
 N    4.867304    1.176497   -0.537293
 C    5.372862    2.454919   -0.092752
 C    6.692023    2.690717   -0.830849
 O    7.355993    1.763033   -1.262516
 C    5.604143    2.489969    1.436546
 C    6.481804    1.339490    1.955084
 C    5.787961   -0.005992    1.873015
 O    4.611552    0.017453    2.489005
 O    6.237477   -0.982889    1.306443
 N    7.092208    3.984971   -0.900739
 H    0.345745   -2.211268    2.329942
 H   -0.089672   -2.643000   -0.656800
 H    0.029678   -3.826235    0.651577
 H   -2.618320   -2.020046   -1.397554
 H   -4.938140   -2.211806   -2.114916
 H   -7.124295   -1.316825   -2.837842
 H   -8.723465   -0.436699   -1.155801
 H   -8.133042   -0.485316    1.251645
 H   -5.933530   -1.378498    1.972931
 H    0.121787    0.203274    2.134048
 H   -1.401407   -0.643150    1.912745
 H    1.039890    1.755105    0.088884
 H   -2.726447    0.623084   -2.147897
 H   -5.089500    1.406650   -2.195679
 H   -4.849476    2.360776    1.981236
 H   -2.500454    1.601709    2.029985
 H    1.262077   -0.908236   -0.881048
 H    4.084609   -1.248633   -0.063148
 H    4.293329   -0.268107   -2.600270
 H    2.682901   -0.953734   -2.721581
 H    4.448530   -2.586119   -3.421703
 H    3.567759   -3.195836   -2.025322
 H    6.887667   -1.559953   -0.746617
 H    5.559873    0.513174   -0.881806
 H    4.642927    3.228972   -0.352111
 H    4.628183    2.452413    1.926721
 H    6.069331    3.447439    1.696067
 H    7.425212    1.266544    1.409010
 H    6.710394    1.528591    3.009796
 H    4.087498   -0.798364    2.291794
 H    7.961112    4.191110   -1.370086
 H    6.491892    4.750118   -0.639286
