61 
4gsy_ligand_xtb.xyz
 C    3.521584    3.951650   -1.267696
 C    3.899690   -3.056548   -0.051342
 C    2.356954    4.045512   -0.518550
 C    2.557703   -3.214047   -0.348383
 C    4.200269    2.752941   -1.380116
 C    2.459612   -0.916372   -1.038631
 C    2.628733    1.730952    0.121332
 C    4.523148   -1.821869   -0.185294
 C    1.831397   -2.138243   -0.844168
 C    1.925067    2.926432    0.173874
 C    3.742046    1.624587   -0.701920
 C    3.793387   -0.728597   -0.677995
 C   -4.668389    0.797774   -0.205105
 C   -5.969943    0.928111   -0.506325
 C   -6.799105   -0.273306   -0.610159
 C   -4.768583   -1.599027   -0.067037
 C    5.942246   -1.637561    0.246637
 C   -1.022635   -1.080426    2.201018
 C   -2.501646   -0.976977    1.847164
 C   -0.315125   -1.994019    1.211727
 C   -1.860853   -1.364137   -0.557780
 C   -2.654089   -0.465852    0.410140
 C   -6.638412    2.239386   -0.742213
 C    0.358402   -2.245332   -1.143863
 C    0.642644    2.894193    0.944748
 N   -6.085108   -1.453506   -0.373870
 N   -4.049565   -0.417232    0.007145
 N   -0.439136   -1.450144   -0.164251
 O   -7.972953   -0.312903   -0.869634
 O   -4.249997   -2.683493    0.113552
 O    6.409877   -0.596539    0.616420
 O    6.624464   -2.782530    0.206984
 O    4.426515    0.455292   -0.851247
 F   -0.154726    1.874551    0.458751
 F    0.792514    2.586517    2.239010
 F   -0.093716    3.991489    0.867597
 H    3.887003    4.820933   -1.790206
 H    4.475877   -3.890209    0.315979
 H    1.799925    4.967075   -0.469345
 H    2.083714   -4.172386   -0.206329
 H    5.086740    2.667340   -1.987231
 H    1.918846   -0.094886   -1.488669
 H    2.309905    0.893417    0.725251
 H   -4.027568    1.662927   -0.113246
 H   -0.910676   -1.490729    3.203602
 H   -0.562657   -0.090534    2.198014
 H   -3.006968   -0.295411    2.530581
 H   -2.975289   -1.955587    1.929118
 H    0.745221   -2.089969    1.452996
 H   -0.774658   -2.984649    1.222204
 H   -1.933441   -0.964170   -1.571676
 H   -2.298355   -2.366468   -0.534831
 H   -2.265210    0.556255    0.348027
 H   -5.938775    3.063900   -0.645431
 H   -7.082284    2.250986   -1.736108
 H   -7.452918    2.367561   -0.031533
 H    0.150151   -1.860371   -2.145088
 H    0.024040   -3.282714   -1.091039
 H   -6.620805   -2.314756   -0.428276
 H   -0.060161   -0.494019   -0.145322
 H    7.540511   -2.644326    0.498191
