90 
4gtm_ligand_xtb.xyz
 C    9.014587    2.189722    3.046038
 C    7.704856    2.255224    2.268541
 C    7.170351    0.878804    1.870604
 C    8.090398    0.069215    0.953437
 C    8.449287    0.752573   -0.367416
 C    7.235121    1.068148   -1.244204
 N    6.488225   -0.120731   -1.582965
 C    5.275994   -0.394692   -1.072452
 O    4.599593    0.353352   -0.407773
 O    4.886249   -1.642522   -1.459664
 C    3.684582   -2.110907   -0.939991
 C    2.685645   -2.504301   -1.818943
 C    1.473334   -2.940528   -1.319533
 C    3.492084   -2.199285    0.429782
 C    2.275730   -2.641881    0.917100
 C    1.246614   -2.992764    0.052482
 C   -0.125341   -3.316181    0.558626
 C   -1.013776   -2.051469    0.485872
 C   -0.634452   -1.048091    1.575595
 N   -1.274359    0.239619    1.409663
 C   -0.390110    1.395677    1.291245
 C   -0.426047    2.078260   -0.039016
 C   -1.131958    3.165364   -0.487562
 N   -0.795467    3.453026   -1.768792
 C    0.102994    2.564602   -2.100029
 N    0.370512    1.704654   -1.096124
 C    1.349607    0.655652   -1.136410
 C   -2.601815    0.394936    1.747833
 C   -3.141218    1.688261    1.863952
 C   -4.433250    1.923763    2.265558
 C   -5.266308    0.852776    2.580299
 C   -6.586632    1.063643    3.022231
 N   -7.660755    1.239097    3.386877
 C   -4.770451   -0.437971    2.412715
 C   -3.479092   -0.691220    1.984972
 C   -3.160302   -2.156819    1.745061
 N   -2.403815   -2.423079    0.554691
 S   -3.233974   -2.483205   -0.889459
 O   -4.432950   -3.227099   -0.645963
 O   -2.293286   -2.971260   -1.859007
 C   -3.653058   -0.796875   -1.291013
 C   -4.821698   -0.247762   -0.791577
 C   -5.119060    1.070975   -1.051157
 C   -4.259679    1.849438   -1.838310
 O   -4.636017    3.127987   -2.033039
 C   -3.862299    3.951401   -2.887023
 C   -3.109642    1.268640   -2.373479
 C   -2.805040   -0.048798   -2.081115
 H    8.911095    1.537450    3.910649
 H    9.294911    3.180256    3.397295
 H    9.822634    1.811760    2.424850
 H    7.838444    2.875753    1.380728
 H    6.950146    2.741867    2.890811
 H    7.008632    0.294150    2.780177
 H    6.198579    1.002637    1.389494
 H    9.017074   -0.161533    1.481848
 H    7.599158   -0.883039    0.735955
 H    9.124295    0.097188   -0.924797
 H    8.982323    1.683419   -0.174358
 H    6.544670    1.734325   -0.725793
 H    7.566556    1.553810   -2.167974
 H    6.962943   -0.860032   -2.077461
 H    2.865775   -2.451907   -2.881300
 H    0.678303   -3.225085   -1.992793
 H    4.282329   -1.906352    1.103735
 H    2.128009   -2.711496    1.985242
 H   -0.597287   -4.065977   -0.075914
 H   -0.096659   -3.684532    1.584797
 H   -0.858816   -1.591361   -0.496879
 H    0.447057   -0.910612    1.528419
 H   -0.866069   -1.462295    2.562927
 H    0.632256    1.054295    1.470865
 H   -0.624123    2.127250    2.072545
 H   -1.854448    3.769852    0.022887
 H    0.583800    2.513422   -3.056828
 H    0.922553   -0.289664   -0.803869
 H    1.692525    0.538166   -2.162938
 H    2.217948    0.892155   -0.515422
 H   -2.533416    2.541349    1.630129
 H   -4.800210    2.935945    2.343551
 H   -5.425873   -1.273869    2.613041
 H   -2.657746   -2.610857    2.606564
 H   -4.099129   -2.696262    1.601078
 H   -5.491211   -0.870920   -0.221664
 H   -6.018126    1.526894   -0.668461
 H   -3.876464    3.570712   -3.912625
 H   -4.344322    4.926834   -2.858982
 H   -2.827710    4.039540   -2.542397
 H   -2.451299    1.837586   -3.008402
 H   -1.924356   -0.516489   -2.493528
