78 
4gtp_ligand_dft.xyz
 C   -5.874505   -0.951421   -2.255120
 O   -5.584935   -1.634857   -1.050540
 C   -4.292965   -1.892860   -0.754958
 C   -3.220727   -1.620511   -1.611113
 C   -1.927120   -1.910519   -1.199380
 C   -4.060449   -2.468676    0.499703
 C   -2.767803   -2.756543    0.904052
 C   -1.702140   -2.469988    0.052509
 S   -0.033019   -2.739794    0.600437
 O    0.700385   -3.542924   -0.367798
 O   -0.109782   -3.171169    1.991215
 N    0.580648   -1.201844    0.484917
 C   -0.018187   -0.172036    1.332499
 C   -0.710509    0.856193    0.480133
 C   -2.094054    0.951677    0.473561
 C   -2.761381    1.852544   -0.361244
 C   -4.219548    1.914733   -0.376314
 O   -4.880792    1.057283    0.448644
 C   -5.127844    2.669504   -1.061146
 C   -6.420897    2.252808   -0.616553
 C   -6.215878    1.270212    0.298727
 C   -7.101838    0.412344    1.136915
 O   -6.943663    0.639433    2.524957
 C   -1.994205    2.668524   -1.194277
 C   -0.608495    2.574243   -1.202300
 C    0.058196    1.670089   -0.368020
 N    1.474898    1.527491   -0.350927
 C    2.210052    2.702189   -0.832840
 C    3.600064    2.802340   -0.302300
 C    4.820112    2.824928   -0.928306
 N    5.831956    3.048454   -0.031421
 C    5.227518    3.162581    1.129069
 N    3.878228    3.017625    1.032124
 C    2.909030    3.140404    2.102037
 C    1.961602    0.270491   -0.945706
 C    1.919566   -0.977866   -0.049674
 C    3.004305   -0.985124    1.047011
 C    4.374556   -1.237737    0.467704
 C    4.684243   -2.467667   -0.126202
 C    5.922573   -2.691440   -0.709192
 C    6.881897   -1.675801   -0.714440
 O    8.075950   -1.943909   -1.311640
 C    6.593764   -0.448069   -0.124139
 C    5.349126   -0.246473    0.463298
 H   -5.366118    0.019242   -2.292260
 H   -5.596845   -1.553694   -3.128842
 H   -6.952580   -0.790928   -2.253472
 H   -3.377998   -1.165210   -2.580947
 H   -1.088095   -1.670379   -1.844472
 H   -4.909466   -2.678277    1.141756
 H   -2.572107   -3.191071    1.878394
 H    0.767482    0.289611    1.941281
 H   -0.722443   -0.637578    2.025936
 H   -2.673359    0.292504    1.113045
 H   -4.907143    3.439689   -1.786137
 H   -7.378881    2.640622   -0.932344
 H   -8.142735    0.644663    0.900585
 H   -6.923507   -0.642581    0.883287
 H   -6.026801    0.434134    2.744761
 H   -2.478279    3.373952   -1.863415
 H   -0.051205    3.203077   -1.888113
 H    2.266286    2.737673   -1.933115
 H    1.647564    3.587226   -0.515293
 H    5.018260    2.683292   -1.982467
 H    5.712747    3.336087    2.080921
 H    2.408841    4.113524    2.065066
 H    2.160908    2.351474    2.002982
 H    3.421487    3.040280    3.060636
 H    1.408673    0.061983   -1.873901
 H    3.012976    0.421972   -1.210021
 H    2.117777   -1.820998   -0.715250
 H    3.001500   -0.029886    1.586115
 H    2.741625   -1.767621    1.768637
 H    3.940857   -3.262329   -0.132560
 H    6.163700   -3.644485   -1.168298
 H    8.640371   -1.164711   -1.242459
 H    7.318742    0.362966   -0.129279
 H    5.140306    0.711121    0.926710
