84 
4gtr_ligand_dft.xyz
 C   -8.670344   -0.966652    0.876000
 C   -8.103142   -0.186443   -0.306189
 N   -7.005298    0.696534    0.077340
 C   -7.312714    2.073741    0.450231
 C   -7.297124    3.017915   -0.747914
 C   -5.711200    0.307352    0.107151
 O   -4.770589    1.016813    0.410351
 O   -5.587872   -1.007301   -0.252270
 C   -4.317553   -1.560015   -0.263477
 C   -3.584915   -1.695570    0.910862
 C   -2.336493   -2.299779    0.860857
 C   -3.832913   -2.044633   -1.468626
 C   -2.581073   -2.656139   -1.502304
 C   -1.811438   -2.778192   -0.345774
 C   -0.397052   -3.303346   -0.367923
 C    0.608315   -2.131321   -0.335623
 C    0.743710   -1.471526   -1.704927
 N    1.466910   -0.209337   -1.685649
 C    0.798996    0.928586   -2.329247
 C    0.381859    2.053375   -1.433656
 C    0.869191    3.329070   -1.299642
 N    0.132259    4.049326   -0.398359
 C   -0.802645    3.217095    0.004117
 N   -0.708506    1.999388   -0.588307
 C   -1.602602    0.882501   -0.355828
 C    2.851708   -0.194351   -1.555006
 C    3.551811    1.011766   -1.759024
 C    4.930873    1.083261   -1.714139
 C    5.680888   -0.060947   -1.448767
 C    7.111179   -0.010351   -1.394180
 N    8.269571    0.031923   -1.348598
 C    5.000182   -1.249012   -1.174329
 C    3.615606   -1.342039   -1.199213
 C    3.030332   -2.666496   -0.718695
 N    1.906662   -2.546141    0.196232
 S    2.217604   -2.167190    1.797917
 O    0.938559   -2.329393    2.476475
 O    3.392250   -2.936765    2.171194
 C    2.648960   -0.448855    1.849400
 C    1.651904    0.520827    1.853283
 C    1.985928    1.867621    1.774508
 C    3.331488    2.239979    1.692365
 O    3.764414    3.511792    1.603554
 C    2.820829    4.558829    1.772255
 C    4.332430    1.257837    1.712197
 C    3.994691   -0.078541    1.786977
 H   -9.014376   -0.289381    1.664746
 H   -9.519573   -1.579906    0.557838
 H   -7.906378   -1.627398    1.295489
 H   -8.877175    0.444250   -0.756170
 H   -7.754404   -0.870316   -1.081391
 H   -8.296755    2.071975    0.931135
 H   -6.581108    2.394465    1.193785
 H   -8.017272    2.702531   -1.510560
 H   -7.553837    4.035792   -0.437492
 H   -6.300221    3.035507   -1.197247
 H   -3.984943   -1.314790    1.843775
 H   -1.741876   -2.388457    1.767124
 H   -4.433522   -1.940064   -2.366167
 H   -2.198037   -3.036991   -2.446270
 H   -0.207333   -3.914225    0.517589
 H   -0.216972   -3.931372   -1.249652
 H    0.200267   -1.373749    0.336065
 H   -0.272524   -1.268773   -2.046821
 H    1.174551   -2.167329   -2.438144
 H    1.440686    1.339736   -3.116264
 H   -0.080934    0.535499   -2.847522
 H    1.711915    3.773665   -1.813445
 H   -1.585931    3.440279    0.716678
 H   -1.836687    0.376487   -1.295701
 H   -2.543639    1.235294    0.068457
 H   -1.155601    0.159473    0.328611
 H    3.009792    1.931446   -1.916187
 H    5.425009    2.035942   -1.871887
 H    5.576065   -2.127722   -0.896969
 H    2.714599   -3.310117   -1.545234
 H    3.808711   -3.221561   -0.192167
 H    0.610774    0.230528    1.947691
 H    1.198916    2.611876    1.762193
 H    2.335984    4.487419    2.753949
 H    3.396338    5.483516    1.721175
 H    2.056064    4.555105    0.988701
 H    5.369489    1.570983    1.662558
 H    4.764940   -0.840879    1.803669
