85 
4gtt_ligand_dft.xyz
 C   -5.497180   -3.305930    3.118335
 O   -4.248547   -2.669790    3.307638
 C   -4.105222   -1.403429    2.862754
 C   -2.824731   -0.851740    3.008524
 C   -2.558143    0.419618    2.533298
 C   -5.132100   -0.647154    2.290188
 C   -4.859695    0.631161    1.820942
 C   -3.575203    1.152586    1.919697
 S   -3.198426    2.689653    1.117552
 O   -4.428711    3.456782    1.023414
 O   -1.994700    3.226801    1.734842
 N   -2.764768    2.302975   -0.445972
 C   -3.813965    1.977429   -1.404090
 C   -4.371784    0.556107   -1.343441
 C   -5.744931    0.412922   -1.485424
 C   -6.382665   -0.824339   -1.356265
 C   -7.806113   -0.926816   -1.475020
 N   -8.959855   -1.014841   -1.559695
 C   -5.607290   -1.955606   -1.086377
 C   -4.237458   -1.840190   -0.957698
 C   -3.585683   -0.596037   -1.073635
 N   -2.221690   -0.507929   -0.903205
 C   -1.447453   -1.489905   -0.159289
 C   -0.577154   -2.353219   -1.020837
 C   -0.872167   -3.286765   -1.983170
 N    0.268121   -3.790639   -2.548083
 C    1.246542   -3.164831   -1.935516
 N    0.802855   -2.279362   -1.005089
 C    1.632842   -1.429930   -0.171495
 C   -1.453860    0.543111   -1.531787
 C   -1.404219    1.805137   -0.675182
 C   -0.491274    2.890935   -1.270221
 C    0.957208    2.466772   -1.228296
 C    1.613214    1.972346   -2.356154
 C    2.930243    1.527975   -2.282520
 C    1.656028    2.508147   -0.016391
 C    2.973947    2.075817    0.071520
 C    3.599322    1.585196   -1.069175
 O    4.933724    1.207586   -1.059478
 C    5.309891    0.174548   -0.249394
 O    4.563635   -0.439390    0.483988
 N    6.635622   -0.044487   -0.393498
 C    7.309079   -1.144327    0.272186
 C    8.741940   -0.797687    0.606454
 C    9.048211    0.388159    1.278899
 C   10.365125    0.696277    1.600613
 C   11.393045   -0.179693    1.257077
 C   11.096017   -1.362284    0.588143
 C    9.776420   -1.665896    0.262025
 H   -5.761869   -3.348987    2.054512
 H   -6.295466   -2.798187    3.672767
 H   -5.377263   -4.317856    3.505283
 H   -2.055795   -1.446234    3.490300
 H   -1.571075    0.855651    2.647610
 H   -6.134256   -1.043717    2.184180
 H   -5.647895    1.219778    1.365661
 H   -3.423373    2.211252   -2.400044
 H   -4.629581    2.682332   -1.233512
 H   -6.350408    1.297576   -1.663803
 H   -6.080749   -2.928098   -0.997059
 H   -3.654603   -2.738112   -0.787709
 H   -2.127721   -2.084807    0.452040
 H   -0.822718   -0.945445    0.560963
 H   -1.851871   -3.612633   -2.308331
 H    2.303178   -3.311274   -2.117574
 H    1.480404   -1.652981    0.887941
 H    1.420770   -0.371516   -0.349563
 H    2.682699   -1.602482   -0.404382
 H   -1.848727    0.751543   -2.531548
 H   -0.436554    0.175494   -1.693244
 H   -0.982146    1.520579    0.294430
 H   -0.802313    3.111181   -2.299165
 H   -0.639300    3.800202   -0.681186
 H    1.089948    1.930031   -3.308030
 H    3.443597    1.143573   -3.157452
 H    1.157594    2.894361    0.869706
 H    3.510875    2.111502    1.012362
 H    7.132709    0.488678   -1.091037
 H    7.278808   -2.049116   -0.348960
 H    6.737233   -1.360702    1.179489
 H    8.247863    1.072686    1.547717
 H   10.590161    1.621490    2.122735
 H   12.421783    0.060940    1.507498
 H   11.890861   -2.048856    0.312690
 H    9.550121   -2.589007   -0.266204
