52 
4gue_ligand_dft.xyz
 O    4.341765   -2.752555   -0.929141
 C    3.208299   -2.013489   -0.516986
 C    1.970924   -2.896761   -0.421098
 O    2.343059   -3.984931    0.410250
 C    3.476679   -1.325219    0.819728
 O    4.574137   -0.446912    0.689874
 C    2.250068   -0.521808    1.237408
 C    2.395909    0.143159    2.589189
 O    1.115012   -1.394573    1.319774
 C    0.795604   -2.117387    0.182667
 O    0.327744   -1.286889   -0.886201
 C   -0.840679   -0.624539   -0.642489
 C   -2.071240   -1.390446   -0.487984
 O   -2.091122   -2.633150   -0.561927
 C   -0.852857    0.731995   -0.575126
 C    0.329518    1.598224   -0.697401
 C    0.502878    2.637564    0.224940
 C    1.663553    3.392115    0.210988
 O    1.844583    4.376831    1.121296
 C    2.655888    3.117708   -0.742825
 O    3.763448    3.910820   -0.662325
 C    2.469287    2.115042   -1.682639
 C    1.306346    1.351078   -1.661995
 O   -1.988589    1.431177   -0.340317
 C   -3.173490    0.797706   -0.142361
 C   -4.270663    1.599425    0.124466
 C   -5.498517    0.970300    0.321604
 O   -6.555002    1.771044    0.582512
 C   -5.633475   -0.420425    0.253278
 C   -4.521697   -1.207735   -0.015505
 C   -3.253992   -0.599813   -0.218255
 O   -4.661230   -2.531715   -0.075951
 H    4.294267   -3.585232   -0.434660
 H    3.043138   -1.238332   -1.272722
 H    1.680030   -3.248583   -1.418406
 H    1.663401   -4.666044    0.353022
 H    3.674093   -2.093491    1.584628
 H    5.247598   -0.955533    0.215812
 H    2.074110    0.241390    0.473549
 H    3.250115    0.824471    2.571927
 H    1.492552    0.712554    2.825873
 H    2.553672   -0.607090    3.370940
 H   -0.003618   -2.799288    0.482538
 H   -0.246353    2.845850    0.980542
 H    2.725874    4.751565    0.978924
 H    4.463177    3.559922   -1.225199
 H    3.237140    1.919922   -2.426785
 H    1.173097    0.549500   -2.377951
 H   -4.178587    2.676462    0.178025
 H   -7.345543    1.230622    0.702641
 H   -6.592623   -0.905259    0.407516
 H   -3.766045   -2.906740   -0.270599
