25 
4gui_ligand_xtb.xyz
 C   -0.998459   -0.143444   -0.133426
 O   -0.943559   -0.583214   -1.475563
 C   -0.346587   -1.210872    0.755614
 O    1.439627   -1.889705   -0.770270
 C    1.153779   -1.331899    0.492369
 O    3.221349   -0.089327    0.297179
 C    1.856804    0.034063    0.619765
 O    1.819792    2.326745   -0.151175
 C    1.197069    1.075060   -0.301373
 O   -3.237835    0.413745   -0.707834
 C   -0.285388    1.213363    0.036994
 O   -2.823270    0.043339    1.453301
 C   -2.441108    0.088242    0.317939
 H   -1.537441   -0.038706   -2.006622
 H   -0.818636   -2.173530    0.549960
 H   -0.527094   -0.949269    1.797386
 H    0.761481   -1.579478   -1.387965
 H    1.600831   -2.016733    1.224072
 H    3.279090   -0.755689   -0.404469
 H    1.806623    0.393283    1.653731
 H    2.762870    2.157351   -0.021262
 H    1.304956    0.737720   -1.346974
 H   -4.139666    0.586733   -0.394269
 H   -0.730755    1.960990   -0.622410
 H   -0.387745    1.557581    1.066429
