55 
4gxs_ligand_dft.xyz
 O   -6.095378    0.090222   -0.609338
 C   -5.286389   -0.629260   -0.072709
 O   -5.629099   -1.827794    0.440856
 C   -3.826039   -0.286590    0.151635
 N   -2.970856   -1.469580    0.109614
 C   -1.841482   -1.399800    0.982436
 C   -0.615853   -1.884000    0.663691
 C    0.467684   -1.850297    1.645638
 C    1.735116   -2.191388    1.282032
Cl    3.038799   -1.995151    2.479306
 C    2.122156   -2.622485   -0.007726
 O    3.459572   -2.625032   -0.393413
 C    1.064695   -2.746646   -0.926201
Cl    1.471156   -3.304949   -2.543324
 C   -0.243346   -2.408133   -0.652343
 O   -2.027558   -0.750542    2.201671
 C   -3.419885    0.810906   -0.844042
 C   -1.931982    1.108595   -0.903713
 C   -1.566438    2.222998   -1.897604
 C   -0.228435    2.791086   -1.388810
 N   -1.361990    1.566816    0.383512
 C   -0.050233    2.176041    0.036498
 C    0.232513    3.191398    1.138393
 O    1.079315    3.103402    1.997080
 O   -0.647466    4.205135    1.109899
 C    1.012374    1.039245    0.048046
 O    0.988873    0.304222   -1.152422
 C    2.506107    1.452941    0.221626
 N    3.292324    0.205132   -0.017273
 C    2.976265    2.558410   -0.708566
 O    2.548775    3.681258   -0.687716
 O    3.955006    2.151957   -1.538994
 H   -6.578179   -1.933313    0.268097
 H   -3.803240    0.140925    1.168602
 H   -3.532433   -2.289129    0.321591
 H    0.236325   -1.581642    2.668616
 H    3.797381   -3.529103   -0.365314
 H   -1.016993   -2.583583   -1.390090
 H   -3.727660    0.511355   -1.852007
 H   -3.981548    1.724720   -0.609627
 H   -1.425368    0.183874   -1.180355
 H   -1.494607    1.850159   -2.922816
 H   -2.343264    2.996922   -1.877562
 H    0.591073    2.487948   -2.039826
 H   -0.234369    3.880717   -1.342438
 H   -1.962383    2.327248    0.706015
 H   -1.683434    0.149441    2.046647
 H   -0.435407    4.779194    1.863610
 H    0.780869    0.389558    0.900154
 H    0.495848   -0.542992   -1.028050
 H    2.665888    1.796654    1.243524
 H    2.773258   -0.341747   -0.730918
 H    4.232465    0.385263   -0.372082
 H    3.359396   -0.389481    0.822255
 H    4.203515    2.911378   -2.091331
