55 
4gxs_ligand_xtb.xyz
 O    1.974215    4.042337   -1.493188
 C    1.388998    3.745521   -0.479371
 O    1.649287    4.346644    0.704291
 C    0.380239    2.637798   -0.345942
 N    0.914403    1.596463    0.561835
 C    1.281815    0.360099    0.030106
 C    2.545559   -0.194316   -0.016897
 C    2.740573   -1.536677   -0.456204
 C    3.982371   -2.109377   -0.446526
Cl    4.171937   -3.743727   -0.978824
 C    5.123311   -1.422917   -0.015007
 O    6.345359   -2.032482   -0.012888
 C    4.929614   -0.102393    0.397812
Cl    6.339380    0.790213    0.917851
 C    3.706354    0.513203    0.409520
 O    0.181429   -0.371800   -0.469499
 C   -0.973683    3.130853    0.206157
 C   -1.858892    1.936498    0.521415
 C   -3.211720    2.210418    1.174217
 C   -3.884977    0.845508    1.025936
 N   -2.195635    1.159435   -0.681705
 C   -3.314505    0.275691   -0.297936
 C   -4.340089    0.234313   -1.425348
 O   -4.377825   -0.633892   -2.263189
 O   -5.118382    1.312543   -1.452490
 C   -2.710945   -1.144774   -0.181674
 O   -1.803899   -1.262544    0.888468
 C   -3.766470   -2.298516   -0.013393
 N   -3.061543   -3.335576    0.776663
 C   -5.039736   -1.879444    0.688690
 O   -5.891022   -1.151159    0.201691
 O   -5.141291   -2.420503    1.952845
 H    2.352334    5.002474    0.583028
 H    0.236521    2.207593   -1.342971
 H    1.589962    1.969107    1.211994
 H    1.891094   -2.097902   -0.806380
 H    6.994242   -1.384440    0.297642
 H    3.635389    1.543922    0.718636
 H   -0.797369    3.691151    1.124244
 H   -1.446889    3.790817   -0.523394
 H   -1.289921    1.272494    1.182348
 H   -3.127366    2.522100    2.211996
 H   -3.758854    2.970639    0.614428
 H   -3.589802    0.193778    1.848727
 H   -4.967932    0.916236    0.989377
 H   -2.489866    1.797829   -1.416658
 H   -0.430522    0.271805   -0.875615
 H   -5.775103    1.228502   -2.161203
 H   -2.190186   -1.325956   -1.130717
 H   -0.904457   -0.942238    0.545721
 H   -4.040862   -2.635727   -1.016181
 H   -2.221358   -2.721671    1.119500
 H   -3.653894   -3.601401    1.572022
 H   -2.758797   -4.143725    0.236553
 H   -5.959208   -2.100006    2.354234
