39 
4gz3_ligand_xtb.xyz
 N   -1.460553    1.296360    0.754132
 C   -1.388669    2.220424   -0.270051
 N   -0.156901    2.792143   -0.446631
 C    1.005569    2.446646    0.210420
 C    0.785761    1.664976    1.402465
 C   -0.415578    1.095796    1.599224
 O   -2.353233    2.522621   -0.940483
 O    2.095221    2.819844   -0.201552
 C   -2.672196    0.467959    0.865552
 C   -3.108171   -0.084135   -0.522874
 O   -4.292249    0.488798   -0.983474
 C   -3.298006   -1.589635   -0.254490
 C   -2.377498   -1.826103    0.953983
 O   -2.451065   -0.620453    1.703979
 O   -4.616356   -1.900190    0.084132
 C   -0.932736   -2.159596    0.548017
 O   -0.500464   -1.129149   -0.330187
 P    0.943096   -0.824399   -0.870631
 O    0.966675    0.443376   -1.580045
 O    1.389873   -2.120225   -1.642469
 O    1.874762   -0.827832    0.461977
 P    3.461030   -0.579391    0.158622
 O    4.118504   -1.293331    1.402537
 O    3.825496   -1.175751   -1.132877
 O    3.756590    0.909356    0.446755
 H   -0.050856    3.346534   -1.290307
 H    1.610752    1.492700    2.070980
 H   -0.627168    0.438270    2.429404
 H   -3.472703    1.088823    1.295869
 H   -2.291850    0.048426   -1.240292
 H   -4.078919    1.400393   -1.239814
 H   -2.977347   -2.182691   -1.121057
 H   -2.774250   -2.618188    1.594350
 H   -5.181282   -1.224252   -0.319383
 H   -0.290330   -2.185449    1.431484
 H   -0.897036   -3.124958    0.037552
 H    2.341346   -2.018987   -1.833421
 H    4.652534   -2.034021    1.118942
 H    3.196506    1.656245    0.093484
