39 
4gz3_ligand_dft.xyz
 N   -1.481170    1.364709    0.733691
 C   -1.422289    2.247769   -0.329387
 N   -0.188648    2.841281   -0.514623
 C    0.971909    2.548562    0.184433
 C    0.745972    1.848488    1.425724
 C   -0.442191    1.248375    1.620412
 O   -2.374862    2.479591   -1.057883
 O    2.071253    2.881403   -0.260393
 C   -2.668498    0.476276    0.853902
 C   -3.086855   -0.138692   -0.508653
 O   -4.283589    0.390451   -1.003214
 C   -3.288098   -1.620566   -0.158774
 C   -2.310447   -1.821372    0.999806
 O   -2.343834   -0.578202    1.712327
 O   -4.586551   -1.845397    0.323078
 C   -0.889578   -2.191732    0.587840
 O   -0.491451   -1.277297   -0.431884
 P    0.939420   -0.917594   -0.995693
 O    0.903251    0.304609   -1.808086
 O    1.467295   -2.266192   -1.650626
 O    1.841437   -0.772501    0.363842
 P    3.458533   -0.547473    0.230817
 O    4.019343   -1.226918    1.560694
 O    3.932217   -1.170811   -1.027460
 O    3.721352    0.957951    0.544714
 H   -0.071569    3.304259   -1.408243
 H    1.569070    1.708747    2.111711
 H   -0.641513    0.605609    2.466340
 H   -3.492869    1.050328    1.285663
 H   -2.275718   -0.041561   -1.231854
 H   -4.070089    1.297400   -1.275400
 H   -3.055192   -2.269394   -1.014437
 H   -2.685747   -2.586148    1.684932
 H   -5.162555   -1.231345   -0.157492
 H   -0.213473   -2.111513    1.444456
 H   -0.859475   -3.210830    0.189299
 H    2.433832   -2.169842   -1.805415
 H    4.422952   -2.080512    1.353095
 H    3.155335    1.672740    0.124327
