130 
4gzf_ligand_xtb.xyz
 N    0.278509   -4.600540   -1.900276
 C   -0.439273   -4.404863   -0.639992
 C    0.433704   -3.585883    0.333438
 C    1.179930   -4.455221    1.345001
 C    2.173015   -5.437626    0.716642
 N    3.410752   -4.806175    0.300054
 C    3.773048   -4.491871   -0.928122
 C    5.156412   -3.984071   -1.147472
 N    2.976917   -4.644427   -1.952695
 C   -1.727464   -3.617420   -0.902741
 O   -1.769680   -2.747647   -1.756746
 N   -2.786094   -3.933208   -0.145067
 C   -4.029790   -3.210206   -0.329444
 C   -3.688603   -1.725001   -0.425527
 O   -2.976579   -1.192711    0.429687
 C   -5.040220   -3.473338    0.807621
 C   -5.650062   -4.865719    0.661131
 C   -4.422280   -3.289132    2.192163
 N   -4.240004   -1.077507   -1.451039
 C   -4.205162    0.364515   -1.709537
 C   -2.767555    0.881564   -1.878680
 C   -5.040195    1.111485   -0.661503
 C   -6.513881    0.672733   -0.621658
 C   -7.198320    1.347456    0.566133
 C   -7.251482    1.021049   -1.911659
 N   -2.004078    0.971334   -0.611632
 C   -2.084333    2.278684    0.106731
 C   -1.114010    3.159923   -0.699322
 O   -1.478229    3.646815   -1.748117
 C   -1.772950    2.072436    1.588226
 C   -1.683839    3.393158    2.315382
 C   -2.806577    4.203075    2.429853
 C   -0.485963    3.818372    2.873225
 C   -2.729046    5.422484    3.077836
 C   -0.408114    5.037545    3.524254
 C   -1.527994    5.844474    3.622661
 N    0.148549    3.211541   -0.238415
 C    1.244986    3.284512   -1.177770
 C    1.522969    1.823678   -1.585362
 O    0.716430    0.932843   -1.319995
 C    2.440605    4.034452   -0.567124
 C    2.795941    5.314919   -1.320041
 C    3.475931    5.065651   -2.643436
 O    3.689303    6.181772   -3.306484
 O    3.808566    3.975312   -3.056558
 N    2.688671    1.597590   -2.183254
 C    3.096265    0.256838   -2.555800
 C    3.031333   -0.672920   -1.340897
 O    2.793057   -1.864080   -1.441634
 C    4.515969    0.293587   -3.111836
 N    3.355724   -0.091429   -0.171458
 C    3.154163   -0.736762    1.104581
 C    1.917392   -0.152706    1.773186
 O    1.337987   -1.017069    2.594634
 O    1.510317    0.966260    1.589102
 C    4.382154   -0.544613    2.012502
 C    4.386015   -1.488818    3.212710
 C    5.661901   -1.365547    4.049074
 C    5.780567   -0.029952    4.772880
 H    0.187478   -3.729275   -2.426020
 H   -0.166090   -5.326486   -2.455673
 H    1.928864   -4.734173   -1.867511
 H   -0.680519   -5.379620   -0.205752
 H    1.132490   -2.990923   -0.256948
 H   -0.202294   -2.892647    0.886726
 H    1.706191   -3.807177    2.048130
 H    0.456816   -5.035044    1.920380
 H    1.724362   -5.940084   -0.139529
 H    2.435840   -6.196181    1.457986
 H    4.083209   -4.646499    1.036856
 H    5.773277   -4.065745   -0.257626
 H    5.099035   -2.938274   -1.445663
 H    5.634549   -4.533778   -1.955722
 H    3.313408   -4.337750   -2.851730
 H   -2.738495   -4.628060    0.581430
 H   -4.479402   -3.530558   -1.279903
 H   -5.840160   -2.734550    0.685949
 H   -4.889172   -5.640505    0.724816
 H   -6.166117   -4.968943   -0.290161
 H   -6.370380   -5.035328    1.456247
 H   -5.210280   -3.243292    2.938232
 H   -3.848132   -2.368026    2.241316
 H   -3.771485   -4.121228    2.452080
 H   -4.780599   -1.622351   -2.103457
 H   -4.679373    0.498824   -2.684999
 H   -2.238617    0.189060   -2.537564
 H   -2.781889    1.867536   -2.349577
 H   -5.011423    2.177642   -0.890528
 H   -4.616316    0.944600    0.330180
 H   -6.554488   -0.412390   -0.470552
 H   -8.234826    1.030805    0.634875
 H   -6.703228    1.091907    1.500575
 H   -7.182428    2.428218    0.449487
 H   -7.168978    2.084474   -2.121711
 H   -6.867413    0.467936   -2.765507
 H   -8.305676    0.779534   -1.810196
 H   -0.992862    0.808185   -0.822436
 H   -2.355173    0.153369   -0.008994
 H   -3.084806    2.694890   -0.013423
 H   -0.839736    1.518251    1.704135
 H   -2.574435    1.469357    2.024952
 H   -3.751744    3.876060    2.021363
 H    0.390838    3.187404    2.816874
 H   -3.608016    6.042320    3.161265
 H    0.527539    5.355870    3.958172
 H   -1.467643    6.794888    4.128883
 H    0.374693    2.713336    0.611503
 H    0.871762    3.806110   -2.067181
 H    2.174311    4.302291    0.455960
 H    3.322735    3.393747   -0.523465
 H    1.910244    5.927053   -1.497023
 H    3.482758    5.922003   -0.725366
 H    4.146497    6.036963   -4.151826
 H    3.235887    2.390866   -2.531738
 H    2.408380   -0.156169   -3.305413
 H    4.816780   -0.695710   -3.444849
 H    5.215373    0.640179   -2.354525
 H    4.559361    0.971108   -3.960245
 H    3.465884    0.912008   -0.143565
 H    2.983269   -1.800093    0.912619
 H    0.587866   -0.624853    3.073267
 H    4.413585    0.491454    2.351870
 H    5.273132   -0.727083    1.407633
 H    4.296960   -2.517852    2.853506
 H    3.523383   -1.287492    3.849167
 H    6.533482   -1.510611    3.407434
 H    5.661267   -2.165787    4.790900
 H    4.899869    0.154228    5.383734
 H    5.899000    0.793880    4.073964
 H    6.648682   -0.039540    5.425457
