47 
4gzt_ligand_xtb.xyz
 C   -2.591877   -1.897350   -0.449441
 O   -2.413760   -3.049957   -1.053200
 O   -3.307404   -1.024512   -0.894412
 C   -1.813770   -1.813619    0.853091
 C   -2.190898   -0.598276    1.707518
 C   -1.803876    0.744940    1.071300
 C   -0.631691    0.579381    0.088383
 N    0.106428    1.811543   -0.135570
 C   -0.376134    2.946193   -0.663359
 O   -1.583648    3.159732   -0.799603
 C    0.653384    3.961558   -1.048347
 C    0.356884   -0.467132    0.639954
 C   -0.291792   -1.863228    0.599325
 O    1.505691   -0.375683   -0.163271
 C    2.676015   -1.082096    0.267078
 C    3.324367   -0.459682    1.514730
 C    3.615159   -1.099737   -0.942040
 C    3.088684   -1.995547   -2.056624
 C    3.655094    1.022362    1.377803
 N   -2.943778    1.329533    0.328513
 H   -2.923164   -3.123143   -1.878599
 H   -2.090550   -2.720574    1.399546
 H   -1.685806   -0.704290    2.667343
 H   -3.264230   -0.608391    1.904463
 H   -1.509016    1.454721    1.851044
 H   -1.014062    0.216104   -0.875437
 H    1.106973    1.644976   -0.182807
 H    1.388089    4.091786   -0.257917
 H    0.167290    4.910004   -1.258178
 H    1.170765    3.629158   -1.946985
 H    0.598021   -0.196215    1.678981
 H   -0.088796   -2.307326   -0.376415
 H    0.176020   -2.495949    1.352252
 H    2.400296   -2.118096    0.508419
 H    2.667844   -0.603111    2.376875
 H    4.238526   -1.018487    1.715107
 H    4.593863   -1.452650   -0.618139
 H    3.721043   -0.082420   -1.318464
 H    3.001202   -3.024000   -1.713645
 H    3.766543   -1.974888   -2.905081
 H    2.111611   -1.652590   -2.387573
 H    4.147184    1.372243    2.281458
 H    4.322545    1.196348    0.539284
 H    2.751959    1.613727    1.236384
 H   -3.683949    1.668087    0.942668
 H   -2.512530    2.169653   -0.257794
 H   -3.320535    0.584556   -0.299737
