60 
4h2j_ligand_dft.xyz
 N   -9.730435   -1.220078    0.915757
 C  -11.041320   -1.703112    0.478364
 C  -10.954720   -1.823375   -1.061924
 N   -9.503069   -1.863206   -1.259215
 C   -8.946853   -1.334202   -0.090041
 C   -7.514724   -0.981823   -0.053851
 C   -7.039170   -0.119089    0.935607
 C   -5.700799    0.239808    0.999463
 C   -6.612609   -1.497100   -0.986493
 C   -5.271504   -1.148932   -0.932983
 C   -4.806748   -0.276893    0.055308
 N   -3.429514    0.020949    0.055682
 C   -2.763615    0.947377    0.806557
 O   -3.237194    1.633064    1.688663
 C   -1.271296    0.973537    0.536107
 C   -0.619610    2.024427   -0.109237
 C    0.758650    2.093133   -0.207571
 N   -1.404869    3.085597   -0.757625
 O   -2.550609    2.810151   -1.078743
 O   -0.854608    4.153280   -0.957279
 C   -0.482220   -0.032759    1.088095
 C    0.904281    0.005945    0.978864
 C    1.533990    1.062985    0.321447
 C    3.028923    1.195804    0.176875
 O    3.546166    2.292589    0.067489
 N    3.709447    0.006799    0.165211
 C    5.098776   -0.209591    0.065618
 C    6.040779    0.825013    0.040585
 C    7.389807    0.513717   -0.047746
 C    5.530107   -1.537745   -0.003110
 C    6.881772   -1.834202   -0.089908
 C    7.830111   -0.809827   -0.107639
 C    9.274673   -1.096206   -0.198336
 N   10.142570   -0.238632   -0.584974
 C   11.437200   -0.921856   -0.571324
 C   11.208400   -2.245083    0.197772
 N    9.751378   -2.375221    0.105894
 H  -11.834507   -1.025844    0.808293
 H  -11.230007   -2.680371    0.941002
 H  -11.398855   -0.949752   -1.558620
 H  -11.434982   -2.725161   -1.450467
 H   -9.159283   -1.467723   -2.124856
 H   -7.742227    0.272092    1.663343
 H   -5.345431    0.918812    1.761546
 H   -6.951692   -2.197436   -1.743982
 H   -4.579261   -1.562432   -1.662797
 H   -2.898822   -0.387368   -0.700439
 H    1.233994    2.937429   -0.692939
 H   -0.961172   -0.842472    1.629826
 H    1.486774   -0.778653    1.453629
 H    3.148670   -0.830811    0.122362
 H    5.712507    1.853463    0.084460
 H    8.129476    1.306896   -0.074484
 H    4.803284   -2.347149    0.003309
 H    7.195667   -2.870309   -0.174056
 H   12.204317   -0.290548   -0.113543
 H   11.745099   -1.114706   -1.606893
 H   11.534291   -2.163477    1.243845
 H   11.714451   -3.100021   -0.257939
 H    9.295442   -2.840291    0.880264
