62 
4h2o_ligand_xtb.xyz
 O   -2.586022   -1.639910   -0.367424
 C   -3.707198   -2.045066   -0.154758
 O   -3.885078   -3.330433    0.145921
 C   -4.911842   -1.170506   -0.185600
 C   -6.181364   -1.728281   -0.262638
 C   -7.312226   -0.927366   -0.254435
 N   -8.605244   -1.543949   -0.337846
 O   -9.576801   -0.819840   -0.354323
 O   -8.644388   -2.758431   -0.381602
 C   -7.198014    0.459035   -0.159065
 C   -5.952705    1.032163   -0.101014
 C   -4.786786    0.247345   -0.133888
 N   -3.540713    0.806293   -0.116561
 C   -3.180923    2.131469    0.041497
 O   -3.980243    3.033293    0.169806
 C   -1.713939    2.367793    0.028639
 C   -0.765865    1.384932    0.279397
 C   -1.297812    3.677847   -0.221298
 C    0.046197    3.983846   -0.234358
 C    0.997361    3.006862    0.012566
 C    0.594959    1.699682    0.276185
 O    1.429752    0.668365    0.543928
 C    2.824045    0.902303    0.584031
 C    3.512698   -0.419417    0.905277
 C    5.023092   -0.244571    1.036097
 C    5.722198   -1.573728    1.314252
 C    7.213835   -1.419180    1.612293
 C    8.023944   -0.908904    0.422063
 C    9.520162   -0.894364    0.729892
 C   10.361721   -0.253372   -0.373990
 C   10.386508   -1.061074   -1.669933
 C   11.319788   -0.436657   -2.700320
 H   -4.800684   -3.566874    0.348406
 H   -6.341868   -2.793775   -0.366893
 H   -8.093588    1.060636   -0.143464
 H   -5.847287    2.102424   -0.037768
 H   -2.785343    0.129598   -0.244117
 H   -1.019609    0.360941    0.506375
 H   -2.046015    4.432957   -0.403229
 H    0.367544    4.994869   -0.434359
 H    2.042161    3.273337    0.002557
 H    3.059184    1.646627    1.357949
 H    3.173619    1.282289   -0.386002
 H    3.284801   -1.134777    0.113666
 H    3.098007   -0.810546    1.835587
 H    5.237096    0.452088    1.850229
 H    5.411955    0.190292    0.113851
 H    5.591106   -2.236616    0.456327
 H    5.242643   -2.048185    2.173600
 H    7.610239   -2.392167    1.912587
 H    7.343424   -0.737590    2.456470
 H    7.707711    0.104004    0.166933
 H    7.830096   -1.550100   -0.439280
 H    9.865451   -1.917051    0.898866
 H    9.679065   -0.336913    1.656672
 H   11.387407   -0.145910   -0.011955
 H    9.980504    0.749443   -0.581892
 H    9.380780   -1.118503   -2.089238
 H   10.716244   -2.079569   -1.452245
 H   10.998157    0.574053   -2.942748
 H   12.336219   -0.387652   -2.315456
 H   11.327924   -1.022822   -3.616366
