49 
4h3a_ligand_xtb.xyz
 O    3.269271    2.569605   -0.025269
 C    4.483224    2.162730    0.420414
 O    4.860641    2.812499    1.544801
 C    5.292394    1.287159   -0.196687
 O    6.488475    0.962273    0.428951
 C    4.954229    0.480897   -1.428864
 C    4.553637   -0.818239   -0.758549
 O    5.429391   -1.545339   -0.316232
 C    3.126493   -1.051450   -0.475263
 C    2.083035   -0.474949   -1.196276
 C    0.764606   -0.717446   -0.862313
 C    2.803655   -1.908073    0.584575
 C    1.497758   -2.146104    0.930465
 C    0.453314   -1.546153    0.215565
 O   -0.792913   -1.836794    0.635744
 C   -1.904644   -1.240334   -0.009688
 C   -3.159864   -1.713100    0.716814
 C   -4.451812   -1.261615    0.037469
 C   -4.661331    0.251479    0.085444
 C   -6.006872    0.690351   -0.497570
 C   -7.191830    0.367276    0.410547
 C   -8.535462    0.795556   -0.181833
 C   -8.704611    2.308329   -0.264593
 H    2.901942    1.918814   -0.633759
 H    6.615759    0.002312    0.323775
 H    5.742429    2.488417    1.780557
 H    5.858533    0.341051   -2.023005
 H    4.187975    0.950144   -2.036575
 H    2.280943    0.140695   -2.062162
 H   -0.015182   -0.260686   -1.450973
 H    3.611683   -2.368490    1.132637
 H    1.245273   -2.793894    1.754585
 H   -1.940481   -1.551506   -1.063024
 H   -1.817215   -0.147947    0.036280
 H   -3.130271   -1.344281    1.743194
 H   -3.130238   -2.803583    0.754962
 H   -5.284425   -1.755527    0.539858
 H   -4.449961   -1.593341   -1.003654
 H   -3.865926    0.740284   -0.480567
 H   -4.590998    0.593233    1.120380
 H   -6.152969    0.210656   -1.468375
 H   -5.971893    1.768411   -0.662276
 H   -7.051191    0.862577    1.374213
 H   -7.225159   -0.708515    0.592943
 H   -9.334536    0.388102    0.442204
 H   -8.643579    0.362769   -1.179131
 H   -8.556014    2.761407    0.713202
 H   -7.992637    2.746253   -0.959148
 H   -9.706289    2.556801   -0.608040
