55 
4h3c_ligand_xtb.xyz
 O   -7.832328    1.651891    1.268176
 C   -6.748315    0.966562    0.873431
 O   -6.086900    0.305183    1.622711
 C   -6.483879    1.159477   -0.616105
 O   -7.665122    1.089958   -1.376954
 C   -5.487733    0.113919   -1.109788
 C   -4.083731    0.449782   -0.640888
 O   -3.798355    1.555229   -0.235632
 C   -3.079038   -0.635887   -0.718784
 C   -1.894722   -0.451387   -0.003628
 C   -3.260072   -1.791693   -1.472898
 C   -2.260452   -2.749699   -1.500635
 C   -1.093703   -2.573635   -0.785646
 C   -0.896576   -1.415650   -0.026816
 O    0.282082   -1.332433    0.632969
 C    0.558027   -0.174329    1.399498
 C    1.965789   -0.313953    1.969565
 C    3.026592   -0.292103    0.871530
 C    4.436146   -0.454239    1.433655
 C    5.493442   -0.447224    0.331940
 C    6.904768   -0.581013    0.899412
 C    7.980266   -0.751133   -0.175008
 C    8.105789    0.414841   -1.156898
 C    8.498865    1.733017   -0.493914
 C    8.752277    2.824817   -1.526617
 H   -7.977663    1.535262    2.220188
 H   -6.018604    2.158152   -0.712700
 H   -8.333057    1.644051   -0.956206
 H   -5.777099   -0.873941   -0.753234
 H   -5.510199    0.113967   -2.201455
 H   -1.797519    0.459441    0.565382
 H   -4.158259   -1.942654   -2.049073
 H   -2.393492   -3.646182   -2.087625
 H   -0.312528   -3.317358   -0.797505
 H    0.495727    0.720440    0.765827
 H   -0.174091   -0.081823    2.213290
 H    2.138077    0.503246    2.672297
 H    2.026841   -1.255843    2.517024
 H    2.818866   -1.099250    0.167272
 H    2.960779    0.652522    0.325990
 H    4.641149    0.357500    2.136163
 H    4.498042   -1.393168    1.988627
 H    5.301243   -1.273452   -0.356606
 H    5.408748    0.482971   -0.232146
 H    7.132354    0.290201    1.516006
 H    6.937602   -1.456931    1.552827
 H    7.764226   -1.659296   -0.743691
 H    8.943756   -0.895803    0.320728
 H    7.166291    0.546497   -1.696331
 H    8.869168    0.155015   -1.895237
 H    7.704855    2.059417    0.179545
 H    9.401606    1.581000    0.102571
 H    7.860067    2.997637   -2.124953
 H    9.024728    3.758501   -1.039710
 H    9.560932    2.538424   -2.195858
