55 
4h3f_ligand_xtb.xyz
 C   -0.752452    0.408914    0.363795
 C   -0.932725    1.388508   -0.798961
 N    0.066965    3.104809    0.612626
 C   -0.350345    2.434790    1.760177
 C   -0.122506    2.660102   -0.659085
 N   -0.868280    1.178330    1.589927
 C    0.544482   -0.341131    0.330967
 N   -2.999875    0.401788   -0.291889
 C   -1.984878   -0.490419    0.216692
 C   -2.448316    1.642421   -0.786795
 C    1.722571    0.036544   -0.230188
 C    2.779085   -0.889678   -0.004186
 S    0.702460   -1.854343    1.168145
 C    2.359101   -1.953985    0.742263
 C   -4.273508   -0.028153   -0.494050
 N    8.484631   -2.139750    0.939188
 N   -0.237399    3.048896    2.862817
 C    4.138541   -0.721705   -0.514523
 C    7.603336   -1.677289    0.370689
 O    0.313864    3.244972   -1.628254
 N   -4.500538   -1.301893   -0.152864
 C    5.222053   -1.267650    0.166473
 C    0.743469    4.371563    0.822129
 C    6.512689   -1.111833   -0.331216
 C    4.372906   -0.014939   -1.695061
 C   -5.280906    0.801478   -0.997322
 C    5.657751    0.140611   -2.184756
 C   -5.719003   -1.792505   -0.305677
 C    6.735598   -0.404285   -1.512908
 C   -6.545966    0.265079   -1.152569
 C   -6.789060   -1.051937   -0.809058
 O   -5.942204   -3.076924    0.036086
 C   -4.830531   -3.794438    0.529091
 H   -0.650173    0.909690   -1.739801
 H   -1.022959    0.648886    2.435543
 H   -2.302808   -0.929415    1.165476
 H   -1.788369   -1.310769   -0.485603
 H   -2.696901    2.474879   -0.113505
 H   -2.820220    1.880863   -1.786618
 H    1.848415    0.953706   -0.776602
 H    2.920279   -2.814722    1.046974
 H   -0.539433    2.524548    3.675260
 H    5.072301   -1.802641    1.092347
 H    0.085872    5.049049    1.363280
 H    1.642118    4.214035    1.416291
 H    0.997608    4.777705   -0.154038
 H    3.541930    0.403610   -2.241850
 H   -5.080163    1.829439   -1.247230
 H    5.818364    0.689750   -3.100240
 H    7.741327   -0.289356   -1.888035
 H   -7.345921    0.878064   -1.541331
 H   -7.756453   -1.511226   -0.913761
 H   -4.027565   -3.821350   -0.211370
 H   -4.446701   -3.334645    1.442966
 H   -5.190004   -4.800638    0.734694
