26 
4h42_ligand_xtb.xyz
 O    4.559364    0.316366    1.106169
 C    4.648753   -0.687233    0.257330
 O    5.346003   -1.645682    0.436580
 C    3.797538   -0.527806   -1.022935
 N    2.374100   -0.448904   -0.751914
 C    1.802580    0.662042   -0.241434
 O    2.489311    1.615526    0.122449
 C    0.325611    0.682542   -0.162740
 C   -0.294396    1.937507   -0.123978
 C   -0.443815   -0.477351   -0.098732
 C   -1.812996   -0.347093   -0.016496
 S   -3.013635   -1.609327    0.081939
 C   -2.447301    0.918682   -0.000472
 C   -1.663096    2.066264   -0.051780
 N   -3.806405    0.878799    0.080308
 C   -4.252258   -0.321673    0.125884
 N   -5.549654   -0.661506    0.157447
 H    3.898361    1.001143    0.804264
 H    3.990565   -1.375650   -1.678800
 H    4.116895    0.399304   -1.516398
 H    1.801048   -1.223823   -1.038885
 H    0.337473    2.811715   -0.155281
 H   -0.001044   -1.461671   -0.073674
 H   -2.138927    3.032763   -0.029308
 H   -5.811928   -1.609471    0.359226
 H   -6.221718    0.071222    0.307467
