32 
4h4b_ligand_dft.xyz
 O    5.718028   -0.462098    1.449879
 S    5.440178   -0.167909   -0.121384
 O    5.561386   -1.426051   -0.814349
 O    6.226287    0.998632   -0.476509
 C    3.718828    0.290243   -0.089325
 C    3.377175    1.641277   -0.083258
 C    2.035797    1.996008   -0.049518
 C    1.052781    1.008080   -0.021538
 C   -0.382324    1.426068    0.015089
 O   -0.695759    2.600314    0.027358
 C   -1.412856    0.346746    0.034617
 C   -1.052700   -1.007772    0.021496
 C   -2.035721   -1.995722    0.049545
 C   -3.377075   -1.641003    0.083322
 C   -3.718719   -0.289949    0.089292
 C   -2.757122    0.709950    0.073597
 S   -5.440049    0.168077    0.121369
 O   -5.718462    0.456263   -1.450925
 O   -5.560877    1.428347    0.810611
 O   -6.226133   -0.997147    0.480934
 C    0.382401   -1.425771   -0.015139
 O    0.695833   -2.600017   -0.027358
 C    1.412943   -0.346454   -0.034711
 C    2.757186   -0.709654   -0.073709
 H    6.307737    0.235774    1.778739
 H    4.155336    2.396035   -0.120294
 H    1.730119    3.036533   -0.048156
 H   -1.730029   -3.036242    0.048227
 H   -4.155211   -2.395781    0.120445
 H   -3.029262    1.759973    0.099863
 H   -6.316003   -0.237525   -1.774280
 H    3.029275   -1.759692   -0.100014
