27 
4h4e_ligand_xtb.xyz
 O   -0.731883    2.053203    1.132392
 P    0.236367    1.550661    0.012923
 O   -0.374654    1.171085   -1.261264
 O    1.359077    2.639748   -0.020809
 O    0.948127    0.276831    0.752101
 P    2.157355   -0.411128   -0.062583
 O    2.839662   -1.263098    1.093971
 O    3.015551    0.573259   -0.715961
 O    1.517650   -1.481803   -1.001885
 C    0.510583   -2.372691   -0.482114
 C   -0.857352   -1.845381   -0.772315
 C   -1.791459   -1.521320    0.118598
 C   -1.629786   -1.599604    1.607487
 C   -3.132072   -1.054192   -0.351146
 S   -3.315775    0.774105   -0.207445
 H   -1.642714    1.761541    0.959028
 H    2.138004    2.268031   -0.464906
 H    3.550187   -0.778224    1.511105
 H    0.674626   -2.531291    0.584150
 H    0.670603   -3.313431   -1.018584
 H   -1.057369   -1.716064   -1.826664
 H   -1.839947   -2.610792    1.956571
 H   -2.330613   -0.922276    2.091273
 H   -0.622967   -1.329195    1.913124
 H   -3.932291   -1.459658    0.267506
 H   -3.310228   -1.304143   -1.395346
 H   -2.338448    1.062154   -1.064655
