45 
4h4m_ligand_dft.xyz
 C   -2.376139    1.434951    0.665761
 C   -3.095193    1.686162   -0.495620
 C   -2.623729    1.291918   -1.742776
 C   -1.390875    0.655637   -1.817768
 C   -0.654889    0.406340   -0.668134
 C   -1.158674    0.763394    0.590068
Cl   -4.647787    2.473475   -0.375094
 O    0.541375   -0.272037   -0.790164
 O   -0.480346    0.552316    1.757071
 C    1.708772    0.381573   -0.499382
 C    1.785979    1.757543   -0.294965
 C    3.027713    2.305349   -0.000276
 C    4.173224    1.526701    0.087988
 C    4.083820    0.148677   -0.138084
 C    2.840658   -0.420923   -0.422134
Cl    3.144429    4.024148    0.270274
 C    5.314131   -0.649682   -0.059569
 C   -0.086654   -0.770607    2.099084
 C   -1.255421   -1.707979    2.394083
 N   -2.056336   -2.017624    1.212966
 C   -3.340294   -1.474949    1.127733
 N   -3.940566   -1.646698   -0.100068
 C   -3.419808   -2.258288   -1.249954
 C   -2.113626   -2.863642   -1.027479
 C   -1.503829   -2.710782    0.160008
 O   -3.874452   -0.887733    2.047151
 O   -4.045606   -2.255185   -2.290393
 C    5.471331   -1.895733   -0.530424
 C    6.708578   -2.598319   -0.398637
 N    7.706301   -3.180717   -0.294605
 H   -2.766325    1.700255    1.640308
 H   -3.207731    1.474565   -2.636729
 H   -0.984722    0.338300   -2.771881
 H    0.905153    2.385133   -0.351810
 H    5.126881    1.988072    0.320368
 H    2.724153   -1.488480   -0.574517
 H    6.166328   -0.164474    0.410947
 H    0.502802   -0.654361    3.011239
 H    0.563089   -1.196018    1.327271
 H   -1.931794   -1.260003    3.122042
 H   -0.858811   -2.639983    2.813226
 H   -4.849061   -1.209933   -0.195400
 H   -1.653578   -3.410737   -1.838122
 H   -0.519257   -3.122371    0.354866
 H    4.675948   -2.427237   -1.044404
