46 
4h5c_ligand_dft.xyz
 O   -5.339519   -2.054293    0.692411
 P   -4.084978   -2.006069   -0.279633
 O   -3.022487   -2.978939    0.057211
 O   -4.684740   -2.067410   -1.778066
 C   -3.403176   -0.288462   -0.322679
 P   -4.516618    0.937059    0.506488
 O   -3.887532    0.997888    1.981058
 O   -4.226273    2.312996   -0.222848
 O   -5.946540    0.529799    0.473292
 N   -2.084842   -0.326466    0.305082
 C   -1.110018    0.585635   -0.088431
 C    0.245064    0.254376    0.038082
 N   -1.522535    1.779747   -0.526577
 C   -0.581649    2.676728   -0.864495
 C    0.772737    2.437471   -0.778801
 C    1.214022    1.186282   -0.310861
 C    2.654396    0.870520   -0.201782
 C    3.576724    1.844220    0.207330
 C    4.922267    1.549135    0.322196
 C    3.138231   -0.404142   -0.498691
 C    4.490080   -0.714281   -0.394811
 C    5.396386    0.265896    0.020049
 O    6.730592    0.097731    0.146787
 C    7.323556   -1.190343   -0.047029
 C    7.074710   -2.083156    1.163587
 C    8.802668   -0.929196   -0.279488
 H   -5.849427   -1.197820    0.674519
 H   -5.272676   -2.826301   -1.900943
 H   -3.339364   -0.006471   -1.381852
 H   -3.009493    0.570335    1.969260
 H   -3.246831    2.345739   -0.405487
 H   -1.753305   -1.283047    0.416450
 H    0.525244   -0.719749    0.426659
 H   -0.954428    3.631613   -1.224334
 H    1.480073    3.195561   -1.094890
 H    3.230364    2.840436    0.467713
 H    5.635141    2.297620    0.651089
 H    2.453489   -1.173062   -0.845549
 H    4.818469   -1.715875   -0.645130
 H    6.898772   -1.645699   -0.951494
 H    7.524583   -1.633361    2.054356
 H    6.006637   -2.221958    1.353633
 H    7.525563   -3.068090    1.005891
 H    8.946409   -0.280234   -1.147439
 H    9.242890   -0.441558    0.595987
 H    9.329469   -1.872157   -0.454629
