28 
4h5e_ligand_dft.xyz
 P   -1.474320   -1.347812    0.049919
 O   -2.841061   -0.947404    0.737246
 O   -0.421133   -2.001476    0.838326
 O   -1.974433   -2.151354   -1.232530
 O   -0.975638    0.061519   -0.650421
 P   -0.872589    1.464793    0.156510
 O   -1.773308    1.474919    1.327652
 O   -1.159451    2.529757   -1.000764
 O    0.642134    1.699326    0.476449
 C    1.671325    1.692884   -0.549039
 C    2.857805    0.899344   -0.039385
 C    2.582502   -0.591494    0.201710
 C    3.778094   -1.234994    0.907133
 C    2.257817   -1.339741   -1.093362
 H   -2.724639   -0.121564    1.261893
 H   -1.411088   -2.924406   -1.373700
 H   -2.084322    2.527294   -1.283717
 H    1.266245    1.270003   -1.472602
 H    1.929681    2.738664   -0.730173
 H    3.667434    1.015063   -0.774468
 H    3.205692    1.366681    0.889885
 H    1.713141   -0.678727    0.862768
 H    4.682115   -1.173781    0.287105
 H    3.583411   -2.292366    1.113613
 H    3.990096   -0.740131    1.861355
 H    3.096217   -1.287676   -1.800480
 H    1.368450   -0.937997   -1.590524
 H    2.059068   -2.394054   -0.877385
