20 
4h85_ligand_xtb.xyz
 C   -0.535472    0.104432    0.332343
 C    0.660037   -0.708151   -0.135230
 C    1.999082    0.033949   -0.069599
 C    3.085377   -0.835275   -0.699500
 C    2.377525    0.391032    1.365842
 C   -1.844434   -0.632392    0.118204
 O   -2.756489   -0.271185    1.022680
 O   -2.059022   -1.423118   -0.756358
Cl   -0.733213    1.593795   -0.653113
 H   -0.459086    0.429412    1.370320
 H    0.468813   -1.029889   -1.161098
 H    0.710416   -1.604113    0.489686
 H    1.912754    0.957880   -0.649486
 H    4.039644   -0.314472   -0.692852
 H    3.197917   -1.764315   -0.144598
 H    2.835542   -1.078366   -1.729313
 H    1.677006    1.102824    1.794329
 H    2.395042   -0.500818    1.989192
 H    3.366391    0.842547    1.388408
 H   -3.608422   -0.702341    0.845397
