39 
4ha5_ligand_dft.xyz
 C   -3.542276    2.256250    0.178568
 C   -4.772627    1.617263    0.098509
 C   -4.808177    0.225894   -0.037022
 C   -3.624338   -0.513657   -0.087789
 C   -2.387568    0.128873   -0.016359
 C   -2.362562    1.522617    0.118973
 C   -1.127858   -0.639090   -0.082167
 C    0.070987   -0.251469    0.600695
 C    1.124874   -1.087785    0.384411
 S    0.658727   -2.388507   -0.672157
 C   -0.945507   -1.782009   -0.808904
 C    2.551920   -0.980518    0.907132
 C    2.730169    0.304608    1.711360
 C    2.576466    1.539521    0.847971
 N    3.027104    1.425177   -0.452660
 C    3.529525    0.239681   -1.016579
 N    3.527245   -0.871725   -0.181777
 N    3.974588    0.289795   -2.211680
 C    2.917328   -2.200963    1.755084
 C    2.955540    2.590760   -1.328202
 O    2.093193    2.567506    1.286271
 C   -6.071857   -0.455420   -0.112995
 N   -7.089550   -1.006541   -0.175992
 H   -3.499856    3.335471    0.283231
 H   -5.698969    2.179603    0.142737
 H   -3.675549   -1.595135   -0.163375
 H   -1.408631    2.040300    0.162356
 H    0.125476    0.627290    1.232819
 H   -1.659609   -2.284232   -1.447665
 H    3.741977    0.307447    2.132418
 H    2.021664    0.380049    2.537615
 H    3.692964   -1.732882   -0.686384
 H    4.287823   -0.626511   -2.526053
 H    2.848458   -3.125903    1.171206
 H    3.939503   -2.104618    2.132559
 H    2.227460   -2.289530    2.598786
 H    2.299692    2.378440   -2.175196
 H    2.563424    3.416949   -0.739166
 H    3.949054    2.825061   -1.712907
