22 
4hbv_ligand_xtb.xyz
 O   -4.392103    0.950918   -0.211052
 C   -3.275618    0.509866   -0.035698
 N   -2.210061    1.371503    0.179148
 C   -0.884534    1.000623    0.123825
 C    0.133406    1.944886    0.013870
 C    1.453677    1.542184   -0.038363
 C    1.751732    0.191138    0.008625
Br    3.568907   -0.374030   -0.070185
 C    0.751554   -0.761312    0.114984
 C   -0.569792   -0.359252    0.180626
 C   -1.686795   -1.347557    0.348855
 N   -2.964609   -0.809635   -0.065681
 C   -4.026336   -1.772584   -0.232853
 H   -2.443460    2.352290    0.118526
 H   -0.113737    2.994631   -0.029524
 H    2.244544    2.271162   -0.119954
 H    1.001148   -1.810647    0.154858
 H   -1.739840   -1.664256    1.406166
 H   -1.485808   -2.244817   -0.248846
 H   -3.785352   -2.455166   -1.050405
 H   -4.174052   -2.350627    0.683689
 H   -4.939427   -1.229898   -0.467130
