71 
4hcu_ligand_xtb.xyz
 C   -7.548065    0.693170    0.641792
 C   -5.407576   -0.864442   -0.110568
 C   -6.309684    1.282622    0.467166
 C    1.453145   -3.406432   -0.920802
 C   -7.744114   -0.667568    0.447245
 C    5.835290   -0.507592    2.648002
 C    4.394072   -0.440384    2.153962
 C   -1.105790    1.453642   -0.137455
 C   -3.494978    2.300790    0.023495
 C    2.197311   -1.418725   -0.311173
 C    7.609488   -0.115328   -0.309277
 C   -9.076003   -2.332263    1.757662
 C   -0.279909    3.960665   -0.983556
 C    0.644087    2.938327   -0.865821
 C   -1.614087    3.730607   -0.700137
 C   -6.649571   -1.437218    0.068826
 C    0.970948   -0.796592   -0.655058
 C    0.233220    1.674138   -0.450213
 C   -2.039673    2.472559   -0.279170
 C   -5.223688    0.503132    0.086222
 C    1.183722    0.576658   -0.336739
 C    0.021901   -1.647319   -1.254615
 C    6.680404    0.547065    1.928690
 C    5.274037    0.442295   -0.023983
 C    4.359662   -0.603751    0.630418
 C   10.000407   -0.745198   -0.711677
 C   -9.617203   -1.898069   -0.664098
 C    8.984315   -0.276341    0.322490
 C   -9.106448   -1.285450    0.641890
 N    2.459806   -2.722769   -0.425985
 N    0.283270   -2.947478   -1.347974
 N    2.406930    0.744316    0.123512
 N    3.017943   -0.448909    0.136659
 N    6.616385    0.339020    0.501498
 N   -1.183542   -1.221977   -1.723462
 N   -3.939641    1.018922   -0.116319
 O   -4.195212    3.243300    0.332991
 O    7.404845   -0.351169   -1.483277
 H   -8.382584    1.312718    0.937664
 H   -4.566951   -1.480420   -0.402426
 H   -6.179412    2.339790    0.624096
 H    1.599055   -4.473777   -1.018396
 H    6.245856   -1.498415    2.443080
 H    5.872390   -0.336782    3.724417
 H    3.956171    0.527634    2.408415
 H    3.792822   -1.222313    2.621361
 H   -1.384263    0.490750    0.267881
 H  -10.076189   -2.720853    1.936489
 H   -8.428072   -3.163643    1.491441
 H   -8.705740   -1.890611    2.680271
 H    0.040529    4.941391   -1.301647
 H    1.686911    3.100295   -1.089587
 H   -2.348606    4.516152   -0.791015
 H   -6.762649   -2.499379   -0.088848
 H    7.709771    0.512617    2.278153
 H    6.276500    1.543344    2.147876
 H    4.869655    1.439046    0.181581
 H    5.324257    0.285292   -1.103135
 H    4.678447   -1.613233    0.350230
 H   10.981974   -0.854010   -0.256586
 H   10.063392   -0.028332   -1.525627
 H    9.694908   -1.699988   -1.130687
 H   -9.637138   -1.147529   -1.451352
 H  -10.624663   -2.285772   -0.529434
 H   -8.975752   -2.714993   -0.985365
 H    8.921725   -1.005000    1.134133
 H    9.298432    0.683135    0.740128
 H   -9.800190   -0.491290    0.939352
 H   -1.261152   -0.255049   -1.996837
 H   -1.673279   -1.898162   -2.289225
 H   -3.262601    0.324454   -0.400710
