82 
4hdb_ligand_xtb.xyz
 C   -6.614254   -0.098985   -0.503502
 C   -5.955857    0.065863   -1.727047
 C   -4.713400   -0.494085   -1.930694
 C   -4.124415   -1.234246   -0.920680
 C   -4.768460   -1.419104    0.285247
 C   -6.010602   -0.849937    0.504442
 S   -2.516745   -1.980114   -1.166891
 O   -1.919838   -1.347965   -2.318849
 O   -2.640909   -3.405681   -1.179989
 N   -1.662360   -1.545179    0.172925
 C   -1.298174   -2.507138    1.183470
 C    0.219659   -2.705771    1.319290
 C    0.800486   -3.207739    0.000667
 C    0.503139   -3.698776    2.443475
 C   -1.557244   -0.132066    0.428033
 C   -0.299394    0.490846   -0.212555
 O   -0.491793    0.831341   -1.557939
 C    0.183729    1.745275    0.557129
 N    1.618577    1.890312    0.393090
 C    2.438647    1.094006    1.115012
 O    2.121381    0.482887    2.105492
 O    3.697694    1.105126    0.604527
 C    4.630541    0.306790    1.314793
 C    4.363636   -1.202362    1.129353
 O    5.636745   -1.809477    1.172424
 C    6.508418   -0.970107    0.493021
 O    6.386600   -1.145286   -0.899609
 C    6.403314    0.078103   -1.587701
 C    6.193236    1.215449   -0.548369
 C    6.071386    0.487745    0.788268
 C   -0.514349    3.031151    0.105020
 C   -2.865628    2.844763   -0.759206
 C   -4.231775    2.750951   -0.560349
 C   -4.749537    2.762702    0.722960
 C   -3.894904    2.881803    1.805887
 C   -2.529859    2.984329    1.604670
 C   -1.999282    2.960122    0.320403
 O   -7.818796    0.507602   -0.397397
 C   -8.543023    0.381419    0.805432
 O    7.625131    0.317367   -2.223444
 C    8.437713    1.087319   -1.357987
 C    7.464582    2.060440   -0.687061
 H   -6.446228    0.639407   -2.497397
 H   -4.182480   -0.368650   -2.860511
 H   -4.293371   -2.009124    1.053129
 H   -6.496725   -0.998553    1.454964
 H   -1.721106   -2.202105    2.150000
 H   -1.754790   -3.448960    0.872906
 H    0.678122   -1.745977    1.581615
 H    0.537945   -2.537873   -0.815290
 H    1.883931   -3.281779    0.062742
 H    0.395614   -4.189388   -0.235361
 H    0.120611   -3.328791    3.391940
 H    1.574113   -3.854047    2.544202
 H    0.034418   -4.656946    2.229887
 H   -2.443602    0.362532    0.018373
 H   -1.540364    0.026420    1.509096
 H    0.503859   -0.259793   -0.129475
 H   -0.931351    0.079430   -2.002322
 H    0.024204    1.577216    1.626374
 H    1.940849    2.180258   -0.518162
 H    4.571134    0.566533    2.377828
 H    3.751135   -1.632327    1.919552
 H    3.888265   -1.363173    0.152721
 H    7.523233   -1.225310    0.825296
 H    5.645643    0.013206   -2.375769
 H    5.295723    1.793061   -0.756704
 H    6.695800    0.942571    1.555692
 H   -0.090558    3.862823    0.672001
 H   -0.305775    3.178067   -0.954347
 H   -2.462075    2.817092   -1.759797
 H   -4.895110    2.668557   -1.407860
 H   -5.816226    2.690061    0.875689
 H   -4.292979    2.901955    2.810165
 H   -1.868451    3.087821    2.452993
 H   -7.992678    0.804613    1.651444
 H   -8.790717   -0.662974    1.016640
 H   -9.461632    0.945741    0.654532
 H    8.927617    0.443803   -0.614578
 H    9.196387    1.572944   -1.971292
 H    7.834786    2.431471    0.265465
 H    7.277540    2.906214   -1.348502
