82 
4hdf_ligand_dft.xyz
 C   -6.875706   -0.719767   -0.180616
 C   -6.125490    0.305172   -0.771801
 C   -4.838648    0.060899   -1.212155
 C   -4.289067   -1.214136   -1.061850
 C   -5.028102   -2.238481   -0.481389
 C   -6.324888   -1.997755   -0.040836
 S   -2.599570   -1.511894   -1.510685
 O   -2.235705   -0.499819   -2.502349
 O   -2.447693   -2.928775   -1.789373
 N   -1.684331   -1.170339   -0.174432
 C   -1.608877   -2.156333    0.905850
 C   -0.182078   -2.327321    1.443767
 C    0.746929   -2.891445    0.369152
 C   -0.214386   -3.228954    2.679385
 C   -1.529395    0.240989    0.198541
 C   -0.174367    0.794978   -0.267012
 O   -0.173262    1.213963   -1.610684
 C    0.354504    1.962232    0.588272
 N    1.807263    2.030430    0.476620
 C    2.557777    1.135775    1.174462
 O    2.170328    0.476451    2.120882
 O    3.817613    1.089274    0.684172
 C    4.704633    0.192084    1.343109
 C    4.384924   -1.290429    1.139834
 O    5.610995   -1.927544    1.436042
 C    6.682939   -1.123473    0.990233
 O    7.234897   -1.567690   -0.210283
 C    6.769418   -0.835579   -1.329619
 C    6.151926    0.477533   -0.776207
 C    6.112836    0.297085    0.750091
 C   -0.232983    3.333581    0.227385
 C   -2.544955    3.451294   -0.789330
 C   -3.932679    3.459370   -0.675016
 C   -4.533054    3.384483    0.579059
 C   -3.736411    3.318255    1.719161
 C   -2.349978    3.326895    1.601580
 C   -1.736721    3.386138    0.347675
 O   -8.119688   -0.376253    0.216510
 C   -8.940811   -1.372459    0.790459
 O    7.834301   -0.484040   -2.151569
 C    8.369437    0.729989   -1.643904
 C    7.129591    1.552505   -1.288830
 H   -6.577714    1.284933   -0.879564
 H   -4.261110    0.848762   -1.682776
 H   -4.597799   -3.230347   -0.390862
 H   -6.890953   -2.809379    0.400146
 H   -2.288692   -1.857917    1.718916
 H   -1.954250   -3.115864    0.511741
 H    0.201491   -1.346425    1.756993
 H    0.759096   -2.258801   -0.523759
 H    1.770904   -2.974783    0.747755
 H    0.417754   -3.890482    0.058558
 H   -0.857168   -2.813554    3.463872
 H    0.790177   -3.346700    3.097558
 H   -0.590951   -4.228110    2.426454
 H   -2.346432    0.844395   -0.204825
 H   -1.606081    0.300442    1.289137
 H    0.542745   -0.027275   -0.126394
 H   -0.705727    0.582049   -2.124583
 H    0.150390    1.738012    1.638913
 H    2.179431    2.316160   -0.419186
 H    4.712755    0.416968    2.413037
 H    3.624596   -1.665246    1.824111
 H    4.059614   -1.472951    0.102340
 H    7.463376   -1.198916    1.749748
 H    6.099061   -1.463605   -1.922269
 H    5.149758    0.639404   -1.173712
 H    6.708057    1.059214    1.258122
 H    0.225718    4.074485    0.892002
 H    0.059411    3.581884   -0.797160
 H   -2.078412    3.473133   -1.769582
 H   -4.545954    3.519440   -1.570387
 H   -5.615209    3.383125    0.670186
 H   -4.196025    3.264526    2.701633
 H   -1.733449    3.283177    2.497099
 H   -8.501342   -1.772504    1.712490
 H   -9.123248   -2.193211    0.086039
 H   -9.885568   -0.881698    1.024373
 H    8.989787    0.533194   -0.757814
 H    8.994740    1.169661   -2.422961
 H    7.326564    2.336117   -0.552101
 H    6.731055    2.025072   -2.191142
