82 
4heg_ligand_dft.xyz
 C   -6.875706   -0.719768   -0.180615
 C   -6.125490    0.305172   -0.771799
 C   -4.838648    0.060899   -1.212154
 C   -4.289067   -1.214136   -1.061849
 C   -5.028101   -2.238481   -0.481388
 C   -6.324887   -1.997755   -0.040835
 S   -2.599571   -1.511893   -1.510685
 O   -2.235706   -0.499818   -2.502349
 O   -2.447694   -2.928775   -1.789374
 N   -1.684331   -1.170339   -0.174433
 C   -1.608876   -2.156334    0.905849
 C   -0.182077   -2.327321    1.443765
 C    0.746930   -2.891445    0.369149
 C   -0.214384   -3.228955    2.679382
 C   -1.529395    0.240989    0.198540
 C   -0.174367    0.794978   -0.267013
 O   -0.173262    1.213963   -1.610684
 C    0.354504    1.962232    0.588272
 N    1.807263    2.030430    0.476621
 C    2.557777    1.135775    1.174462
 O    2.170328    0.476451    2.120882
 O    3.817612    1.089274    0.684173
 C    4.704633    0.192084    1.343110
 C    4.384923   -1.290429    1.139834
 O    5.610994   -1.927544    1.436042
 C    6.682938   -1.123473    0.990234
 O    7.234896   -1.567690   -0.210282
 C    6.769418   -0.835579   -1.329618
 C    6.151926    0.477533   -0.776207
 C    6.112836    0.297085    0.750092
 C   -0.232983    3.333581    0.227385
 C   -2.544955    3.451295   -0.789331
 C   -3.932679    3.459371   -0.675017
 C   -4.533054    3.384483    0.579059
 C   -3.736411    3.318255    1.719160
 C   -2.349978    3.326895    1.601579
 C   -1.736722    3.386139    0.347675
 O   -8.119688   -0.376254    0.216512
 C   -8.940811   -1.372460    0.790462
 O    7.834302   -0.484040   -2.151568
 C    8.369437    0.729989   -1.643903
 C    7.129591    1.552505   -1.288829
 H   -6.577715    1.284933   -0.879561
 H   -4.261111    0.848762   -1.682775
 H   -4.597798   -3.230347   -0.390862
 H   -6.890953   -2.809380    0.400147
 H   -2.288691   -1.857918    1.718915
 H   -1.954249   -3.115864    0.511740
 H    0.201493   -1.346426    1.756991
 H    0.759097   -2.258800   -0.523761
 H    1.770905   -2.974783    0.747751
 H    0.417754   -3.890482    0.058554
 H   -0.857166   -2.813556    3.463870
 H    0.790179   -3.346702    3.097555
 H   -0.590949   -4.228111    2.426451
 H   -2.346432    0.844395   -0.204825
 H   -1.606080    0.300442    1.289137
 H    0.542746   -0.027275   -0.126394
 H   -0.705728    0.582050   -2.124584
 H    0.150390    1.738012    1.638913
 H    2.179431    2.316161   -0.419186
 H    4.712755    0.416968    2.413037
 H    3.624595   -1.665246    1.824111
 H    4.059614   -1.472951    0.102340
 H    7.463375   -1.198917    1.749749
 H    6.099061   -1.463605   -1.922269
 H    5.149758    0.639404   -1.173712
 H    6.708057    1.059214    1.258122
 H    0.225718    4.074486    0.892001
 H    0.059411    3.581884   -0.797160
 H   -2.078412    3.473133   -1.769583
 H   -4.545954    3.519440   -1.570388
 H   -5.615209    3.383126    0.670185
 H   -4.196025    3.264527    2.701632
 H   -1.733449    3.283178    2.497098
 H   -8.501340   -1.772505    1.712492
 H   -9.123247   -2.193212    0.086041
 H   -9.885567   -0.881700    1.024376
 H    8.989787    0.533194   -0.757813
 H    8.994740    1.169661   -2.422960
 H    7.326563    2.336117   -0.552100
 H    6.731055    2.025072   -2.191141
