70 
4hhz_ligand_dft.xyz
 O   -2.808355    2.159862   -1.823441
 C   -2.709679    1.713059   -0.507546
 N   -1.988075    0.407911   -0.664729
 C   -0.605020    0.508035   -1.246832
 C    0.000052    1.927738   -1.110657
 C   -0.496803    2.646628    0.129053
 C   -1.869252    2.557811    0.405786
 C   -2.416720    3.207189    1.502183
 C   -1.591924    3.969331    2.328219
 C   -0.236541    4.066623    2.050382
 C    0.326517    3.412523    0.949312
 C    1.799765    3.526357    0.654168
 C    2.110205    3.185886   -0.792106
 N    1.507422    1.846293   -1.133584
 C    2.064474    1.277605   -2.429346
 C    2.414358   -0.180675   -2.119440
 O    1.566213   -1.051622   -2.236409
 N    3.611058   -0.377100   -1.520761
 C    3.700387   -1.427613   -0.517732
 C    5.141855   -1.626706   -0.051726
 C    2.798736   -0.997367    0.664629
 O    2.521772    0.211246    0.808413
 N    2.374494   -1.919422    1.540465
 C    1.461529   -1.480123    2.598913
 C    0.042968   -1.438510    2.035899
 C    2.109149   -3.310091    1.149293
 C    0.740592   -3.343901    0.461052
 C   -0.375896   -2.764907    1.352911
 C   -1.696146   -2.563855    0.614677
 C   -2.819871   -2.114191    1.331256
 C   -4.043580   -1.881104    0.710536
 C   -4.156816   -2.118267   -0.656459
 F   -5.322179   -1.904048   -1.259561
 C   -3.073545   -2.569750   -1.401265
 C   -1.852706   -2.791594   -0.757565
 H   -3.362544    2.951733   -1.864411
 H   -3.685351    1.475072   -0.067032
 H   -2.546316   -0.227529   -1.253203
 H   -1.953878   -0.066050    0.248550
 H   -0.001354   -0.232443   -0.726102
 H   -0.666024    0.201555   -2.288424
 H   -0.274271    2.508266   -1.996708
 H   -3.479201    3.125774    1.714077
 H   -2.010233    4.487670    3.183962
 H    0.401674    4.667997    2.691270
 H    2.369587    2.862103    1.315298
 H    2.151267    4.544272    0.846924
 H    1.707800    3.917694   -1.498814
 H    3.186813    3.098869   -0.946779
 H    1.831506    1.205513   -0.359802
 H    2.927080    1.877623   -2.724074
 H    1.308113    1.337933   -3.211502
 H    4.232173    0.411442   -1.397876
 H    3.324416   -2.339788   -0.980679
 H    5.775742   -1.897319   -0.899406
 H    5.535362   -0.717033    0.413802
 H    5.193060   -2.428268    0.688785
 H    1.543272   -2.194997    3.422418
 H    1.773860   -0.501831    2.961079
 H    0.009372   -0.612601    1.311732
 H   -0.658168   -1.184736    2.836775
 H    2.894435   -3.694077    0.498579
 H    2.127143   -3.918601    2.057528
 H    0.493107   -4.372056    0.177348
 H    0.836850   -2.764687   -0.466675
 H   -0.555454   -3.493365    2.155780
 H   -2.752011   -1.971887    2.406463
 H   -4.915521   -1.568254    1.275284
 H   -3.201232   -2.784469   -2.457312
 H   -1.029338   -3.167531   -1.354599
