70 
4hhz_ligand_xtb.xyz
 O   -3.241658    2.497199   -1.656616
 C   -2.953953    1.480799   -0.736207
 N   -2.076061    0.563658   -1.551757
 C   -0.628606    0.652993   -1.277640
 C   -0.221801    2.097752   -0.939418
 C   -0.916944    2.426468    0.362004
 C   -2.245937    2.012231    0.483402
 C   -2.929092    2.207465    1.673204
 C   -2.286953    2.816606    2.740466
 C   -0.979025    3.244259    2.612056
 C   -0.280297    3.051530    1.424456
 C    1.143046    3.501033    1.276384
 C    1.546385    3.566104   -0.189299
 N    1.252338    2.253306   -0.821524
 C    1.984052    2.018656   -2.102785
 C    2.497733    0.568216   -2.008114
 O    1.782098   -0.366480   -2.314030
 N    3.679711    0.424322   -1.399715
 C    3.881765   -0.784199   -0.617022
 C    5.303504   -0.851400   -0.079334
 C    2.866676   -0.695977    0.540264
 O    2.327192    0.399987    0.787867
 N    2.632132   -1.773668    1.277877
 C    1.697710   -1.659328    2.385570
 C    0.279505   -1.829825    1.852441
 C    2.640258   -3.126665    0.750452
 C    1.294188   -3.317939    0.039392
 C    0.117225   -3.111710    1.004650
 C   -1.232459   -2.979071    0.331568
 C   -2.378431   -3.136328    1.112994
 C   -3.638686   -2.849614    0.622737
 C   -3.756657   -2.409307   -0.683142
 F   -4.953161   -2.045679   -1.167479
 C   -2.645678   -2.285775   -1.509710
 C   -1.386495   -2.590815   -0.992884
 H   -3.972077    3.056386   -1.367493
 H   -3.860954    0.928102   -0.450500
 H   -2.271407    0.865976   -2.518449
 H   -2.361948   -0.464039   -1.471401
 H   -0.404951    0.017637   -0.414339
 H   -0.079970    0.256420   -2.137196
 H   -0.568907    2.773901   -1.733672
 H   -3.956968    1.893988    1.765587
 H   -2.816257    2.969974    3.666581
 H   -0.488751    3.735578    3.437455
 H    1.795790    2.801901    1.807941
 H    1.274666    4.481090    1.735748
 H    0.997209    4.349099   -0.717218
 H    2.613923    3.772285   -0.267891
 H    1.631725    1.521248   -0.128985
 H    2.808765    2.724287   -2.196621
 H    1.319756    2.144985   -2.958599
 H    4.252184    1.219530   -1.158643
 H    3.663155   -1.635062   -1.266294
 H    6.011730   -0.845561   -0.903753
 H    5.509940   -0.003575    0.570746
 H    5.451040   -1.762128    0.493275
 H    1.941002   -2.430354    3.116761
 H    1.813804   -0.679158    2.850027
 H    0.045385   -0.954822    1.239259
 H   -0.424882   -1.844302    2.683204
 H    3.468590   -3.287676    0.064331
 H    2.749492   -3.820924    1.584831
 H    1.238287   -4.317572   -0.389820
 H    1.260736   -2.591001   -0.774679
 H    0.088355   -3.965616    1.687810
 H   -2.284187   -3.494531    2.126336
 H   -4.521020   -2.976713    1.228314
 H   -2.788508   -2.112896   -2.568159
 H   -0.540387   -2.531291   -1.658006
