27 
4his_ligand_xtb.xyz
 O    6.647767   -0.040031   -0.468521
 O    5.785262    1.789898    0.425846
 C    4.143089   -1.393301    0.055421
 C    2.906690   -2.002281    0.069541
 C   -4.333473    0.266407   -0.021790
 C   -2.422006   -1.209210    0.018902
 C   -2.102130    1.191371   -0.018723
 C    3.169928    0.839698    0.022512
 N    0.449496   -1.460648    0.037582
 O    0.692534    0.764177    0.006595
 C    5.619918    0.671948    0.024321
 C   -3.790851   -1.011424    0.004547
 C   -3.476443    1.357435   -0.032575
 C    4.282679    0.003900    0.024567
 C   -1.577594   -0.099575    0.006300
 C   -0.144320   -0.307440    0.018090
 C    1.787536   -1.178644    0.041085
 C    1.935086    0.228137    0.021769
Cl   -4.847620   -2.370153    0.018767
Cl   -4.140014    2.946586   -0.064537
 H    6.374851   -0.900278   -0.813974
 H    5.021825   -2.022293    0.110271
 H    2.800014   -3.073601    0.105103
 H   -5.401992    0.408576   -0.033610
 H   -1.993601   -2.197514    0.039506
 H   -1.444379    2.045502   -0.026989
 H    3.293427    1.910294    0.019553
