75 
4hla_ligand_xtb.xyz
 N   -6.992224    2.252011   -0.945828
 C   -6.099641    1.214867   -1.003065
 C   -6.079128    0.239062    0.001319
 C   -5.134598   -0.764624   -0.021246
 C   -4.202527   -0.807612   -1.042730
 C   -4.204697    0.147514   -2.043798
 C   -5.148872    1.152377   -2.028534
 S   -2.974057   -2.100400   -1.032387
 O   -3.595425   -3.368801   -0.798293
 O   -2.174825   -1.959116   -2.225747
 N   -1.989967   -1.763824    0.261660
 C   -2.157358   -2.493372    1.494899
 C   -0.834404   -3.099710    1.983813
 C   -0.318500   -4.108548    0.962628
 C   -1.037698   -3.757430    3.345654
 C   -1.466725   -0.418999    0.311568
 C   -0.093002   -0.295677   -0.373472
 O   -0.198572   -0.180189   -1.768402
 C    0.690619    0.931873    0.133391
 N    2.029288    0.856988   -0.407034
 C    3.128081    0.958855    0.359570
 O    3.136931    1.163225    1.548284
 O    4.248866    0.810198   -0.398045
 C    5.472912    0.941672    0.301625
 C    5.856256   -0.307974    1.116133
 O    7.258999   -0.213291    1.252211
 C    7.773804    0.254606    0.046632
 O    8.104526   -0.809266   -0.816380
 C    7.751907   -0.446676   -2.133866
 C    6.474347    0.387046   -2.007976
 C    6.663752    1.087043   -0.657944
 C    0.039678    2.266301   -0.276469
 C   -1.031103    2.831043    1.919880
 C   -2.135062    3.136538    2.695000
 C   -3.387029    3.241487    2.111844
 C   -3.525758    3.053144    0.747896
 C   -2.419407    2.746400   -0.025364
 C   -1.161903    2.619710    0.551638
 H   -7.794238    2.145246   -0.348058
 H   -7.139776    2.787465   -1.784698
 H   -6.811727    0.280897    0.793463
 H   -5.116308   -1.529735    0.738509
 H   -3.466787    0.080265   -2.827505
 H   -5.161093    1.900486   -2.807386
 H   -2.582686   -1.839336    2.269051
 H   -2.862733   -3.297138    1.278489
 H   -0.103553   -2.289991    2.088164
 H   -0.257885   -3.650187   -0.021449
 H   -0.998106   -4.954971    0.896699
 H    0.666725   -4.471904    1.245466
 H   -1.777659   -4.551225    3.274436
 H   -1.379688   -3.031260    4.079854
 H   -0.104019   -4.187718    3.698648
 H   -2.166626    0.256655   -0.189748
 H   -1.384574   -0.108805    1.355525
 H    0.492609   -1.194835   -0.116290
 H   -0.821285   -0.865236   -2.085583
 H    0.795377    0.880928    1.221323
 H    2.115243    0.666602   -1.392783
 H    5.407701    1.803982    0.976098
 H    5.571492   -1.212113    0.561878
 H    5.416673   -0.325929    2.111728
 H    8.678986    0.832232    0.285933
 H    7.622648   -1.366464   -2.704687
 H    8.560045    0.148492   -2.585198
 H    6.356989    1.090326   -2.828358
 H    5.599881   -0.260210   -1.971219
 H    6.957609    2.128493   -0.780251
 H   -0.227855    2.203425   -1.331420
 H    0.796901    3.044916   -0.153516
 H   -0.055103    2.760105    2.377729
 H   -2.018356    3.296987    3.756905
 H   -4.249507    3.477859    2.717392
 H   -4.496934    3.143608    0.284665
 H   -2.534828    2.602703   -1.090384
