28 
4hlg_ligand_xtb.xyz
 C   -2.646505    0.726394    0.264972
 C   -3.988448    0.366515    0.232895
 O   -4.905064    1.301895    0.588291
 C   -4.352624   -0.919994   -0.151097
 C   -3.375398   -1.837671   -0.493222
 C   -2.040411   -1.486318   -0.459713
 C   -1.666219   -0.194787   -0.085609
 C   -0.243064    0.170304   -0.067619
 O    0.570676   -0.894669    0.094871
 C    1.913683   -0.705439    0.108550
 C    2.715165   -1.834934    0.280740
 C    4.085976   -1.701065    0.301943
 C    4.677124   -0.449133    0.152933
 C    3.888587    0.665889   -0.016237
 C    2.496739    0.555753   -0.040032
 C    1.641273    1.743593   -0.221225
 O    2.085818    2.871456   -0.358813
 C    0.222224    1.430726   -0.223940
 H   -2.393317    1.722943    0.586325
 H   -5.795603    0.935548    0.525674
 H   -5.397463   -1.199340   -0.176773
 H   -3.661966   -2.835678   -0.788641
 H   -1.281929   -2.202696   -0.731771
 H    2.240019   -2.796650    0.395322
 H    4.704808   -2.575625    0.435371
 H    5.752294   -0.357379    0.171230
 H    4.313813    1.651089   -0.134196
 H   -0.460704    2.249345   -0.377359
