29 
4hlm_ligand_xtb.xyz
 C   -2.260926    0.934385    0.243338
 C   -3.612896    0.644706    0.228533
 O   -4.515419    1.608534    0.528602
 C   -4.040092   -0.653355   -0.094631
 O   -5.391915   -0.877205   -0.093954
 C   -3.106703   -1.631289   -0.388033
 C   -1.756473   -1.335269   -0.367542
 C   -1.318918   -0.049108   -0.058931
 C    0.117620    0.247248   -0.053914
 O    0.882195   -0.857480    0.091628
 C    2.232889   -0.733176    0.096534
 C    2.980376   -1.902177    0.247209
 C    4.356263   -1.834787    0.259870
 C    5.006177   -0.611022    0.123568
 C    4.271063    0.542850   -0.024809
 C    2.875535    0.499929   -0.040067
 C    2.076341    1.729160   -0.202068
 O    2.574468    2.836198   -0.328640
 C    0.645006    1.485009   -0.201084
 H   -1.963932    1.933205    0.514677
 H   -5.400837    1.223621    0.467584
 H   -5.568510   -1.795804   -0.324093
 H   -3.439772   -2.630260   -0.634674
 H   -1.037356   -2.103064   -0.602520
 H    2.460795   -2.841744    0.352908
 H    4.932917   -2.740032    0.376745
 H    6.084625   -0.571466    0.135053
 H    4.742127    1.508164   -0.132649
 H    0.003748    2.338377   -0.341964
