23 
4hmk_ligand_xtb.xyz
 N    0.756205    1.730911   -0.103158
 C    0.601556    0.322598    0.359408
 C    1.965215   -0.324385    0.045758
 O    2.069392   -1.557782    0.437064
 C   -0.515403   -0.396322   -0.398525
 C   -1.916909    0.186405   -0.152962
 C   -2.304572    0.125508    1.321793
 C   -2.919497   -0.600507   -0.995120
 O    2.795607    0.336554   -0.530475
 H    0.048949    1.968411   -0.808533
 H    0.729381    2.424057    0.649052
 H    1.727258    1.718147   -0.543171
 H    0.416009    0.276952    1.434228
 H    2.928450   -1.963782    0.220692
 H   -0.512945   -1.440036   -0.080964
 H   -0.293430   -0.378752   -1.468449
 H   -1.950515    1.232942   -0.483252
 H   -2.192423   -0.885693    1.703724
 H   -1.711288    0.800061    1.935739
 H   -3.345493    0.412272    1.438360
 H   -2.947366   -1.639761   -0.679672
 H   -2.656661   -0.567103   -2.049408
 H   -3.915698   -0.184055   -0.881058
