29 
4hnc_ligand_dft.xyz
 O    0.293899    3.075090   -0.049320
 C   -0.092095    2.006021   -0.449614
 O   -0.554449    1.848760   -1.692652
 C   -0.025358    0.753183    0.466534
 O   -0.088215    1.228655    1.787405
 C   -1.238474   -0.144652    0.218128
 C    1.786162   -0.790018    1.256230
 C    2.961555   -1.511441    1.091116
 C    3.666900   -1.438299   -0.108689
 C    3.188464   -0.637571   -1.138833
 C    2.007919    0.085227   -0.975302
 C    1.298230    0.012809    0.223118
 C   -1.200633   -1.181918   -0.717917
 C   -2.345993   -1.929047   -0.989078
 C   -3.533560   -1.653558   -0.321505
 C   -3.572684   -0.626484    0.619697
 C   -2.435666    0.126701    0.885433
 H   -0.933264    0.958208   -1.785062
 H    0.333267    2.104730    1.763709
 H    1.238845   -0.831569    2.191970
 H    3.330805   -2.131157    1.902836
 H    4.587564   -1.999662   -0.236212
 H    3.734710   -0.565897   -2.074528
 H    1.655666    0.709230   -1.791684
 H   -0.267895   -1.428235   -1.217935
 H   -2.300487   -2.735529   -1.714648
 H   -4.424336   -2.239014   -0.527858
 H   -4.495492   -0.409987    1.149504
 H   -2.457879    0.923121    1.620543
