43 
4hni_ligand_dft.xyz
 C    3.797314   -0.929910   -0.222942
 C    3.214171    0.102038    0.509970
 C    3.993407    0.901261    1.351358
 C   -2.511765    3.564848   -0.340914
 C   -2.218275    1.382635   -0.193245
 C   -0.827998    1.501370   -0.299693
 C   -0.337335    2.824741   -0.404876
 C   -0.351342    0.161728   -0.242274
 C    1.040341   -0.356501   -0.381278
 C   -5.436701   -2.201043   -0.870053
 C   -5.266349   -2.028145    1.453903
 C   -3.912505   -1.322358    1.387598
 C   -3.792952   -0.567021    0.062322
 N   -3.107652    2.389725   -0.208684
 N   -1.200483    3.844546   -0.433782
 N   -2.488681    0.058688   -0.079617
 N   -1.354320   -0.681593   -0.105505
 N    0.983736    3.098573   -0.502360
 O    1.888946    0.412791    0.465918
 O   -5.459380   -2.895734    0.357891
 C   -4.094996   -1.508253   -1.105507
 C    5.354722    0.665571    1.453928
 C    5.963296   -0.359330    0.729598
 C    5.169205   -1.139869   -0.096122
Cl    5.899840   -2.433898   -1.017064
 H    3.220198   -1.567160   -0.880557
 H    3.510456    1.689484    1.919415
 H   -3.168489    4.431447   -0.371075
 H    1.388070   -0.263134   -1.419816
 H    1.058416   -1.413938   -0.095671
 H   -6.251952   -1.456543   -0.896168
 H   -5.632811   -2.943100   -1.647783
 H   -6.077497   -1.279509    1.488306
 H   -5.339141   -2.645643    2.352434
 H   -3.109034   -2.063947    1.449484
 H   -3.803796   -0.630217    2.230001
 H   -4.502118    0.268552    0.051739
 H    1.639384    2.394689   -0.190433
 H    1.246293    4.069756   -0.427197
 H   -4.116847   -0.949331   -2.047687
 H   -3.301426   -2.260011   -1.172557
 H    5.957319    1.286215    2.109483
 H    7.027533   -0.547945    0.806716
