106 
4hp0_ligand_dft.xyz
 C   -8.615717    0.705049    1.022212
 C   -7.617649   -0.078885    1.872046
 O   -6.638081    0.789013    2.384881
 C   -7.019013   -1.246270    1.069988
 O   -8.052641   -2.177322    0.827661
 C   -6.405698   -0.755176   -0.254019
 O   -5.289005    0.020311    0.144009
 C   -7.362313    0.110574   -1.081210
 N   -7.936311    1.196470   -0.215656
 C   -8.501356   -0.623083   -1.777842
 O   -9.315951    0.400653   -2.319489
 C   -4.294006    0.281977   -0.826227
 C   -3.287743    1.226452   -0.152120
 C   -1.862809    0.834967   -0.556134
 C   -1.598561   -0.597716   -0.079166
 C   -2.760967   -1.536112   -0.461718
 C   -3.371806   -2.197581    0.775711
 C   -4.620975    3.321785   -0.481268
 C   -4.496453    4.813622   -0.682693
 N   -3.468460    2.626145   -0.498723
 O   -1.022747    1.789665    0.041691
 O   -0.431514   -1.151176   -0.661512
 O   -3.722745   -0.889660   -1.300154
 O   -4.468425   -3.040333    0.464831
 O   -5.728749    2.797710   -0.322937
 C    0.760086   -0.815220   -0.055836
 C    1.783321   -1.931845   -0.276854
 C    3.137756   -1.494137    0.292606
 C    3.558629   -0.137453   -0.282636
 C    2.426161    0.867902   -0.086905
 C    2.683491    2.224876   -0.717367
 C    0.538578   -3.502936    1.269196
 C    0.552720   -4.948433    1.729956
 N    1.408040   -3.229797    0.259360
 O    4.063582   -2.519427    0.009814
 O    4.692091    0.352511    0.412018
 O    1.253811    0.354243   -0.693333
 O    1.590512    3.096346   -0.493086
 O   -0.200417   -2.672815    1.787464
 C    5.887716    0.334612   -0.268116
 C    6.926038    1.172867    0.486479
 C    8.290384    0.952921   -0.170937
 C    8.636962   -0.528919   -0.307600
 C    7.509751   -1.228024   -1.068033
 C    7.639050   -2.733220   -1.229779
 C    5.849914    3.203615    1.409655
 C    5.948028    4.717699    1.409281
 N    6.619572    2.590845    0.445401
 O    9.256636    1.646821    0.573680
 O    9.870733   -0.565057   -1.001043
 O    6.312087   -1.016083   -0.330400
 O    6.581956   -3.262238   -1.987671
 O    5.151341    2.586808    2.191192
 H   -8.968472    1.580430    1.568999
 H   -9.466802    0.092250    0.719410
 H   -8.164353   -0.501265    2.719440
 H   -5.907011    0.836773    1.748850
 H   -6.211053   -1.689919    1.658546
 H   -7.647529   -3.046588    0.719835
 H   -6.074231   -1.615870   -0.843869
 H   -6.800705    0.650809   -1.848029
 H   -7.158280    1.851129    0.007064
 H   -8.608452    1.700442   -0.803646
 H   -9.048910   -1.263273   -1.079107
 H   -8.065254   -1.259973   -2.558364
 H  -10.095156    0.011356   -2.732249
 H   -4.728938    0.759550   -1.709311
 H   -3.378186    1.105062    0.936757
 H   -1.775197    0.857459   -1.651600
 H   -1.473393   -0.575300    1.011945
 H   -2.342648   -2.309294   -1.110881
 H   -2.567364   -2.736561    1.293436
 H   -3.757765   -1.442601    1.464674
 H   -3.498506    5.128674   -0.995347
 H   -5.226875    5.131864   -1.429624
 H   -4.746802    5.312721    0.258409
 H   -2.589622    3.132146   -0.505655
 H   -0.139502    1.756193   -0.371911
 H   -4.125652   -3.819841    0.011476
 H    0.619126   -0.612545    1.012700
 H    1.886172   -2.045286   -1.362987
 H    3.034861   -1.369810    1.382790
 H    3.774707   -0.251573   -1.354685
 H    2.268124    1.004332    0.996557
 H    3.623405    2.633977   -0.330972
 H    2.766575    2.110250   -1.802150
 H    1.320870   -5.071100    2.501123
 H    0.764595   -5.652200    0.920073
 H   -0.413879   -5.183042    2.177241
 H    2.058784   -3.961563    0.010208
 H    4.938366   -2.179041    0.264846
 H    1.635153    3.400429    0.422350
 H    5.768528    0.720137   -1.297558
 H    6.943989    0.823126    1.525210
 H    8.242899    1.354320   -1.201478
 H    8.729393   -0.966290    0.697097
 H    7.412615   -0.780840   -2.069468
 H    8.560431   -2.960212   -1.773308
 H    7.705921   -3.196806   -0.231314
 H    6.829127    5.022548    1.984730
 H    6.040477    5.130833    0.400202
 H    5.063746    5.130609    1.895556
 H    7.340301    3.167865    0.032765
 H   10.110639    1.420309    0.178258
 H   10.330753   -1.384792   -0.789265
 H    5.750165   -3.038863   -1.545387
