32 
4ht0_ligand_dft.xyz
 F   -2.758489   -1.780469    1.355136
 C   -1.945403   -1.145728    0.510571
 C   -2.367388    0.017620   -0.126847
 S   -3.996243    0.666534    0.250775
 O   -3.992115    0.984085    1.665241
 N   -4.956123   -0.666100   -0.022598
 O   -4.351141    1.641694   -0.758070
 C   -1.480059    0.659901   -0.987244
 F   -1.793416    1.786551   -1.610071
 C   -0.217365    0.122896   -1.215329
 F    0.590026    0.765078   -2.049400
 C   -0.681930   -1.669817    0.286574
 F   -0.336411   -2.781672    0.926078
 C    0.206778   -1.041914   -0.583500
 S    1.807545   -1.731170   -0.886923
 C    2.853812   -0.474368   -0.169939
 N    4.144578   -0.743480   -0.328457
 C    4.995263    0.151643    0.187756
 C    6.458222   -0.138725    0.020512
 C    4.528054    1.290884    0.841838
 C    3.151577    1.466697    0.945787
 N    2.301430    0.564747    0.434528
 C    2.534535    2.655360    1.622402
 H   -5.252187   -1.107894    0.841018
 H   -5.727980   -0.419393   -0.633331
 H    6.701702   -1.098578    0.486220
 H    6.700330   -0.223917   -1.043206
 H    7.079875    0.641485    0.466305
 H    5.216894    2.018684    1.256309
 H    3.292478    3.333344    2.022010
 H    1.907300    3.202059    0.911393
 H    1.885653    2.323892    2.438789
