48 
4hwo_ligand_dft.xyz
 O    4.282652   -0.441580    2.381918
 C    3.996250   -0.275916    1.219285
 C    4.945685   -0.719480    0.092344
 C    5.993464   -1.731482    0.568094
 C    5.378261   -3.101557    0.803083
 O    6.938632   -1.725404   -0.493794
 N    5.670706    0.479471   -0.456146
 N    2.827521    0.352740    0.842988
 S    2.251687    0.584175   -0.761411
 O    3.280001    1.410513   -1.404412
 O    1.941916   -0.711077   -1.326609
 C    0.806545    1.529608   -0.448729
 C    0.917052    2.914576   -0.331390
 C   -0.241542    3.629420   -0.058137
 C   -1.457936    2.968157    0.087256
 C   -1.562016    1.576371   -0.037878
 C   -0.400581    0.849061   -0.310296
 C   -2.867507    0.885838    0.105967
 C   -3.785221    1.305608    1.102129
 C   -4.997363    0.676906    1.240047
 C   -5.351412   -0.393988    0.390832
 C   -4.435767   -0.835220   -0.591222
 C   -3.195435   -0.167786   -0.719341
 C   -6.598892   -1.114970    0.436423
 N   -7.573005   -0.798999    1.324872
 N   -6.829828   -2.137502   -0.368686
 C   -5.857618   -2.463752   -1.245650
 N   -4.695457   -1.884480   -1.423315
 H    4.394333   -1.140470   -0.754012
 H    6.449161   -1.358518    1.494786
 H    6.152691   -3.807853    1.116495
 H    4.914294   -3.480599   -0.112386
 H    4.632449   -3.060982    1.601097
 H    7.636035   -2.368751   -0.317888
 H    6.433949    0.110713   -1.043463
 H    5.004985    1.061286   -1.004118
 H    6.092432    1.043795    0.287199
 H    2.187525    0.579602    1.599323
 H    1.870598    3.411948   -0.468485
 H   -0.199458    4.709779    0.027823
 H   -2.356160    3.547825    0.276383
 H   -0.439159   -0.230896   -0.412892
 H   -3.514885    2.106850    1.783345
 H   -5.667439    0.999685    2.031110
 H   -2.532378   -0.508114   -1.508978
 H   -8.449762   -1.285576    1.206106
 H   -7.612035    0.108442    1.757347
 H   -6.085158   -3.311553   -1.887949
