51 
4hwp_ligand_xtb.xyz
 C    5.233818   -3.170115    1.206384
 C    5.963791   -1.945538    0.676014
 C    4.964863   -0.899410    0.140624
 C    4.243986   -0.148068    1.274075
 N    3.164123    0.566039    0.851398
 O    6.804112   -2.239860   -0.428145
 N    5.718089    0.051297   -0.721042
 O    4.616471   -0.175595    2.414899
 S    2.520379    0.658872   -0.763269
 O    3.586804    1.320560   -1.493587
 O    2.237406   -0.682268   -1.151940
 C    1.096490    1.677281   -0.552652
 C    1.237065    3.050621   -0.631842
 C    0.102813    3.827099   -0.451612
 C   -1.119763    3.228167   -0.199804
 C   -1.253304    1.838441   -0.124631
 C   -0.110747    1.056944   -0.305770
 C   -2.555568    1.207311    0.120380
 C   -3.473583    1.797275    1.012763
 C   -4.696297    1.222830    1.239601
 C   -5.062213    0.040290    0.581228
 C   -4.144799   -0.565307   -0.316526
 C   -2.892314    0.039262   -0.527336
 N   -4.432340   -1.705420   -0.976743
 C   -5.605994   -2.246202   -0.766270
 N   -6.552410   -1.763445    0.051004
 C   -6.314396   -0.652992    0.719160
 N   -7.290338   -0.218216    1.534423
 C   -5.940902   -3.504369   -1.491113
 H    5.946939   -3.898918    1.584271
 H    4.579057   -2.883258    2.023231
 H    4.642193   -3.630583    0.418381
 H    6.558471   -1.492603    1.484235
 H    4.214280   -1.394774   -0.484976
 H    2.662585    1.045138    1.586879
 H    7.220533   -3.097321   -0.293486
 H    6.351214    0.630600   -0.160153
 H    6.292681   -0.536907   -1.346887
 H    5.018350    0.661244   -1.243312
 H    2.200304    3.482743   -0.846675
 H    0.173872    4.901321   -0.516885
 H   -1.996721    3.846439   -0.084859
 H   -0.154777   -0.019282   -0.259353
 H   -3.196213    2.695872    1.542707
 H   -5.376647    1.691875    1.935333
 H   -2.229221   -0.428205   -1.237784
 H   -8.149001   -0.740389    1.549999
 H   -7.227468    0.649352    2.032263
 H   -6.843218   -3.355383   -2.079741
 H   -6.142738   -4.296354   -0.773284
 H   -5.116428   -3.788145   -2.136741
