48 
4hxj_ligand_xtb.xyz
 N   -0.860810    1.556309   -1.536769
 C   -1.559337    2.416029   -0.542829
 C   -0.524900    2.576829    0.600119
 O   -0.585618    1.996809    1.653044
 C   -2.897221    1.776851   -0.147241
 C   -2.786875    0.614403    0.850863
 C   -3.848688   -0.478757    0.655377
 N   -3.397287   -1.494349   -0.283663
 C   -2.364480   -2.311868   -0.062505
 N   -1.925476   -3.126820   -1.019136
 N   -1.817865   -2.431611    1.143427
 N    0.535060    3.353833    0.242011
 C    1.858193    2.850107    0.593520
 C    2.008907    1.631790   -0.329200
 O    1.786425    1.772851   -1.535547
 N    2.166694    0.451107    0.244586
 C    2.150465   -0.806679   -0.467774
 C    0.736482   -1.463461   -0.449879
 O    0.656457   -2.684154   -0.345794
 C    3.190310   -1.740691    0.169290
 O    2.990104   -1.642308    1.570487
 C    4.611667   -1.350448   -0.225909
 O   -0.280517   -0.714733   -0.566174
 H   -1.426283    1.413404   -2.372427
 H   -0.575017    0.543737   -1.091693
 H    0.086205    1.909526   -1.807909
 H   -1.753463    3.396935   -0.992356
 H   -3.377548    1.432932   -1.067163
 H   -3.533082    2.555002    0.274982
 H   -2.857475    1.011076    1.860985
 H   -1.806366    0.154150    0.751114
 H   -4.778290   -0.058783    0.272271
 H   -4.076093   -0.957364    1.611314
 H   -3.792255   -1.489589   -1.210024
 H   -0.941969   -3.406593   -0.910908
 H   -2.276973   -3.042747   -1.958014
 H   -2.028229   -1.778762    1.878100
 H    0.512873    3.818564   -0.655737
 H    2.606347    3.612051    0.380976
 H    1.873892    2.579567    1.647612
 H    2.331152    0.348678    1.238190
 H    2.395597   -0.615278   -1.519139
 H   -0.930597   -2.916191    1.190120
 H    2.974973   -2.763380   -0.168767
 H    3.596213   -2.246773    2.010596
 H    4.821264   -0.325050    0.071429
 H    4.741564   -1.440826   -1.300318
 H    5.329403   -2.005917    0.262459
