48 
4hxj_ligand_dft.xyz
 N   -1.428640    0.622650   -1.089207
 C   -1.990641    1.863398   -0.443411
 C   -0.790737    2.514315    0.279714
 O   -0.640486    2.409440    1.475467
 C   -3.162741    1.531345    0.477771
 C   -2.937427    0.399210    1.506065
 C   -3.827344   -0.824000    1.247197
 N   -3.653987   -1.381514   -0.092371
 C   -2.588362   -2.186292   -0.430582
 N   -2.497699   -2.460034   -1.787306
 N   -1.624031   -2.546673    0.342604
 N    0.113442    3.118354   -0.563000
 C    1.529161    2.882425   -0.325461
 C    1.833342    1.474821   -0.857376
 O    1.228411    1.056169   -1.851973
 N    2.707556    0.713649   -0.179405
 C    2.640736   -0.724730   -0.341647
 C    1.239178   -1.197104    0.071022
 O    0.999903   -2.448303   -0.217903
 C    3.738527   -1.397611    0.491044
 O    3.563473   -0.870285    1.796641
 C    5.132368   -1.126696   -0.060964
 O    0.422618   -0.437382    0.578679
 H   -2.133949    0.089280   -1.606111
 H   -1.012551   -0.003213   -0.365676
 H   -0.610871    0.834408   -1.696373
 H   -2.330998    2.508505   -1.260264
 H   -4.025040    1.291871   -0.156208
 H   -3.410795    2.462862    0.993417
 H   -3.164704    0.770610    2.508638
 H   -1.884122    0.107210    1.554498
 H   -4.878440   -0.534695    1.328305
 H   -3.659468   -1.589340    2.015817
 H   -4.500027   -1.516341   -0.626865
 H   -1.861721   -3.220609   -1.993156
 H   -3.367712   -2.546348   -2.296790
 H   -1.747560   -2.250525    1.305311
 H   -0.116280    3.105017   -1.548487
 H    2.122466    3.629920   -0.858347
 H    1.725359    2.974471    0.743579
 H    2.998279    1.011101    0.745346
 H    2.772128   -0.985249   -1.394813
 H    0.024006   -2.641156    0.001722
 H    3.538816   -2.477395    0.479976
 H    4.252644   -1.221843    2.372895
 H    5.330696   -0.052469   -0.118247
 H    5.246250   -1.558812   -1.059783
 H    5.889398   -1.583869    0.584904
