57 
4hxl_ligand_dft.xyz
 C    6.652888   -0.957886    0.819620
 C    8.157095   -1.259248    0.968206
 C    9.025929   -0.300751    0.126047
 C    8.265161    0.179103   -1.111356
 C    7.033894    1.013279   -0.708162
 C    6.410234    0.543518    0.626487
 C    4.938229    0.955272    0.766438
 C    3.972072    0.168627   -0.116839
 C    2.560759    0.740341   -0.080004
 O    2.301866    1.847817    0.352440
 N    1.613411   -0.113839   -0.604271
 C    0.233317    0.086717   -0.746981
 C   -0.512003   -0.979361   -1.260332
 C   -0.398206    1.291503   -0.431690
 C   -1.779902    1.410532   -0.594320
 C   -2.440933    2.669724   -0.218710
 C   -2.092136    3.512431    0.772155
 S   -3.187669    4.867797    0.906256
 C   -4.170822    4.264446   -0.475485
 O   -5.139953    4.798813   -0.956005
 N   -3.594840    3.079855   -0.883921
 C   -2.531594    0.335690   -1.071920
 C   -1.887102   -0.852804   -1.408718
 N   -2.637937   -1.960367   -1.889965
 S   -2.746131   -3.357847   -0.955815
 O   -3.793282   -4.134484   -1.588808
 O   -1.397899   -3.855101   -0.765860
 C   -3.343343   -2.830692    0.615128
 S   -2.296878   -2.230001    1.850862
 C   -3.644261   -1.908599    2.865401
 C   -4.832942   -2.250448    2.283374
 C   -4.661688   -2.783654    0.978143
 H    6.105469   -1.326585    1.696166
 H    6.251754   -1.502442   -0.046243
 H    8.348330   -2.296483    0.669813
 H    8.446386   -1.181687    2.022688
 H    9.961544   -0.792569   -0.160560
 H    9.309174    0.573750    0.726188
 H    7.949948   -0.695979   -1.694961
 H    8.918344    0.765659   -1.766284
 H    6.290277    0.968845   -1.514133
 H    7.312459    2.069672   -0.612006
 H    6.945054    1.056796    1.438233
 H    4.831338    2.021099    0.538094
 H    4.626147    0.835591    1.811023
 H    3.944453   -0.886550    0.183028
 H    4.301720    0.180100   -1.164988
 H    1.947857   -1.017662   -0.906145
 H   -0.036973   -1.914715   -1.536303
 H    0.190185    2.126733   -0.080130
 H   -1.270375    3.382618    1.461035
 H   -3.921242    2.659214   -1.741781
 H   -3.615068    0.396082   -1.129757
 H   -3.562406   -1.724794   -2.237045
 H   -3.486652   -1.489196    3.850080
 H   -5.793479   -2.134308    2.769869
 H   -5.461560   -3.134732    0.337338
