37 
4hxs_ligand_xtb.xyz
 C    1.186123    0.026379   -2.227241
 C   -0.142033    0.153273   -2.593267
 C   -1.070713   -0.783850   -2.174203
 C   -0.666826   -1.846771   -1.383147
 C    0.660691   -1.976409   -1.018170
 C    1.601228   -1.040751   -1.438365
 C    3.017475   -1.171564   -1.012298
 S    3.215935   -0.687625    0.744684
 O    2.298676   -1.426192    1.552984
 O    4.611848   -0.737551    1.054189
 N    2.838119    0.940637    0.794374
 C    1.594748    1.510753    0.555706
 C    0.440699    0.781226    0.803002
 C    1.495858    2.811560    0.064116
 C    0.250241    3.356147   -0.186913
 C   -0.899571    2.616870    0.017308
 C   -0.810674    1.315243    0.513120
 C   -1.993033    0.485815    0.697653
 C   -2.123691   -0.592837    1.496763
 S   -3.686715   -1.334026    1.355063
 C   -4.187699   -0.123736    0.133498
 O   -5.247772   -0.090181   -0.429321
 N   -3.147086    0.731832   -0.028681
 H    1.906991    0.758335   -2.562474
 H   -0.449148    0.984003   -3.210977
 H   -2.105570   -0.692788   -2.468999
 H   -1.388408   -2.579087   -1.054145
 H    0.975838   -2.799584   -0.395748
 H    3.697471   -0.531334   -1.566405
 H    3.370700   -2.199485   -1.033507
 H    3.642664    1.523100    0.628462
 H    0.530683   -0.216724    1.192319
 H    2.391110    3.388302   -0.115889
 H    0.177538    4.367333   -0.558356
 H   -1.859736    3.067635   -0.182860
 H   -1.403823   -1.000205    2.174680
 H   -3.210019    1.472919   -0.710094
