58 
4hyu_ligand_dft.xyz
 N    5.277990    1.305365    0.065407
 C    4.216886    2.149477    0.079090
 N    4.488581    3.453710    0.257667
 C    3.427157    4.257039    0.240865
 C    2.121090    3.825663    0.062197
 C    1.976477    2.447277   -0.099926
 N    3.001366    1.606737   -0.096530
 N    0.712346    1.871839   -0.266603
 N   -0.385493    2.685292   -0.302155
 C   -1.421834    1.902411   -0.441138
 C    0.363146    0.537487   -0.383994
 C   -1.034770    0.531021   -0.498457
 C   -1.737391   -0.680966   -0.627408
 C   -1.013045   -1.860504   -0.642965
 C    0.393063   -1.824205   -0.528088
 C    1.110068   -0.652930   -0.397816
 C    5.170487   -0.135752   -0.048339
 C    4.685719   -0.800367    1.248302
 C    4.579433   -2.316553    1.078780
 C    5.909276   -2.917262    0.640120
 C    6.413383   -2.244175   -0.639777
 C    6.513527   -0.724472   -0.484352
 O    5.705039   -4.306454    0.457913
 O   -3.083991   -0.574424   -0.722877
 C   -3.846675   -1.764384   -0.819958
 C   -5.312452   -1.370797   -0.848162
 C   -5.709732   -0.611771    0.415614
 S   -7.465600   -0.216781    0.366926
 C   -7.725870    0.682890    1.893769
 O   -7.693492    0.704704   -0.743222
 O   -8.210461   -1.471295    0.450794
 H    6.169173    1.729060    0.273882
 H    3.634010    5.315995    0.382389
 H    1.273122    4.494034    0.056784
 H   -2.415634    2.323112   -0.501956
 H   -1.505594   -2.820166   -0.745271
 H    0.931611   -2.767341   -0.543773
 H    2.185682   -0.640659   -0.314194
 H    4.434477   -0.342705   -0.836036
 H    3.717738   -0.377718    1.533810
 H    5.394815   -0.557778    2.052113
 H    3.827329   -2.559559    0.315181
 H    4.254001   -2.792572    2.009092
 H    6.648472   -2.742406    1.442363
 H    5.715580   -2.492825   -1.449995
 H    7.391515   -2.656350   -0.920567
 H    7.275200   -0.480964    0.271780
 H    6.833966   -0.264213   -1.425335
 H    6.545014   -4.696758    0.188536
 H   -3.634437   -2.414723    0.040909
 H   -3.581340   -2.308487   -1.735805
 H   -5.919538   -2.277427   -0.939391
 H   -5.509956   -0.746803   -1.724829
 H   -5.158539    0.328223    0.498459
 H   -5.540889   -1.213324    1.314813
 H   -7.115263    1.587469    1.892395
 H   -8.785266    0.947178    1.916037
 H   -7.483600    0.040602    2.742273
