46 
4hzw_ligand_dft.xyz
 C    0.456824    2.201252   -0.165330
 C   -0.875241    2.224440   -0.288372
 C   -1.699135    0.966424   -0.231629
 C   -0.823813   -0.178777    0.320312
 C    0.547221   -0.141740   -0.369696
 O    1.198972    1.082443   -0.027805
 C    1.318452    3.418472   -0.152228
 O    2.521008    3.399814   -0.053841
 O    0.608078    4.556636   -0.255781
 C    1.447226   -1.295918    0.048793
 C    2.866079   -1.195680   -0.529658
 C    3.801197   -0.275580    0.249038
 O    5.096443   -0.515200   -0.298320
 O    1.415289   -1.380319    1.458264
 C    1.623392   -2.678669    1.971189
 O    3.403169   -2.506304   -0.541372
 N   -2.895356    1.188507    0.558388
 C   -4.080218    0.488048    0.349898
 N   -4.943767    0.611980    1.442975
 N   -4.447294   -0.208865   -0.657554
 C   -1.887810   -2.040901   -0.917085
 C   -2.781864   -3.249570   -0.767488
 O   -1.592896   -1.564458   -2.006439
 N   -1.472418   -1.474104    0.251322
 H   -1.387680    3.169598   -0.416877
 H   -2.012391    0.704347   -1.246873
 H   -0.631395    0.009442    1.380668
 H    0.413405   -0.171161   -1.457577
 H    1.256766    5.277682   -0.246043
 H    1.006901   -2.203197   -0.390127
 H    2.786878   -0.816105   -1.562009
 H    3.503352    0.769894    0.132997
 H    3.766682   -0.545025    1.312571
 H    5.740908   -0.032877    0.229229
 H    1.498923   -2.608557    3.054728
 H    0.879674   -3.382946    1.567240
 H    2.622335   -3.055563    1.733012
 H    4.359685   -2.381396   -0.638520
 H   -2.706368    1.383222    1.533714
 H   -5.018337    1.556295    1.802698
 H   -5.854545    0.240225    1.203445
 H   -3.715992   -0.309385   -1.357091
 H   -3.808272   -2.886099   -0.639248
 H   -2.728475   -3.846786   -1.678100
 H   -2.516399   -3.866419    0.096572
 H   -1.818185   -1.859505    1.115583
