52 
4i0d_ligand_xtb.xyz
 C    3.862613   -0.370569   -0.218680
 C    1.657812    0.269144    0.509019
 C    1.746777   -0.637223    1.559064
 C    2.872202   -1.426097    1.711351
 C    3.918982   -1.293389    0.813028
 C    2.609936    1.424216   -1.475000
 C    1.786881    2.639025   -1.003059
 C    0.494192    1.153185    0.291109
 C    2.591596    3.452998    0.019683
 C    1.431900    3.525387   -2.200039
 C   -2.842236    1.420951    1.839976
 C   -2.572196    1.306149   -0.626953
 C   -3.146980   -0.076197   -0.647724
 C   -4.394481   -0.340314   -0.168840
 C   -2.496281   -1.256355   -1.124847
Cl    5.325295   -2.283872    0.991069
 C    2.733202    0.415786   -0.373982
 N    0.539311    2.224710   -0.402202
 N   -0.670192    0.813183    0.913545
 C   -1.847924    1.608430    0.712456
 O   -2.576016    0.353414    2.601993
 O   -3.796802    2.124670    2.027152
 S   -4.814355   -1.999292   -0.278541
 C   -3.291587   -2.352936   -0.988549
 C   -1.130565   -1.315046   -1.744985
 C   -0.231305   -2.377251   -1.104449
 C    1.100790   -2.495144   -1.833081
 H    4.695104   -0.266895   -0.897513
 H    0.944977   -0.719338    2.277684
 H    2.940682   -2.136064    2.520332
 H    3.595438    1.742891   -1.816094
 H    2.094088    0.962164   -2.324743
 H    2.878307    2.825550    0.861318
 H    1.984608    4.274370    0.391551
 H    3.489390    3.857574   -0.441390
 H    2.333212    3.885384   -2.689169
 H    0.845568    4.374408   -1.861283
 H    0.838188    2.965976   -2.919145
 H   -1.848616    1.450810   -1.428319
 H   -3.375188    2.034562   -0.742566
 H   -5.097818    0.357764    0.240680
 H   -0.821078   -0.152969    1.154732
 H   -1.527527    2.655454    0.684112
 H   -3.251807    0.259962    3.292489
 H   -3.078846   -3.363460   -1.274801
 H   -0.642643   -0.342466   -1.669616
 H   -1.239887   -1.548137   -2.809096
 H   -0.736466   -3.343977   -1.124382
 H   -0.048533   -2.121685   -0.058196
 H    0.945161   -2.801542   -2.865338
 H    1.736745   -3.231223   -1.347364
 H    1.625361   -1.543043   -1.830952
