57 
4i10_ligand_dft.xyz
Cl   -6.253595   -2.046920   -1.547105
 C   -4.631071   -1.526702   -1.175601
 C   -4.118731   -1.751802    0.097069
 C   -2.828071   -1.336916    0.403399
 C   -2.059904   -0.684838   -0.569474
 C   -2.579014   -0.497654   -1.851188
 C   -3.868018   -0.911559   -2.161543
 C   -2.206354   -1.566495    1.753370
 C   -0.694265   -1.821774    1.627525
 N   -0.060842   -0.767378    0.829568
 C   -0.691736   -0.255932   -0.169397
 N   -0.112822    0.716875   -0.946340
 C    1.006792    1.573330   -0.539665
 C    0.810459    2.249072    0.840269
 C   -0.417759   -3.184088    0.973795
 C   -0.050295   -1.773343    3.014792
 C    2.374214    0.916163   -0.637099
 N    2.543071   -0.245452    0.047520
 C    4.584401    1.003376   -1.370983
 N    3.287438    1.541421   -1.308003
 O    5.471916    1.570626   -1.977845
 C   -0.520520    2.955836    0.906100
 C   -1.599519    2.383390    1.581617
 C   -2.850356    2.993383    1.576480
 C   -3.037728    4.192687    0.895931
 C   -1.966389    4.778902    0.225716
 C   -0.718932    4.162956    0.230493
 C    4.806678   -0.283402   -0.667507
 C    3.759315   -0.882914    0.036065
 C    3.987729   -2.095958    0.695817
 C    5.255882   -2.639798    0.611866
 N    6.282992   -2.085295   -0.055111
 C    6.044724   -0.934372   -0.672767
 H   -4.723313   -2.256609    0.843813
 H   -1.972378   -0.056142   -2.636152
 H   -4.273233   -0.768135   -3.156593
 H   -2.691549   -2.406249    2.262361
 H   -2.365341   -0.678342    2.380985
 H   -0.780326    1.226599   -1.504866
 H    1.046222    2.361590   -1.293193
 H    0.885365    1.501809    1.633664
 H    1.636504    2.957202    0.968517
 H   -0.889576   -3.258980   -0.010917
 H   -0.796574   -3.998396    1.601048
 H    0.659882   -3.325886    0.841998
 H    1.028277   -1.947956    2.939692
 H   -0.477565   -2.537505    3.673033
 H   -0.200707   -0.791797    3.476576
 H    1.713168   -0.626431    0.533218
 H   -1.451525    1.446635    2.112255
 H   -3.679720    2.530911    2.103789
 H   -4.012099    4.671602    0.890616
 H   -2.101672    5.720437   -0.298286
 H    0.115377    4.626947   -0.291552
 H    3.197838   -2.590705    1.252485
 H    5.471478   -3.582399    1.110076
 H    6.869188   -0.476048   -1.212928
