46 
4i11_ligand_dft.xyz
 O    2.459656   -0.716294    2.491509
 C    2.502966   -1.659021    1.531258
 O    3.416622   -2.441579    1.432658
 C    1.326122   -1.613612    0.575425
 C    1.853255   -1.386767   -0.867885
 C    2.417959   -0.001949   -1.049719
 C    1.581504    1.060236   -1.406008
 C    2.078039    2.356464   -1.505152
 C    3.424138    2.609634   -1.253008
 C    4.268033    1.558893   -0.903957
 C    3.767036    0.263984   -0.801710
 N    0.349091   -0.636300    0.980563
 C   -0.893383   -0.592533    0.408676
 N   -1.285635   -1.574176   -0.321052
 C   -2.628636   -1.517919   -0.902096
 C   -3.072631   -2.962535   -1.143814
 C   -2.561783   -0.771835   -2.244363
 C   -3.615117   -0.832848    0.063873
 C   -3.090275    0.508310    0.498621
 C   -1.705465    0.628641    0.674377
 C   -1.149227    1.864934    1.005778
 C   -1.969774    2.970045    1.208161
 C   -3.348216    2.844060    1.066396
 C   -3.901889    1.619467    0.702394
 H    3.273067   -0.819081    3.010998
 H    0.856329   -2.603051    0.597985
 H    2.605918   -2.152862   -1.075427
 H    1.003739   -1.551585   -1.535474
 H    0.531570    0.865026   -1.611597
 H    1.412234    3.167856   -1.785477
 H    3.815640    3.619305   -1.336366
 H    5.321072    1.746137   -0.714278
 H    4.428784   -0.553475   -0.525654
 H    0.670715    0.146941    1.522623
 H   -2.368097   -3.463137   -1.815083
 H   -3.092932   -3.518328   -0.200757
 H   -4.071503   -2.997714   -1.593910
 H   -2.279509    0.276920   -2.102960
 H   -1.815262   -1.243117   -2.891465
 H   -3.530815   -0.799583   -2.755847
 H   -3.739757   -1.479870    0.943924
 H   -4.601349   -0.727831   -0.402395
 H   -0.071498    1.989741    1.069045
 H   -1.530330    3.929104    1.464192
 H   -3.992398    3.704653    1.220671
 H   -4.975979    1.526379    0.563838
