42 
4i3z_ligand_dft.xyz
 P   -2.940710    0.221403   -0.682080
 O   -4.415275   -0.023354   -0.144461
 O   -2.422151   -0.715830   -1.697857
 O   -2.941482    1.760465   -0.988673
 P   -1.717154   -1.294555    1.346091
 O   -2.891075   -2.184956    1.247573
 O   -1.186102   -0.895249    2.794924
 O   -2.009676    0.151942    0.687400
 O   -0.348808   -1.789545    0.726501
 C   -0.273658   -2.817792   -0.281574
 C    1.133166   -2.819945   -0.854016
 O    1.331279   -1.694693   -1.720387
 C    2.268724   -2.745595    0.170604
 O    3.406769   -3.349725   -0.391105
 C    2.488920   -1.236636    0.311166
 O    3.809530   -0.967629    0.684395
 C    2.140657   -0.738457   -1.111117
 N    1.404807    0.527472   -1.058549
 C    0.221246    0.816150   -1.665837
 N   -0.252445    1.999444   -1.339004
 C    0.684547    2.515855   -0.463627
 C    0.770837    3.712210    0.272988
 N   -0.160576    4.683255    0.199369
 N    1.830778    3.899182    1.074487
 C    2.757935    2.940856    1.148567
 N    2.791410    1.768400    0.515967
 C    1.722566    1.611882   -0.280535
 H   -4.474893   -0.936198    0.193155
 H   -2.012033    2.032924   -1.255034
 H   -1.892264   -0.536300    3.349519
 H   -0.495409   -3.781283    0.186177
 H   -0.998523   -2.608505   -1.072049
 H    1.246034   -3.719654   -1.465762
 H    1.994133   -3.208947    1.127704
 H    4.170140   -2.875791   -0.027323
 H    1.772343   -0.824857    1.027907
 H    3.858776    0.001371    0.792906
 H    3.054362   -0.586213   -1.695160
 H   -0.280596    0.099156   -2.298352
 H   -1.028242    4.525621   -0.286330
 H   -0.087155    5.463111    0.833278
 H    3.589747    3.145984    1.817123
