47 
4i54_ligand_xtb.xyz
 N   -1.507272    2.880605    1.756095
 C   -1.041323    2.796066    0.578050
 N   -1.882899    2.780280   -0.506017
 C   -3.297017    2.577162   -0.284977
 C   -3.633296    1.208401    0.315318
 C   -5.143530    0.945343    0.439400
 C   -5.271339   -0.532734    0.225699
 C   -6.347902   -1.357547    0.486395
 C   -6.238511   -2.711132    0.200299
 C   -5.073573   -3.229124   -0.340888
 C   -3.992013   -2.402006   -0.608714
 C   -4.104200   -1.056720   -0.320473
 C   -3.076598    0.024695   -0.514279
 N   -1.760750   -0.381049   -0.081796
 C   -0.628118   -0.091538   -0.711312
 O   -0.518270    0.495625   -1.781986
 C    0.609007   -0.560610    0.059280
 O    0.520000   -1.161041    1.111478
 N    1.729031   -0.194935   -0.598726
 C    3.060669   -0.371854   -0.249748
 C    4.039802    0.121805   -1.110334
 C    5.372497   -0.039033   -0.790517
 F    6.298838    0.445514   -1.634187
 C    5.763292   -0.685421    0.377587
Cl    7.435605   -0.875893    0.754095
 C    4.781341   -1.171881    1.228914
 C    3.442985   -1.019696    0.923942
 N    0.306852    2.690880    0.243494
 H   -0.797800    2.953014    2.477246
 H   -1.504859    2.300872   -1.314646
 H   -3.628763    3.350850    0.410786
 H   -3.802690    2.709307   -1.245206
 H   -3.172558    1.172399    1.306396
 H   -5.691769    1.480716   -0.341276
 H   -5.539588    1.263759    1.402846
 H   -7.256503   -0.958149    0.911770
 H   -7.070542   -3.368496    0.404477
 H   -5.005163   -4.285274   -0.554783
 H   -3.081197   -2.801916   -1.029620
 H   -2.986231    0.292441   -1.575281
 H   -1.668905   -0.835313    0.820067
 H    1.530298    0.295698   -1.469818
 H    3.776570    0.627113   -2.026846
 H    5.074818   -1.673736    2.136575
 H    2.685874   -1.399701    1.589219
 H    0.551110    2.947448   -0.700724
 H    0.951481    3.037332    0.937758
