36 
4i73_ligand_dft.xyz
 O    4.811367   -0.996343   -0.722810
 C    3.675910   -1.010512   -0.310938
 N    2.985644   -2.227700   -0.075904
 C    1.708605   -2.336570    0.365933
 N    0.950545   -1.325376    0.657440
 C    1.531905   -0.085315    0.476797
 C    2.815256    0.109630    0.010661
 C    0.843032    1.145729    0.717238
 C    1.634276    2.217983    0.420187
 S    3.207176    1.780350   -0.132757
 C   -0.544628    1.182185    1.281039
 N   -1.407618    0.158688    0.610602
 C   -1.649232    0.321723   -0.876689
 C   -1.937314    1.753637   -1.288217
 O   -2.979549    2.263598   -0.483610
 C   -2.774745   -0.688164   -1.075863
 O   -2.176084   -1.955771   -0.983742
 C   -3.702520   -0.490177    0.147664
 O   -4.302936   -1.712699    0.514414
 C   -2.749128   -0.033129    1.265358
 H    3.519387   -3.065689   -0.278421
 H    1.319667   -3.344330    0.471355
 H    1.380795    3.265905    0.522669
 H   -0.540797    0.913624    2.342590
 H   -1.027997    2.154671    1.173451
 H   -0.876240   -0.736245    0.679070
 H   -0.748687   -0.020696   -1.392488
 H   -2.206101    1.734774   -2.352983
 H   -1.021570    2.352563   -1.191006
 H   -3.239786    3.132684   -0.812150
 H   -3.291265   -0.543089   -2.033306
 H   -2.853258   -2.548738   -0.616395
 H   -4.444031    0.285631   -0.051015
 H   -5.208306   -1.742669    0.183324
 H   -3.052199    0.917963    1.700027
 H   -2.655297   -0.793644    2.041377
