36 
4i73_ligand_xtb.xyz
 O    4.680253   -1.181844   -0.631086
 C    3.537883   -1.087565   -0.274174
 N    2.741548   -2.243151   -0.080492
 C    1.452941   -2.238024    0.300800
 N    0.780879   -1.167899    0.557863
 C    1.448236    0.023022    0.417657
 C    2.771783    0.104932    0.010990
 C    0.862092    1.298048    0.641946
 C    1.757115    2.297634    0.395930
 S    3.305734    1.738523   -0.095643
 C   -0.547561    1.417643    1.139265
 N   -1.357312    0.323132    0.572828
 C   -1.672899    0.403109   -0.880788
 C   -2.235593    1.746516   -1.346716
 O   -3.310445    2.144377   -0.528294
 C   -2.638357   -0.780435   -1.015044
 O   -1.853216   -1.938772   -1.010691
 C   -3.518693   -0.700778    0.261309
 O   -3.803760   -2.009913    0.669451
 C   -2.635634    0.074142    1.269969
 H    3.217007   -3.120003   -0.264368
 H    0.947714   -3.188977    0.393166
 H    1.589781    3.352560    0.493639
 H   -0.555835    1.301359    2.228314
 H   -0.990254    2.385559    0.899916
 H   -0.717822   -0.547361    0.640194
 H   -0.766178    0.192581   -1.453015
 H   -2.554542    1.616672   -2.388020
 H   -1.437544    2.502362   -1.333696
 H   -3.762826    2.892639   -0.932961
 H   -3.246902   -0.723589   -1.925858
 H   -2.407696   -2.670431   -0.702548
 H   -4.431457   -0.137453    0.048877
 H   -4.565355   -2.026014    1.257183
 H   -3.095231    1.027955    1.527847
 H   -2.460950   -0.519050    2.168331
