70 
4i7f_ligand_xtb.xyz
 C   -0.263800   -1.894210   -0.938672
 C   -1.264581   -2.184524    0.171766
 N   -2.403614   -1.280682    0.039927
 C   -3.669433   -1.806084    0.288198
 C   -4.850038   -1.192313   -0.179549
 N   -4.860279   -0.131895   -1.100112
 C   -5.872248   -0.168897   -2.141841
 C   -4.083553    0.985719   -1.053987
 O   -4.248677    1.894442   -1.849984
 C   -3.018882    1.092528   -0.026325
 C   -2.691459    2.380861    0.383138
 C   -1.577516    2.617277    1.175759
 C   -0.795066    1.510157    1.478579
 N   -1.078560    0.282172    1.094774
 C   -2.173661    0.047059    0.378550
 C   -6.056080   -1.769286    0.202338
 C   -6.069900   -2.927222    0.966504
 C   -4.854484   -3.496885    1.289640
 N   -3.699872   -2.938987    0.972100
 C    7.314999   -0.933086    0.484552
 C    6.545072   -0.744696   -0.811781
 O    5.661542   -1.841132   -1.049178
 P    4.142238   -1.831279   -0.596855
 C    3.355278   -0.369496   -1.438369
 O    3.678456    0.816112   -0.754113
 C    2.696385    1.755923   -0.576842
 C    2.903611    2.672714    0.451980
 C    1.950036    3.628397    0.733864
 C    0.769682    3.697203    0.002506
 C    0.593859    2.809066   -1.048322
 C    1.545753    1.850996   -1.349020
 C   -0.334954    4.630194    0.403691
 C   -1.150217    4.001421    1.555617
 O    4.225540   -1.451166    0.964056
 C    3.173130   -1.849118    1.832490
 C    2.138337   -0.749229    1.999668
 O    3.457040   -3.088774   -0.883749
 H   -0.718625   -2.057955   -1.913191
 H    0.057610   -0.856611   -0.877915
 H    0.603058   -2.543384   -0.843471
 H   -0.794622   -2.058736    1.149892
 H   -1.647446   -3.200356    0.090401
 H   -6.805773    0.293950   -1.813853
 H   -5.494441    0.400477   -2.990373
 H   -6.054436   -1.200820   -2.436225
 H   -3.312665    3.197223    0.042406
 H    0.115040    1.609804    2.056028
 H   -6.986697   -1.323373   -0.112265
 H   -7.000792   -3.378806    1.268475
 H   -4.783222   -4.430895    1.829268
 H    6.626246   -0.934109    1.324101
 H    7.846072   -1.881194    0.466647
 H    8.031266   -0.124554    0.606674
 H    7.229099   -0.733397   -1.666572
 H    5.982082    0.191021   -0.785029
 H    2.281938   -0.570539   -1.435331
 H    3.695447   -0.333405   -2.480747
 H    3.815403    2.606577    1.025096
 H    2.117469    4.322864    1.544641
 H   -0.306330    2.857636   -1.644147
 H    1.380012    1.191140   -2.187033
 H   -0.997098    4.805978   -0.445340
 H    0.068747    5.588262    0.735791
 H   -0.528143    3.957796    2.451277
 H   -2.020805    4.626108    1.762386
 H    3.652795   -2.072137    2.790574
 H    2.712772   -2.761612    1.440129
 H    2.626884    0.179098    2.286654
 H    1.592803   -0.584803    1.075003
 H    1.426237   -1.029003    2.771001
