12 
4i7j_ligand_dft.xyz
 C   -0.934472   -1.032665   -0.000065
 C   -1.361638    0.293302    0.000120
 C   -0.427043    1.325553   -0.000121
 C    0.934735    1.032562    0.000043
 C    1.361606   -0.293001    0.000000
 C    0.426809   -1.325728   -0.000003
 H   -1.663721   -1.837705   -0.000234
 H   -2.423595    0.521232    0.000304
 H   -0.759794    2.359640   -0.000160
 H    1.663450    1.838014    0.000090
 H    2.423435   -0.521851    0.000025
 H    0.760247   -2.359459    0.000126
