15 
4i7k_ligand_xtb.xyz
 C   -2.402811    0.003369    0.000834
 C   -0.903715    0.009772   -0.000849
 C   -0.200974   -1.190147   -0.000850
 C    1.181407   -1.200817   -0.000034
 C    1.885273   -0.008005    0.000751
 C    1.196558    1.191883   -0.000073
 C   -0.188032    1.198975   -0.000798
 H   -2.780991   -0.526822   -0.872508
 H   -2.778239   -0.507198    0.887102
 H   -2.797837    1.016023   -0.009489
 H   -0.746884   -2.123396   -0.001029
 H    1.712456   -2.141893    0.000354
 H    2.965281   -0.014821    0.002351
 H    1.738277    2.126798    0.000219
 H   -0.718292    2.141125   -0.000896
