77 
4i8z_ligand_xtb.xyz
 O    0.316530    1.335041    3.000453
 C    0.366138    1.748810    1.869543
 O    1.532605    2.014634    1.212627
 C    2.711526    1.858097    1.988888
 C    3.903083    2.550714    1.304088
 C    3.530729    3.448779    0.124751
 C    3.496504    2.448230   -1.030829
 O    4.547704    1.531687   -0.749508
 C    4.680634    1.395593    0.632149
 O    4.132151    0.175878    1.085862
 C    3.145462    0.389623    2.077551
 N   -0.679091    2.033673    1.077800
 C   -2.052137    1.794294    1.454734
 C   -2.903797    3.045442    1.167589
 C   -2.793089    3.467186   -0.270211
 C   -3.681570    2.984884   -1.223542
 C   -3.538308    3.325334   -2.556704
 C   -2.505356    4.156500   -2.955762
 C   -1.623257    4.655324   -2.012974
 C   -1.767264    4.312538   -0.679506
 C   -2.605672    0.565768    0.711695
 O   -3.926278    0.356549    1.151866
 C   -1.746708   -0.681448    0.977212
 N   -2.232828   -1.789745    0.180725
 C   -2.390343   -3.070049    0.839807
 C   -3.712739   -3.141989    1.616831
 C   -3.724163   -4.371535    2.520824
 C   -4.883274   -3.177659    0.636685
 S   -1.619662   -1.833598   -1.375198
 O   -1.752239   -0.511982   -1.918081
 O   -2.265647   -2.918979   -2.048917
 C    0.128343   -2.195176   -1.210557
 C    1.042560   -1.159449   -1.268247
 C    2.396843   -1.431601   -1.160010
 C    0.538374   -3.505916   -1.055017
 C    1.889770   -3.778848   -0.950090
 C    2.823636   -2.746020   -0.990574
 C    4.274260   -3.125691   -0.921548
 O    4.664178   -4.214752   -1.292785
 N    5.098009   -2.180421   -0.430127
 H    2.514829    2.259364    2.988393
 H    4.507986    3.063833    2.049887
 H    2.578244    3.950075    0.267799
 H    4.315073    4.187971   -0.037373
 H    3.706466    2.888937   -2.005155
 H    2.531978    1.927905   -1.059755
 H    5.757290    1.385601    0.855064
 H    3.571486    0.174265    3.064466
 H    2.311975   -0.290578    1.890844
 H   -0.509653    2.336245    0.129707
 H   -2.059253    1.586988    2.529426
 H   -2.563716    3.850229    1.821587
 H   -3.935403    2.797699    1.414157
 H   -4.491295    2.341370   -0.913783
 H   -4.233004    2.939361   -3.287356
 H   -2.391162    4.419847   -3.996698
 H   -0.821187    5.313312   -2.315844
 H   -1.083641    4.717107    0.055027
 H   -2.589452    0.759578   -0.369618
 H   -4.233273   -0.464660    0.748090
 H   -0.698440   -0.472133    0.734951
 H   -1.810901   -0.939331    2.036717
 H   -1.540773   -3.270336    1.507053
 H   -2.405222   -3.819757    0.048112
 H   -3.795441   -2.247741    2.243951
 H   -3.598024   -5.276794    1.931250
 H   -4.669924   -4.436885    3.052668
 H   -2.921636   -4.322768    3.253499
 H   -5.825700   -3.005903    1.151336
 H   -4.756216   -2.423481   -0.136937
 H   -4.928504   -4.146885    0.145239
 H    0.677013   -0.157261   -1.434114
 H    3.115131   -0.630225   -1.237211
 H   -0.197540   -4.293757   -1.052305
 H    2.248834   -4.792277   -0.853271
 H    4.765425   -1.325476   -0.012183
 H    6.076426   -2.405440   -0.356022
