87 
4i9c_ligand_dft.xyz
 N    1.663810    0.941588   -0.977262
 C    3.145323    0.932387   -1.173876
 C    3.577952   -0.537367   -1.276625
 O    3.780735   -1.041753   -2.371051
 C    3.850629    1.762033   -0.093585
 C    3.180975    3.102455    0.276808
 C    2.790881    3.970450   -0.900447
 O    1.908957    3.615012   -1.702412
 N    3.427275    5.137417   -1.053708
 N    3.624847   -1.222384   -0.107874
 C    3.616942   -2.684287   -0.112133
 C    2.156811   -3.087792   -0.368949
 O    1.309439   -3.190167    0.515072
 C    4.283627   -3.297059    1.128191
 C    3.617106   -3.240448    2.513894
 C    3.374627   -1.854206    3.113558
 N    2.267235   -1.200161    2.441277
 C    1.980280    0.138696    2.553354
 N    0.918808    0.529031    1.720299
 N    2.639525    1.050195    3.167066
 N    1.842665   -3.233568   -1.680131
 C    0.464038   -3.392296   -2.062617
 C   -0.326464   -2.084057   -1.984808
 O    0.174371   -1.001529   -2.283984
 N   -1.623918   -2.210930   -1.658716
 C   -2.548459   -1.098674   -1.661281
 C   -2.108763    0.004962   -0.682255
 O   -1.424673   -0.227336    0.302977
 C   -3.966553   -1.592301   -1.312488
 C   -4.095200   -2.245646    0.068145
 S   -5.778772   -2.829638    0.427434
 C   -6.603395   -1.256241    0.788820
 N   -2.623069    1.224082   -0.979791
 C   -2.474205    2.433486   -0.167855
 C   -1.040686    2.949829   -0.324208
 O   -0.825060    3.400001   -1.555983
 C   -2.914390    2.291394    1.297828
 C   -4.281236    1.596651    1.414863
 C   -2.915892    3.668886    1.972596
 C   -5.435855    2.273957    0.676298
 O   -0.187981    2.933264    0.539869
 H    1.351613    1.892438   -1.230559
 H    1.177784    0.245974   -1.574812
 H    1.381866    0.759767    0.028975
 H    3.318784    1.359883   -2.162007
 H    4.874762    1.931391   -0.441126
 H    3.921998    1.206267    0.846665
 H    2.259985    2.912579    0.837449
 H    3.849559    3.633264    0.959309
 H    3.171462    5.738945   -1.824655
 H    4.137215    5.454406   -0.412242
 H    3.232863   -0.812622    0.735274
 H    4.219329   -2.981412   -0.973881
 H    5.278574   -2.838871    1.190662
 H    4.449938   -4.355153    0.896665
 H    2.675600   -3.797019    2.501750
 H    4.284254   -3.775641    3.197770
 H    4.276810   -1.236893    2.998139
 H    3.179543   -1.948831    4.189668
 H    1.591072   -1.819946    2.002750
 H    0.557857    1.447299    1.962864
 H    0.148163   -0.124598    1.604506
 H    3.404225    0.661158    3.714088
 H    2.504898   -2.891859   -2.367205
 H    0.011018   -4.160557   -1.431296
 H    0.426240   -3.737965   -3.100040
 H   -1.957475   -3.107830   -1.340422
 H   -2.566628   -0.673053   -2.672557
 H   -4.643537   -0.733870   -1.375921
 H   -4.288688   -2.301301   -2.082856
 H   -3.757940   -1.573206    0.863088
 H   -3.473584   -3.143987    0.146216
 H   -7.648546   -1.490341    1.003186
 H   -6.164557   -0.775754    1.667589
 H   -6.575184   -0.570083   -0.062349
 H   -3.081243    1.336131   -1.871618
 H   -3.112743    3.179540   -0.651555
 H    0.114501    3.686855   -1.631647
 H   -2.179493    1.661899    1.807306
 H   -4.189065    0.564258    1.061282
 H   -4.523474    1.528698    2.482018
 H   -3.286100    3.581612    2.998536
 H   -1.910258    4.093955    2.018279
 H   -3.562730    4.380413    1.446552
 H   -5.565235    3.316670    0.981844
 H   -5.290093    2.258025   -0.410693
 H   -6.378103    1.757862    0.882671
