64 
4i9z_ligand_xtb.xyz
 C    6.617566    0.000073    1.420235
 C    7.705610   -0.815394    0.722384
 N    7.932410   -0.374040   -0.647841
 C    7.689625   -3.198426   -2.604687
 C    6.745879    0.218656   -1.254608
 C    5.504662   -0.463596   -0.687543
 N    5.339436   -0.204377    0.746246
 C    4.377990    0.851013    1.026483
 C    2.988606    0.289663    0.882569
 O    2.891793   -1.052245    0.992817
 C    1.835142    1.051748    0.682817
 C    0.579935    0.414576    0.544536
 C    1.839885    2.468575    0.613611
 C    0.677464    3.167576    0.405476
 C   -0.554905    2.525941    0.264013
 O   -1.723166    3.196135    0.050649
 C   -1.716187    4.588306   -0.206993
 C   -3.140756    4.994019   -0.577062
 C   -3.581952    4.386179   -1.903130
 C   -0.597034    1.109793    0.342663
 C   -1.822211    0.316019    0.213034
 N   -1.705906   -0.973076    0.089324
 N   -3.035951    0.916571    0.231917
 C   -4.245782    0.232968    0.124981
 O   -5.298799    0.832653    0.141485
 C   -4.054137   -1.192851   -0.001263
Br   -5.650387   -2.200022   -0.126917
 C   -2.805724   -1.748672   -0.025909
 C   -2.557497   -3.228238   -0.131834
 C   -2.446222   -3.799169    1.285815
 C   -1.289987   -3.513250   -0.932116
 H    6.913645    1.062381    1.419012
 H    6.512552   -0.319556    2.462150
 H    7.399684   -1.867271    0.699986
 H    8.637636   -0.751301    1.285459
 H    8.707346    0.276735   -0.699642
 H    6.671742   -3.520841   -2.633888
 H    7.976061   -2.364426   -2.002121
 H    8.416115   -3.706775   -3.199295
 H    6.798581    0.061629   -2.335943
 H    6.671936    1.304508   -1.075250
 H    5.603029   -1.542050   -0.841313
 H    4.611816   -0.123922   -1.215719
 H    3.806363   -1.384728    1.082262
 H    4.512047    1.729557    0.377100
 H    4.526509    1.181669    2.063208
 H    0.534637   -0.659807    0.596680
 H    2.761910    3.014293    0.732691
 H    0.723907    4.244397    0.360786
 H   -1.031123    4.813756   -1.034443
 H   -1.388088    5.133588    0.688441
 H   -3.181217    6.082897   -0.633613
 H   -3.814927    4.669519    0.217488
 H   -2.937258    4.722838   -2.712598
 H   -3.542667    3.300864   -1.858993
 H   -4.603214    4.680118   -2.128855
 H   -3.088193    1.928162    0.312220
 H   -3.412825   -3.694948   -0.630001
 H   -1.619837   -3.327092    1.812279
 H   -3.364179   -3.624206    1.842597
 H   -2.268920   -4.870728    1.241259
 H   -1.377615   -3.112453   -1.939103
 H   -0.433110   -3.050821   -0.451626
 H   -1.127161   -4.586170   -0.997074
