47 
4ibd_ligand_xtb.xyz
 O    3.835629    0.087476    2.480765
 C    4.623501   -0.555151    1.596607
 O    5.821613   -0.570707    1.732225
 C    3.858937   -1.194150    0.502454
 C    2.467774   -1.192501    0.585996
 C    4.504576   -1.785343   -0.594028
 C    5.988686   -1.819350   -0.732463
 C    3.703563   -2.354502   -1.578534
 C    2.326029   -2.344302   -1.507031
 C    1.688721   -1.755743   -0.414632
 N    0.288674   -1.717845   -0.328951
 C   -0.399667   -0.917014    0.671723
 C   -0.029701    0.532013    0.588525
 S    0.054868    1.496606    2.018781
 C    0.462504    2.886228    1.101430
 C    0.518042    2.604053   -0.227095
Br    0.938781    3.886620   -1.548708
 C    0.232368    1.255461   -0.534148
 C   -0.595832   -2.336914   -1.152699
 O   -0.408624   -3.088403   -2.092002
 C   -1.961174   -1.947416   -0.702174
 O   -2.999748   -2.468823   -1.343841
 C   -1.867924   -1.113644    0.352766
 C   -2.887479   -0.511270    1.217380
 O   -2.600595   -0.118666    2.334223
 C   -4.258741   -0.420712    0.666775
 C   -4.487514   -0.058470   -0.657585
 C   -5.782116    0.049044   -1.129086
 C   -6.853755   -0.210682   -0.289693
 C   -6.631528   -0.557174    1.033318
 C   -5.339641   -0.649557    1.514626
 H    4.388808    0.482922    3.172174
 H    2.018823   -0.741135    1.453613
 H    6.400498   -0.812833   -0.692229
 H    6.274815   -2.287886   -1.670710
 H    6.433575   -2.370092    0.094249
 H    4.174705   -2.817414   -2.432970
 H    1.742053   -2.794997   -2.291789
 H   -0.194104   -1.287365    1.684265
 H    0.631569    3.828453    1.582468
 H    0.237424    0.858141   -1.532984
 H   -2.637832   -3.062420   -2.031556
 H   -3.654915    0.164808   -1.307493
 H   -5.957646    0.336815   -2.154985
 H   -7.863314   -0.134466   -0.665740
 H   -7.466699   -0.749486    1.690266
 H   -5.147674   -0.909959    2.544798
