44 
4ibe_ligand_dft.xyz
 O    3.468265   -0.468496    2.957167
 C    4.326158   -0.510850    1.914337
 O    5.462470   -0.119844    2.007351
 C    3.677324   -1.066860    0.688219
 C    2.281074   -1.098823    0.640908
 C    4.398124   -1.525288   -0.421730
Cl    6.134285   -1.578331   -0.474430
 C    3.714585   -1.993518   -1.540232
 C    2.329543   -2.003749   -1.586121
 C    1.598175   -1.554238   -0.482567
 N    0.184759   -1.542175   -0.493378
 C   -0.616558   -0.840391    0.516447
 C   -0.323952    0.642005    0.510250
 S   -0.478721    1.604155    1.940487
 C    0.024090    3.023891    1.107001
 C    0.281467    2.753971   -0.201188
Br    0.856092    4.047982   -1.438607
 C    0.086858    1.389612   -0.553806
 C   -0.621623   -2.178720   -1.393224
 O   -0.343155   -2.862828   -2.365961
 C   -2.026539   -1.923430   -0.973295
 O   -2.980349   -2.501453   -1.692007
 C   -2.051415   -1.156378    0.128307
 C   -3.127050   -0.783801    1.072878
 O   -2.819751   -0.595973    2.242379
 C   -4.536675   -0.652374    0.615177
 C   -5.549491   -0.775292    1.571932
 C   -6.878637   -0.623451    1.203544
 C   -7.203383   -0.326576   -0.119589
 C   -6.198097   -0.182400   -1.071302
 C   -4.866361   -0.349202   -0.707574
 H    3.961469   -0.062271    3.686993
 H    1.745180   -0.742644    1.509781
 H    4.281170   -2.352380   -2.391970
 H    1.819617   -2.371981   -2.465810
 H   -0.421129   -1.262317    1.508368
 H    0.089646    3.974684    1.615867
 H    0.270038    0.992129   -1.544424
 H   -2.514888   -3.006088   -2.387839
 H   -5.274185   -0.988544    2.599512
 H   -7.662707   -0.730185    1.946737
 H   -8.243286   -0.201430   -0.406652
 H   -6.449615    0.061001   -2.098786
 H   -4.086659   -0.225042   -1.451055
