47 
4ibk_ligand_dft.xyz
 C   -0.692067    1.568130   -1.202983
 C   -0.915699    2.824222   -0.691277
 O   -1.024068    4.005209   -1.364712
 C   -1.457196    4.955497   -0.399695
 O   -1.243574    4.392318    0.892231
 C   -1.045273    3.066816    0.671572
 C   -0.943075    2.038164    1.581345
Cl   -1.100908    2.335943    3.284102
 C   -0.712292    0.748410    1.089364
 C   -0.595070    0.517091   -0.275953
 C   -0.319381   -0.887937   -0.789379
 C    1.155697   -1.243490   -0.723745
 C    2.097256   -0.495331   -1.582145
 O    1.679252    0.002512   -2.619269
 C    3.511176   -0.320240   -1.205384
 C    4.459824    0.197732   -2.052834
 C    5.728513    0.359790   -1.449256
 C    5.706779   -0.025967   -0.137101
Cl    7.033538    0.014335    0.959622
 S    4.169748   -0.606724    0.376508
 C    1.289777   -2.340494    0.037031
 O    2.337550   -3.082395    0.372727
 C   -0.041017   -2.797978    0.521093
 O   -0.171480   -3.791304    1.220789
 N   -0.965728   -1.929834    0.016799
 C   -2.368168   -2.003033    0.189300
 C   -3.198866   -1.204916   -0.595276
 C   -2.934614   -2.856989    1.143725
 C   -4.315564   -2.904132    1.294624
 C   -5.149566   -2.110087    0.517736
 C   -4.580446   -1.258130   -0.427537
 C   -5.401539   -0.371613   -1.295406
 O   -4.953987    0.391056   -2.121525
 O   -6.723891   -0.496546   -1.074698
 H   -0.574543    1.398241   -2.266614
 H   -0.867632    5.868372   -0.496823
 H   -2.528214    5.154120   -0.536331
 H   -0.646145   -0.073245    1.794449
 H   -0.655219   -0.968726   -1.829005
 H    4.225266    0.454897   -3.078352
 H    6.611032    0.743282   -1.944932
 H    1.978438   -3.811541    0.916253
 H   -2.807426   -0.520632   -1.337900
 H   -2.296405   -3.483034    1.752044
 H   -4.740687   -3.572727    2.036299
 H   -6.225546   -2.146054    0.641336
 H   -7.157040    0.118881   -1.686706
