15 
4idz_ligand_xtb.xyz
 C   -2.227498    0.244295    0.185110
 C   -0.800507   -0.138480   -0.247360
 C    1.408299    0.776345   -0.802953
 C    2.347048   -0.006557    0.151339
 O   -2.531629    1.375252    0.442959
 O   -3.021429   -0.805235    0.222616
 O   -0.550937   -1.319154   -0.493810
 O    3.328626    0.495101    0.612059
 N    0.048024    0.878000   -0.315412
 O    1.995165   -1.257620    0.379782
 H    1.406603    0.247315   -1.764189
 H    1.814006    1.777462   -0.939059
 H   -2.505954   -1.600893   -0.034256
 H   -0.313277    1.782134   -0.035485
 H    1.140029   -1.512391   -0.044786
