15 
4idz_ligand_dft.xyz
 C   -2.263833    0.376878   -0.034099
 C   -0.968210   -0.454747   -0.094011
 C    1.375331   -0.372967   -0.818465
 C    2.525326    0.088000    0.083002
 O   -2.309928    1.531635   -0.371577
 O   -3.282987   -0.331029    0.419893
 O   -0.978254   -1.624987    0.253129
 O    3.668574   -0.137981   -0.201373
 N    0.098761    0.248733   -0.530572
 O    2.178009    0.727393    1.207533
 H    1.258342   -1.452287   -0.683729
 H    1.671266   -0.190932   -1.853885
 H   -2.939687   -1.228637    0.605196
 H   -0.108657    1.178784   -0.877305
 H    1.212409    0.808708    1.244316
