22 
4ie5_ligand_xtb.xyz
 C   -3.253474    0.279292    0.153494
 N   -1.004444   -0.651690    0.600323
 O   -2.588495    1.320153   -0.343340
 C   -2.403765   -0.962595    0.453859
 N    2.303826   -1.304008    0.204105
 O   -4.432886    0.309612    0.351267
 C   -0.071571   -1.076616   -0.295003
 O   -0.332582   -1.773919   -1.244741
 C    1.290828   -0.494016   -0.033872
 O    0.343319    1.668530   -0.357430
 C    3.511662   -0.793230    0.359119
 C    3.774823    0.565358    0.269081
 C    2.720586    1.428152    0.019779
 C    1.445729    0.898545   -0.127479
 H   -0.715774   -0.140773    1.419910
 H   -1.633352    1.146501   -0.445213
 H   -2.492063   -1.645980   -0.398945
 H   -2.808833   -1.459295    1.339159
 H    0.597940    2.593225   -0.473161
 H    4.296280   -1.508347    0.559478
 H    4.777184    0.944427    0.388722
 H    2.879200    2.495787   -0.060856
