34 
4igt_ligand_dft.xyz
 O    4.360900    0.764012    0.756106
 C    1.911421    1.359983   -0.125652
 C   -0.634569    1.310710    0.403199
 O   -3.276686   -2.143920   -0.389447
 O   -3.385323   -0.755166    1.385177
 C   -1.964555    1.573906   -0.275417
 C    2.450433   -0.049908   -0.302553
 C   -1.234244   -1.276115    0.413645
 C   -0.620779   -0.062292    1.120872
 C    0.484344    1.561433   -0.640666
 N   -0.850206   -1.358894   -1.027706
 C   -2.758973   -1.329491    0.538186
 O   -2.621340    2.605782    0.219709
 O   -2.380461    0.911196   -1.215394
 O    1.787727   -0.990038   -0.768729
 N    3.733973   -0.248774    0.051080
 C    4.379440   -1.545603    0.137358
 H    5.046675    1.111835    0.163460
 H    2.004518    1.642897    0.929251
 H    2.586117    2.038818   -0.656982
 H   -0.512214    2.061147    1.189116
 H   -4.241660   -2.172387   -0.272401
 H   -0.849529   -2.183294    0.891142
 H    0.411097   -0.300121    1.386794
 H   -1.173145    0.033123    2.059128
 H    0.332234    0.971465   -1.548612
 H    0.386814    2.606338   -0.952576
 H   -1.340726   -0.583806   -1.514654
 H    0.193607   -1.230298   -1.098478
 H   -1.141257   -2.245694   -1.443411
 H   -3.456753    2.708211   -0.269322
 H    3.758983   -2.267447   -0.390901
 H    5.363844   -1.495156   -0.334666
 H    4.491390   -1.832613    1.186292
