17 
4ih3_ligand_dft.xyz
 N   -0.052632   -0.471173   -0.018972
 C   -1.180201    0.234031   -0.004007
 C   -1.223534    1.623379    0.082131
 C   -0.016925    2.303091    0.160281
 C    1.170777    1.575592    0.132287
 C    1.106337    0.185393    0.037215
 C   -2.457154   -0.573055   -0.077171
 O   -2.263237   -1.887994   -0.120141
 O   -3.545145   -0.056141   -0.093760
 C    2.344707   -0.683639    0.047450
 O    3.435274   -0.152228   -0.545341
 O    2.380155   -1.762622    0.565080
 H   -2.183273    2.126513    0.094378
 H    0.005012    3.384519    0.247279
 H    2.126305    2.083579    0.222637
 H   -1.297821   -2.044293   -0.087972
 H    3.197786    0.631012   -1.059332
