24 
4iic_ligand_xtb.xyz
 O   -2.114837   -1.006852   -0.532569
 C   -0.913561   -0.368980   -0.887393
 C   -0.988839    1.027057   -0.222443
 O   -0.031447    1.923165   -0.749100
 C   -0.800708    0.914654    1.295300
 N    0.391825    0.107570    1.621111
 C    0.259439   -1.278640    1.119935
 C    0.293673   -1.210686   -0.407099
 C    1.671815   -0.726753   -0.899185
 O    2.130545    0.451341   -0.257487
 H   -2.296983   -1.747436   -1.120883
 H   -0.843770   -0.225306   -1.975360
 H   -2.004309    1.399715   -0.392992
 H   -0.409865    2.444541   -1.463475
 H   -0.684290    1.917262    1.709515
 H   -1.687287    0.439784    1.719342
 H    1.238207    0.479214    1.064754
 H    0.571640    0.129008    2.626096
 H    1.088752   -1.880165    1.494431
 H   -0.686534   -1.708653    1.458136
 H    0.155905   -2.221443   -0.802605
 H    2.413102   -1.495379   -0.665081
 H    1.654280   -0.593299   -1.983859
 H    1.743375    1.228020   -0.697242
