26 
4iie_ligand_dft.xyz
 O   -2.647271   -0.017637   -0.553896
 C   -1.349364   -0.179911   -0.132124
 N   -0.689387   -1.151533   -1.106153
 C   -1.166232   -0.929483    1.197543
 C    0.096740   -1.811045    1.024098
 C    0.591883   -1.526617   -0.403361
 C   -0.541572    1.121888   -0.241421
 O   -1.233462    2.038942    0.556261
 C    0.907759    0.924510    0.188630
 O    1.577775    2.108293   -0.147842
 C    1.531621   -0.301436   -0.492257
 O    2.733478   -0.559467    0.180282
 H   -2.935031    0.874934   -0.300972
 H   -0.559637   -0.733848   -2.033257
 H   -1.313029   -1.957321   -1.226908
 H   -1.090004   -0.212770    2.017258
 H   -2.061105   -1.532125    1.369509
 H    0.891974   -1.582365    1.735908
 H   -0.145503   -2.869695    1.142097
 H    1.033928   -2.391497   -0.901602
 H   -0.549596    1.443489   -1.297798
 H   -0.763023    2.884356    0.528929
 H    0.930810    0.755653    1.274343
 H    2.452209    2.095569    0.263718
 H    1.707317   -0.052364   -1.550577
 H    3.357235   -1.009780   -0.402652
