35 
4ijh_ligand_xtb.xyz
 C    2.028515    2.817287    1.283241
 C    2.871380    3.679095    0.603617
 C    3.826134    3.218722   -0.287311
 C    3.922628    1.860776   -0.514195
 C    3.068660    0.972226    0.140320
 C    2.132789    1.459301    1.051762
 C    3.217540   -0.446082   -0.127647
 N    2.210641   -1.393960   -0.070278
 C    2.869642   -2.562950   -0.358455
 N    4.136682   -2.340160   -0.569253
 N    4.347540   -1.030220   -0.419788
 C    0.829059   -1.210754    0.086775
 C    0.186785   -0.249710   -0.679336
 C   -1.174968   -0.082362   -0.495977
 C   -1.901286   -0.867081    0.419152
 C   -1.232042   -1.838533    1.166150
 C    0.122285   -2.002957    1.002533
 S    2.094014   -4.112625   -0.469082
 S   -2.191545    1.060200   -1.311270
 C   -3.602889    0.496487   -0.432210
 C   -3.286680   -0.516668    0.434416
 C   -4.940852    1.084396   -0.646843
 O   -5.913345    0.701360   -0.058122
 O   -5.017350    2.080027   -1.541613
Cl   -4.407839   -1.298854    1.444097
 F    2.763348    5.002816    0.822440
 H    1.310661    3.210933    1.985025
 H    4.475425    3.919574   -0.786918
 H    4.657916    1.464623   -1.195904
 H    1.497187    0.780170    1.599730
 H    0.732446    0.351251   -1.389662
 H   -1.788062   -2.441231    1.865561
 H    0.655232   -2.740380    1.582263
 H    3.214795   -4.722340   -0.837642
 H   -4.170641    2.303498   -1.951258
