38 
4ijl_ligand_dft.xyz
 C   -5.957861   -1.282122    0.589524
 C   -4.797312   -1.857720    1.075651
 C   -3.575577   -1.429100    0.548935
 C   -3.519161   -0.442764   -0.452035
 C   -4.706580    0.125839   -0.934888
 C   -5.913091   -0.295848   -0.410451
 S   -1.987874   -1.999997    0.989624
 C   -1.238359   -0.914549   -0.158389
 C   -2.157281   -0.178852   -0.835895
 C    0.217067   -0.891604   -0.267871
 N    0.994543    0.227981   -0.039515
 C    2.272577   -0.217726   -0.198158
 N    2.268841   -1.497582   -0.490927
 N    0.971734   -1.923487   -0.536834
 S    3.692614    0.789084   -0.000768
 C    4.932104   -0.292146   -0.801091
 C    5.512115   -1.394841    0.094889
 O    6.643266   -1.327106    0.504095
 O    4.715449   -2.422518    0.361243
 C    0.564168    1.525580    0.382025
 C    0.853600    2.636444   -0.403990
 C    0.431135    3.891543    0.018874
 C   -0.287890    4.025836    1.203581
 C   -0.579477    2.904670    1.975906
 C   -0.145833    1.646913    1.572399
Cl   -1.762031    0.949131   -2.086480
 H   -6.917087   -1.599297    0.986335
 H   -4.833670   -2.621860    1.845426
 H   -4.667067    0.884705   -1.709734
 H   -6.838769    0.137354   -0.775395
 H    5.752159    0.376195   -1.065315
 H    4.490104   -0.705688   -1.712158
 H    3.819396   -2.296921   -0.039133
 H    1.392854    2.512514   -1.336975
 H    0.655284    4.763882   -0.586216
 H   -0.622600    5.006852    1.525472
 H   -1.138695    3.007400    2.900033
 H   -0.354824    0.765540    2.170288
