44 
4ikt_ligand_xtb.xyz
 F    3.918188   -1.396765   -0.551914
 C    3.522554   -1.572417    0.728324
 F    3.258524   -2.879210    0.858204
 F    4.616079   -1.329178    1.477256
 C    2.372683   -0.692869    1.092935
 C    2.534508    0.685608    1.078273
 N    1.564874    1.529865    1.358960
 C    1.122405   -1.212770    1.441288
 C    0.112697   -0.340866    1.759323
 C    0.364244    1.044505    1.691764
 N   -0.608375    1.937598    2.004146
 C   -0.497896    3.325052    1.626847
 C   -0.992277    3.569334    0.187367
 N   -0.225915    2.828512   -0.781046
 C   -0.468980    1.519331   -1.013228
 N   -1.621590    0.995198   -0.597336
 C    0.452414    0.710036   -1.709361
Cl    1.955800    1.377674   -2.247241
 C    0.140268   -0.624642   -1.908020
 C    1.047929   -1.561014   -2.630064
 N   -1.006285   -1.117924   -1.445409
 C   -1.831659   -0.299070   -0.821509
 C   -3.093524   -0.852121   -0.302339
 N   -3.144528   -2.162172   -0.089441
 C   -4.174584   -0.008143   -0.042479
 C   -5.344860   -0.560850    0.445785
 C   -5.396766   -1.929398    0.661775
 C   -4.263081   -2.679223    0.376526
 H    3.484971    1.132096    0.817162
 H    0.957430   -2.278983    1.451138
 H   -0.867835   -0.700612    2.027401
 H   -1.546528    1.564429    2.029447
 H    0.555938    3.596046    1.709984
 H   -1.088552    3.926496    2.321678
 H   -0.920686    4.632694   -0.049665
 H   -2.030160    3.243106    0.094429
 H    0.731925    3.117832   -0.925017
 H    1.124163   -1.269269   -3.676886
 H    2.048450   -1.531196   -2.203987
 H    0.645338   -2.566563   -2.563744
 H   -4.080281    1.048337   -0.235361
 H   -6.202822    0.063144    0.652965
 H   -6.289689   -2.401801    1.040788
 H   -4.249107   -3.750270    0.532490
