71 
4inh_ligand_dft.xyz
 C   -1.958867   -0.569235    2.535779
 O   -2.463307    0.531826    2.720561
 O   -2.618289   -1.654076    2.112999
 C   -3.973238   -1.465697    1.670383
 C   -4.049782   -1.345327    0.170613
 C   -3.725350   -0.142034   -0.460733
 C   -3.803295   -0.027075   -1.844113
 C   -4.210781   -1.116340   -2.611865
 C   -4.519763   -2.325698   -1.994215
 C   -4.435179   -2.438189   -0.606763
 N   -0.657566   -0.873398    2.783593
 C    0.294939    0.145272    3.200301
 C    0.741521    1.000196    1.996058
 O    1.845897    0.838931    1.471965
 C    1.484200   -0.512173    3.882763
 N   -0.181540    1.900328    1.594147
 C   -0.119331    2.731345    0.387823
 C   -0.291528    1.859013   -0.866809
 O   -1.311240    1.903113   -1.540128
 C    1.110213    3.648785    0.358432
 C    1.238477    4.476979   -0.928630
 C    2.467674    5.384077   -0.836335
 C   -0.021573    5.292756   -1.234337
 C   -0.452982   -1.058799   -1.381365
 C    3.705106   -2.230343   -1.200196
 C    2.618313   -1.187080   -0.984282
 N    0.755450    1.036784   -1.147011
 O    3.902837   -2.728728   -2.299688
 N    4.450445   -2.565705   -0.100591
 C    4.184188   -2.110606    1.249769
 C    5.451444   -3.606605   -0.223886
 C    0.554938   -0.100901   -2.015583
 C    1.879803   -0.837852   -2.276186
 O   -0.623988   -1.181517   -0.188022
 O   -1.098911   -1.784348   -2.294190
 H   -4.506311   -2.352733    2.018896
 H   -4.382029   -0.581177    2.162316
 H   -3.393504    0.705045    0.132050
 H   -3.516958    0.905860   -2.315855
 H   -4.271984   -1.026044   -3.692115
 H   -4.832904   -3.179222   -2.588764
 H   -4.680796   -3.381273   -0.124099
 H   -0.298974   -1.665910    2.268458
 H   -0.232326    0.791817    3.907862
 H    2.001423   -1.186088    3.193586
 H    1.143224   -1.081687    4.751114
 H    2.204496    0.241974    4.208294
 H   -1.101488    1.785976    2.015331
 H   -1.021017    3.345676    0.417037
 H    2.015803    3.051912    0.498529
 H    1.037878    4.321400    1.223792
 H    1.400303    3.776725   -1.759635
 H    2.627370    5.922888   -1.776355
 H    3.374266    4.808407   -0.618558
 H    2.343345    6.129122   -0.040346
 H    0.141261    5.940234   -2.102594
 H   -0.878148    4.649810   -1.460861
 H   -0.285345    5.935726   -0.384335
 H    1.912129   -1.550199   -0.227552
 H    3.076106   -0.290707   -0.552872
 H    1.425575    0.926808   -0.389467
 H    5.134032   -1.894997    1.751721
 H    3.663376   -2.884266    1.833493
 H    3.584798   -1.199806    1.266862
 H    5.578087   -3.842517   -1.279307
 H    6.404341   -3.262063    0.194588
 H    5.142831   -4.512689    0.314680
 H    0.131367    0.242862   -2.961653
 H    2.512560   -0.208793   -2.909062
 H    1.676663   -1.748966   -2.844601
 H   -1.775854   -2.307586   -1.829257
