61 
4io8_ligand_dft.xyz
 C    2.044970    0.751608    1.901371
 C    3.122013    0.859808    1.031406
 C    3.762088   -0.282306    0.561049
Cl    5.101532   -0.114439   -0.533772
 C    3.311991   -1.540225    0.968713
 C    2.241709   -1.639403    1.850068
 C    1.598886   -0.498643    2.325882
 C    0.405082   -0.645251    3.247920
 N   -0.815405   -1.004989    2.544069
 C   -1.485537   -0.038324    1.859007
 N   -1.343730    1.255072    2.053893
 C   -2.291783    1.821059    1.225346
 C   -2.626107    3.151231    0.941509
 N   -1.945944    4.193062    1.484110
 N   -3.612760    3.409917    0.067779
 C   -4.221612    2.382646   -0.519918
 N   -3.975386    1.078973   -0.362137
 C   -2.993017    0.854609    0.519281
 N   -2.450327   -0.355528    0.907776
 C   -2.888488   -1.658665    0.397370
 O   -1.900412   -2.627901    0.640312
 C   -3.113902   -1.621818   -1.134101
 O   -4.443662   -1.418208   -1.504051
 C   -2.673018   -3.024454   -1.550266
 O   -3.718650   -3.940637   -1.341514
 C   -1.553539   -3.335582   -0.561302
 C   -0.159593   -2.946710   -1.020229
 O   -0.136278   -1.575170   -1.322640
 C    1.072143   -1.149863   -1.901786
 C    1.207751    0.347943   -1.794099
 C    0.327726    1.101044   -1.022821
 C    0.518367    2.467147   -0.863391
 C    1.602991    3.091471   -1.484767
 C    1.821906    4.498768   -1.295692
 N    2.003746    5.631709   -1.129878
 C    2.483062    2.343850   -2.277663
 C    2.277401    0.981879   -2.430465
Cl    4.051328   -3.004317    0.383964
 H    1.529020    1.645862    2.234434
 H    3.461471    1.831901    0.691530
 H    1.917470   -2.626311    2.169277
 H    0.220464    0.287095    3.784384
 H    0.595364   -1.427027    3.989521
 H   -0.840141   -1.912886    2.096877
 H   -1.371673    4.020846    2.294339
 H   -2.335046    5.115501    1.363247
 H   -5.015214    2.635955   -1.217330
 H   -3.813822   -1.944782    0.909550
 H   -2.437984   -0.880495   -1.573039
 H   -4.633941   -0.486702   -1.262857
 H   -2.318966   -3.045157   -2.590152
 H   -4.534656   -3.460684   -1.553367
 H   -1.562390   -4.403719   -0.324682
 H    0.103400   -3.552902   -1.902159
 H    0.571431   -3.173368   -0.227875
 H    1.923978   -1.619207   -1.386016
 H    1.121420   -1.465208   -2.956443
 H   -0.495146    0.605437   -0.526343
 H   -0.155290    3.049082   -0.243103
 H    3.323277    2.831591   -2.760282
 H    2.970061    0.400938   -3.033445
