50 
4ipn_ligand_xtb.xyz
 O    0.392750    4.446482   -0.069227
 P   -0.291607    3.023069    0.103500
 O   -1.774084    3.238745   -0.344478
 O   -0.079363    2.438954    1.441598
 O    0.331395    2.187170   -1.101518
 C    1.671870    1.756305   -0.940537
 C    1.798384    0.295712   -1.389658
 O    0.961172   -0.592578   -0.674430
 C    3.259667   -0.176031   -1.330343
 O    4.071555    0.743177   -2.006835
 C    3.705448   -0.342946    0.128165
 O    5.009947   -0.868741    0.112408
 C    2.739569   -1.278352    0.864417
 O    3.118864   -1.285819    2.215601
 C    1.293397   -0.798638    0.673053
 S    0.215553   -2.146084    1.288887
 C   -1.465626   -1.675309    0.772928
 C   -1.724645   -0.177475    0.950326
 O   -1.451556    0.205126    2.262180
 C   -3.196900    0.065244    0.571078
 O   -3.496402    1.444952    0.623304
 C   -3.446246   -0.468340   -0.848793
 O   -4.793467   -0.297042   -1.140730
 O   -3.134971   -1.828098   -0.951700
 C   -1.776216   -2.111730   -0.663207
 C   -1.570008   -3.618784   -0.900870
 O   -0.263841   -3.937330   -1.277583
 H    0.287235    4.973464    0.721205
 H   -2.391742    2.572883    0.028966
 H    1.964331    1.873480    0.105394
 H    2.327744    2.362769   -1.568902
 H    1.432410    0.229306   -2.418949
 H    3.323616   -1.167437   -1.808628
 H    4.987598    0.485094   -1.837551
 H    3.706692    0.632672    0.637015
 H    5.231380   -1.119497    1.017598
 H    2.836699   -2.286778    0.427473
 H    2.471908   -1.789215    2.724874
 H    1.106378    0.089536    1.291374
 H   -2.103470   -2.228321    1.469541
 H   -1.106008    0.379047    0.231769
 H   -1.042469    1.089679    2.244431
 H   -3.844163   -0.478463    1.272626
 H   -4.386345    1.553458    0.260671
 H   -2.817062    0.115052   -1.558804
 H   -5.043661   -0.966091   -1.788572
 H   -1.126187   -1.554718   -1.356198
 H   -2.213753   -3.917719   -1.730789
 H   -1.874518   -4.173504   -0.002492
 H    0.330501   -3.661286   -0.564822
