48 
4ir6_ligand_xtb.xyz
 C    5.412387    1.477633    0.640628
 C    4.107642    2.177126    0.317015
 O    4.082570    3.358676    0.006727
 C    2.930529    1.350084    0.407342
 C    2.822862   -0.002833    0.747954
 C    1.488275   -0.381646    0.683145
 C    0.928078   -1.705019    0.960683
 C    0.991815   -2.231782    2.250358
 C    0.448400   -3.470209    2.539627
 C   -0.171499   -4.210689    1.545171
 C   -0.220226   -3.710739    0.255385
 C    0.324060   -2.473230   -0.028893
 S    0.358894   -1.995093   -1.766415
 C    2.131162   -2.010879   -2.168491
 O   -0.273237   -3.048185   -2.515720
 O   -0.139242   -0.660859   -1.968934
 C    0.756620    0.765642    0.325042
 C   -0.615433    0.982179    0.171415
 C   -1.051631    2.233492   -0.193415
 O   -2.340709    2.570245   -0.437886
 C   -3.373378    1.760335   -0.020230
 C   -4.406689    1.526720   -0.919134
 C   -5.503969    0.783663   -0.525888
 C   -5.576448    0.271605    0.758777
 C   -4.550852    0.516603    1.656045
 C   -3.449769    1.262084    1.275225
 C   -0.100551    3.268774   -0.389707
 C    1.224325    3.033260   -0.210210
 N    1.649159    1.800797    0.156069
 H    6.228414    2.188355    0.542570
 H    5.388902    1.093678    1.657635
 H    5.574442    0.646908   -0.042038
 H    3.639413   -0.651575    1.001007
 H    1.468784   -1.650755    3.025878
 H    0.506010   -3.858428    3.545744
 H   -0.601690   -5.174378    1.769759
 H   -0.669897   -4.263640   -0.554297
 H    2.517792   -2.990024   -1.917690
 H    2.222024   -1.825499   -3.231331
 H    2.619305   -1.230691   -1.599702
 H   -1.291927    0.153630    0.298804
 H   -4.331886    1.931772   -1.915850
 H   -6.303672    0.600421   -1.227631
 H   -6.431997   -0.312405    1.062295
 H   -4.607916    0.130404    2.662983
 H   -2.657524    1.469405    1.979920
 H   -0.451643    4.241794   -0.688562
 H    1.987325    3.784885   -0.339908
