65 
4ish_ligand_dft.xyz
 C    4.912623   -0.873744   -0.504635
 C    4.419082   -1.642648   -1.562063
 C    3.075354   -1.975785   -1.625583
 C    2.182979   -1.540693   -0.637736
 C    2.664369   -0.758852    0.427841
 C    4.016754   -0.448523    0.477230
 C    6.343121   -0.479778   -0.401069
 N    6.657137    0.564474    0.270640
 N    7.225987   -1.288407   -1.111840
 N    0.844057   -1.909548   -0.684286
 C   -0.125161   -1.081895    0.029974
 C    0.333518   -0.955042    1.495597
 C    1.725607   -0.274458    1.505074
 C   -0.550553    0.026962    2.289732
 C    0.048344    1.368556    1.939069
 C    1.349128    1.202026    1.457211
 C   -0.521103    2.630770    2.008405
 C    0.215925    3.730658    1.567742
 C    1.507382    3.560425    1.073865
 C    2.087555    2.291331    1.018509
 C   -1.508207   -1.679985   -0.125794
 C   -2.640923   -0.912916   -0.431893
 C   -3.896562   -1.535447   -0.493070
 C   -4.035232   -2.892685   -0.271989
 C   -2.897343   -3.661028    0.028583
 C   -1.655996   -3.056012    0.101531
 C   -2.579558    0.560246   -0.647632
 C   -3.345614    1.411156    0.156359
 C   -3.252755    2.788614    0.020469
 C   -2.391204    3.341530   -0.926198
 C   -1.656755    2.503197   -1.766231
 C   -1.762013    1.126669   -1.631992
 C   -2.253839    4.818326   -0.969108
 O   -1.467718    5.249473   -1.975150
 O   -2.773941    5.584476   -0.188205
 O   -3.160909   -4.985876    0.222891
 C   -2.079688   -5.831766    0.550782
 O   -5.253143   -3.478503   -0.350265
 H    5.080015   -1.956642   -2.364821
 H    2.702781   -2.570977   -2.456003
 H    4.404132    0.144921    1.300858
 H    7.670111    0.700056    0.289875
 H    6.986275   -2.269313   -1.154351
 H    8.205650   -1.135758   -0.914275
 H    0.526276   -2.190339   -1.602856
 H   -0.124847   -0.066128   -0.379613
 H    0.363308   -1.953002    1.945239
 H    2.196795   -0.469278    2.480015
 H   -0.451945   -0.171635    3.365489
 H   -1.613568   -0.054627    2.043001
 H   -1.534970    2.762324    2.374621
 H   -0.231797    4.720092    1.595297
 H    2.067567    4.421539    0.721114
 H    3.090078    2.161089    0.619994
 H   -4.783304   -0.958337   -0.735684
 H   -0.766424   -3.633451    0.330607
 H   -3.993464    0.983272    0.916266
 H   -3.822288    3.452041    0.662968
 H   -0.995512    2.928880   -2.512170
 H   -1.191436    0.478406   -2.290768
 H   -1.438166    6.215401   -1.893419
 H   -1.603125   -5.519494    1.487969
 H   -2.501687   -6.829779    0.672024
 H   -1.330238   -5.845558   -0.249793
 H   -5.130205   -4.421162   -0.165217
