90 
4j03_ligand_xtb.xyz
 F   -8.645826   -1.911542   -0.385625
 C   -7.931604   -0.795971   -0.474460
 F   -7.758959   -0.329774    0.765476
 F   -8.663809    0.104227   -1.137248
 C   -6.570809   -1.034488   -1.183971
 F   -6.806783   -1.879608   -2.219008
 F   -5.785104   -1.736266   -0.326098
 C   -5.887787    0.224535   -1.698762
 C   -5.736554    1.362632   -0.687003
 C   -4.844116    1.031653    0.500929
 S   -3.148973    0.594272   -0.052185
 O   -2.848144   -2.606392   -0.414069
 C   -2.255517    0.632062    1.546589
 C   -1.300679    1.811664    1.626911
 C   -2.011560    3.163747    1.591119
 C   -1.021603    4.325737    1.493931
 C   -0.458373    4.494184    0.076667
 C    0.999424    4.957710    0.056490
 C    1.985589    3.873414    0.496192
 C    2.172446    2.764201   -0.538300
 C    2.984403    1.606750    0.039212
 C    3.186973    0.458289   -0.954595
 C    4.326605   -0.490255   -0.563772
 C    5.725022    0.106595   -0.631833
 C    6.179481    0.838621   -1.895709
 C    7.718177    0.792474   -1.813756
 C    8.068313   -0.128487   -0.618484
 O    9.209297   -0.924124   -0.833813
 C    6.796031   -0.977769   -0.427638
 C    6.790861   -2.085431   -1.482917
 C    6.613370   -1.577092    0.965722
 C    5.185175   -2.097461    1.165739
 C    4.125946   -1.025277    0.862152
 C    2.712571   -1.526143    1.065951
 C    2.380147   -2.241546    2.213148
 C    1.109044   -2.728644    2.428925
 C    0.115508   -2.512579    1.478207
 O   -1.122196   -3.016466    1.701726
 C    0.422368   -1.757201    0.355327
 C    1.699780   -1.251310    0.147971
 C    1.933779   -0.409924   -1.078404
 H   -6.475961    0.568755   -2.551880
 H   -4.901532   -0.077906   -2.060131
 H   -5.299811    2.206258   -1.224839
 H   -6.713802    1.677945   -0.315833
 H   -5.232311    0.197682    1.085015
 H   -4.756577    1.907276    1.143052
 H   -3.688566   -3.052953   -0.291895
 H   -3.012614    0.664896    2.328181
 H   -1.705103   -0.304926    1.618891
 H   -0.593709    1.740736    0.799363
 H   -0.730420    1.721993    2.554917
 H   -2.616930    3.271418    2.495406
 H   -2.681547    3.203334    0.728617
 H   -0.211180    4.150379    2.202857
 H   -1.518078    5.249544    1.797264
 H   -1.068189    5.219487   -0.466357
 H   -0.535573    3.550790   -0.463927
 H    1.257918    5.278527   -0.955289
 H    1.101930    5.824817    0.713341
 H    1.643643    3.427576    1.432228
 H    2.955709    4.335596    0.693808
 H    2.679521    3.168196   -1.417896
 H    1.199483    2.395519   -0.864356
 H    3.956805    1.994058    0.348628
 H    2.475167    1.226684    0.927052
 H    3.414886    0.890197   -1.935440
 H    4.277801   -1.332918   -1.259516
 H    5.834558    0.810938    0.202432
 H    5.816553    0.330088   -2.788697
 H    5.809635    1.863064   -1.922218
 H    8.149749    0.369698   -2.721623
 H    8.141824    1.787637   -1.673857
 H    8.220767    0.486309    0.284509
 H    9.960847   -0.344105   -0.991170
 H    5.937614   -2.745798   -1.370392
 H    6.781385   -1.676119   -2.487706
 H    7.698226   -2.672295   -1.365989
 H    6.817392   -0.807677    1.715640
 H    7.325586   -2.389128    1.120219
 H    5.004734   -2.966107    0.531124
 H    5.091890   -2.430533    2.199716
 H    4.294170   -0.198455    1.565687
 H    3.132424   -2.423082    2.965656
 H    0.868357   -3.286386    3.320167
 H   -1.678997   -2.907438    0.901681
 H   -0.348102   -1.567186   -0.380768
 H    2.041154   -1.071336   -1.944461
 H    1.051147    0.206553   -1.261967
 H   -3.030096   -1.655571   -0.401969
