27 
4j06_ligand_dft.xyz
Br    4.072353    0.830818    0.764689
 S    1.696772    0.043478   -1.081174
 C    2.637395   -0.281231    0.324917
 C    2.223117   -1.386940    1.012471
 C    1.104175   -2.000791    0.390814
 C    0.720852   -1.343084   -0.744324
 S   -0.676574   -1.742121   -1.742422
 O   -0.759238   -3.178066   -1.894143
 O   -0.650769   -0.833748   -2.872907
 N   -2.000079   -1.359123   -0.769875
 C   -2.084178   -0.100831   -0.145799
 C   -2.312262    0.006625    1.243326
 C   -2.361489    1.282576    1.818068
 C   -2.206583    2.432632    1.064113
 C   -2.019759    2.299808   -0.308929
 C   -1.970094    1.057440   -0.920303
 C   -2.451706   -1.213550    2.096155
 O   -2.016343   -2.304784    1.797967
 O   -3.097709   -1.070383    3.264609
Cl   -1.848383    3.728868   -1.285290
 H    2.699898   -1.743899    1.916190
 H    0.596956   -2.880328    0.769292
 H   -2.131544   -2.129488   -0.112987
 H   -2.467061    1.391773    2.894231
 H   -2.226173    3.412060    1.526696
 H   -1.834196    0.972533   -1.991333
 H   -3.554686   -0.219999    3.303140
