27 
4j06_ligand_xtb.xyz
Br    3.784688    1.138087    0.443850
 S    1.244891    0.073413   -1.032672
 C    2.560410   -0.216830    0.059644
 C    2.564315   -1.481752    0.568736
 C    1.480424   -2.238873    0.081181
 C    0.704801   -1.538708   -0.790829
 S   -0.848659   -2.029016   -1.483685
 O   -0.937412   -3.448367   -1.505190
 O   -1.080220   -1.279100   -2.674693
 N   -1.893487   -1.509097   -0.268971
 C   -1.937216   -0.186578    0.124239
 C   -1.932699    0.182669    1.487453
 C   -1.977091    1.540251    1.816524
 C   -2.027537    2.519086    0.848327
 C   -2.052648    2.139517   -0.490020
 C   -2.014709    0.806541   -0.852600
 C   -1.816199   -0.858207    2.538823
 O   -1.354508   -1.956936    2.331846
 O   -2.240485   -0.540432    3.766075
Cl   -2.119730    3.342652   -1.711384
 H    3.301880   -1.846216    1.259891
 H    1.272713   -3.257248    0.351130
 H   -1.853065   -2.164522    0.508671
 H   -1.920795    1.852645    2.850743
 H   -2.043384    3.562313    1.117305
 H   -2.024750    0.513353   -1.889579
 H   -2.656687    0.330879    3.811927
