42 
4j0y_ligand_dft.xyz
 C    3.441553    2.695616   -0.257415
 C    1.485715   -3.134395   -0.048582
 C    0.157431   -2.725755   -0.028788
 C   -0.128373   -1.362824   -0.120923
 C    2.495869   -2.200593   -0.173827
 C    2.245367   -0.834382   -0.294616
 C    0.913645   -0.439340   -0.246599
 C    4.224368    0.197966    0.829372
 C    4.252877   -0.175760   -1.677446
 C    3.380805    0.182350   -0.456103
 C    5.110895    1.420665    0.882916
 F    3.773665   -2.648777   -0.153172
 O    4.374233    2.623685    0.727576
 N    2.823221    1.516326   -0.630114
 F    3.388215    0.221950    1.929296
 N    3.072627    3.796609   -0.771916
 N   -1.435016   -0.845132   -0.088765
 C   -2.606739   -1.517149    0.040401
 C   -3.815195   -0.605009    0.040789
 O   -2.743153   -2.726099    0.147992
 N   -3.605999    0.707759   -0.100105
 C   -4.659563    1.514849   -0.102388
 C   -5.970405    1.042552    0.037074
 C   -6.179767   -0.331375    0.184899
 C   -5.077998   -1.171860    0.185905
 C   -7.070331    1.963635    0.027133
 N   -7.957329    2.709025    0.018542
 H    1.746423   -4.183056    0.041579
 H   -0.643256   -3.445038    0.068201
 H    0.688700    0.621976   -0.279112
 H    4.829976   -0.711285    0.877935
 H    5.022612    0.585878   -1.835398
 H    3.623157   -0.201379   -2.572346
 H    4.730708   -1.150580   -1.570429
 H    5.893713    1.356391    0.116657
 H    5.587141    1.490798    1.861943
 H    2.293103    1.657154   -1.480315
 H    3.597689    4.562132   -0.355333
 H   -1.538813    0.161216   -0.160248
 H   -4.467906    2.577699   -0.219585
 H   -7.185393   -0.722616    0.296284
 H   -5.166854   -2.245800    0.296181
