42 
4j17_ligand_dft.xyz
 C    6.297586   -0.395258   -0.054293
 C    5.189914   -1.223882   -0.139633
 C    3.926716   -0.649807   -0.033032
 N    3.721927    0.658552    0.149541
 C    4.780925    1.454044    0.233032
 N    1.541021   -0.866564   -0.021810
 C   -2.401913   -2.175121   -0.201922
 C    6.092857    0.973995    0.136101
 C    2.711205   -1.546469   -0.131291
 O    2.838244   -2.749569   -0.296848
 C    7.198102    1.883868    0.230669
 N    8.088737    2.620987    0.306659
 C    0.229930   -1.367164   -0.085284
 C   -0.066006   -2.720355   -0.262288
 C   -1.397465   -3.115609   -0.322082
 C   -2.143144   -0.818149   -0.015941
 C   -0.807536   -0.438018    0.034828
 F   -3.686262   -2.601814   -0.280455
 C   -3.269708    0.218876    0.104480
 C   -4.094669    0.280524   -1.192656
 C   -3.393946    1.215138   -2.157910
 O   -3.406598    2.538477   -1.630358
 C   -3.044616    2.691743   -0.333240
 N   -2.712530    1.537009    0.356474
 C   -4.172112   -0.147923    1.296983
 F   -3.430560   -0.087115    2.439032
 F   -5.170032    0.763077    1.413907
 N   -2.947592    3.823910    0.231701
 H    7.303971   -0.792270   -0.133396
 H    5.275159   -2.293731   -0.286679
 H    4.593005    2.513461    0.382565
 H    1.652133    0.132426    0.114442
 H    0.731619   -3.443891   -0.354016
 H   -1.662852   -4.157230   -0.464645
 H   -0.585859    0.616725    0.166143
 H   -5.088912    0.685096   -0.981433
 H   -4.213692   -0.715814   -1.620126
 H   -2.360005    0.895312   -2.342243
 H   -3.917611    1.278143   -3.112618
 H   -2.508426    1.743541    1.325843
 H   -4.612317   -1.142553    1.217382
 H   -3.135358    4.562332   -0.443000
