42 
4j1c_ligand_dft.xyz
 C    5.220126   -1.356895   -0.261017
 C    7.371927    1.651559    0.119167
 C    6.364499   -0.578177   -0.193520
 O    2.801088   -2.777119   -0.376036
 C    2.730976   -1.575396   -0.168714
 N    1.597074   -0.851639    0.009450
 C   -0.097843   -2.618185   -0.282794
 C   -1.446698   -2.955305   -0.308685
 C   -2.403351   -1.989342   -0.069502
 C   -2.116868    2.534076   -0.119743
 C   -3.157240    0.374673    0.514147
 C   -2.074272   -0.665395    0.214133
 C   -4.102488    0.600065   -0.711040
 C   -4.216364    2.076711   -1.050621
 C   -3.980849   -0.043639    1.744455
 N   -2.601743    1.682150    0.854934
 O   -2.920848    2.627403   -1.212595
 N   -1.035227    3.180316    0.021283
 F   -3.125657   -0.049409    2.832159
 F   -5.354102    0.123729   -0.454291
 F   -3.646525   -0.058631   -1.802547
 C   -0.723461   -0.338325    0.231574
 C    0.264151   -1.296722   -0.017094
 F   -3.704462   -2.343255   -0.121252
 C    3.987023   -0.733987   -0.091530
 N    3.845635    0.575555    0.134850
 C    4.939665    1.323738    0.200190
 C    6.225426    0.792555    0.041570
 N    8.296413    2.347178    0.181862
 H    5.253804   -2.424670   -0.440772
 H    7.349624   -1.014315   -0.320025
 H    1.754449    0.138459    0.167404
 H    0.663328   -3.362388   -0.469743
 H   -1.763223   -3.970265   -0.521485
 H   -4.771195    2.595068   -0.262334
 H   -4.727268    2.190287   -2.006820
 H   -4.768457    0.690190    1.932343
 H   -4.407965   -1.037847    1.623810
 H   -2.030839    1.676617    1.689945
 H   -0.920348    3.846213   -0.740474
 H   -0.419276    0.686161    0.423964
 H    4.800949    2.385338    0.384095
