45 
4j1e_ligand_xtb.xyz
 C    3.217554   -1.017499   -0.657129
 C    3.811741   -0.029327    0.341679
 C    1.941882   -1.946423    1.174247
 C    2.673061    0.416604    1.271454
 C    1.897567    2.364516   -0.179060
 C    3.219828    1.289789    2.413802
 C   -3.112274    1.409508   -0.802119
 C   -4.296949    0.537872   -0.506368
 O    2.559950   -2.101716   -0.043924
 N    2.161798   -0.795281    1.867460
 C    1.600447    1.187524    0.502536
 C    0.288028    0.744804    0.463052
 C   -0.697544    1.444017   -0.234297
 C   -0.365148    2.616191   -0.909853
 C    0.937823    3.071935   -0.876689
 F    3.165323    2.845157   -0.175310
 N    1.225605   -2.853395    1.669602
 N   -1.984550    0.925615   -0.218464
 O   -3.199544    2.410618   -1.481219
 N   -4.084433   -0.545241    0.239903
 C   -5.100096   -1.329050    0.522874
 C   -6.401992   -1.072854    0.074279
 C   -6.625881    0.061934   -0.708499
 C   -5.551605    0.879707   -1.003599
 C   -7.459046   -1.948029    0.412873
 N   -8.313799   -2.658758    0.689678
 C    4.322168   -1.626708   -1.529310
 F    4.962665   -0.671414   -2.222414
 F    3.843527   -2.494672   -2.420219
 F    5.246494   -2.263766   -0.806724
 F    2.193216    1.638313    3.252511
 H    2.519363   -0.504767   -1.339933
 H    4.263952    0.808065   -0.185551
 H    4.577186   -0.533475    0.936352
 H    3.943633    0.727948    3.011650
 H    3.666182    2.214110    2.041589
 H    1.613538   -0.709102    2.709905
 H    0.012423   -0.162368    0.980219
 H   -1.123259    3.158411   -1.449028
 H    1.223109    3.977189   -1.387830
 H    1.177444   -3.694937    1.109900
 H   -2.133378    0.067631    0.307263
 H   -4.881507   -2.197048    1.130533
 H   -7.619037    0.286190   -1.068718
 H   -5.653641    1.770745   -1.602293
