45 
4j1f_ligand_dft.xyz
 C    4.271029   -0.647234   -1.049551
 C    3.636055    0.670589   -0.625459
 O    3.292476   -1.638171   -1.294976
 C    2.306634   -1.815785   -0.362746
 N    2.263241   -0.886210    0.647256
 C    2.592322    0.524685    0.513601
 C    1.349283    1.369546    0.178101
 C    0.075082    0.810304    0.122016
 C   -1.047751    1.601274   -0.140777
 C   -0.897040    2.966146   -0.383306
 C    0.367565    3.537335   -0.352078
 C    1.458515    2.737917   -0.065027
 F    2.678679    3.320655   -0.037255
 N    1.511086   -2.802199   -0.401502
 C    3.164991    0.987284    1.863506
 N   -2.344841    1.058926   -0.190713
 C   -2.785871   -0.075818    0.415204
 C   -4.268443   -0.311786    0.224819
 O   -2.108961   -0.859781    1.058660
 N   -4.964615    0.604344   -0.456033
 C   -6.266572    0.405627   -0.621481
 C   -6.928939   -0.717671   -0.112195
 C   -6.192810   -1.670063    0.598439
 C   -4.833832   -1.461015    0.769947
 C   -8.339389   -0.873968   -0.322694
 N   -9.478818   -0.995063   -0.494473
 C    5.390911   -1.190115   -0.153886
 F    5.988568   -2.229790   -0.750122
 F    4.994491   -1.598133    1.055171
 F    6.318090   -0.228853    0.022220
 H    4.763201   -0.496017   -2.014089
 H    4.408128    1.388553   -0.344379
 H    3.144839    1.063775   -1.518812
 H    1.577027   -1.127327    1.349212
 H   -0.061778   -0.251678    0.272328
 H   -1.765466    3.585012   -0.590765
 H    0.516714    4.595006   -0.537733
 H    1.787647   -3.444357   -1.141271
 H    3.406407    2.051766    1.836101
 H    4.066047    0.417030    2.099178
 H    2.430043    0.821759    2.658439
 H   -3.072988    1.606597   -0.634985
 H   -6.815362    1.161087   -1.176890
 H   -6.682234   -2.549301    1.003426
 H   -4.201605   -2.155301    1.310306
