49 
4j1p_ligand_dft.xyz
 O    5.601050    2.451071   -0.244826
 C    5.108853    3.765034   -0.403625
 C    4.702203    1.446149   -0.146069
 C    5.268672    0.168767    0.004863
 C    4.454609   -0.945104    0.117186
 N    0.779912   -1.548714    0.146457
 C    6.328705   -2.378585    0.304461
 O    4.931926   -2.192429    0.261295
 C    3.039392   -0.801848    0.080067
 O   -5.214804    0.671466   -0.236845
 N    1.133703    0.738815   -0.135383
 C    2.128835   -1.936737    0.219227
 C    0.331568   -0.269753   -0.028806
 O   -7.646869   -0.857315   -0.405079
 O    2.388236   -3.112225    0.394269
 C   -1.134340   -0.058256   -0.086350
 C   -2.011974   -1.065802   -0.486078
 C   -3.389072   -0.852412   -0.535021
 C   -4.327622   -1.940923   -0.987984
 C   -3.868582    0.408184   -0.164649
 C   -5.975407    0.230517    0.877139
 C   -7.434042    0.218710    0.483897
 C   -3.010118    1.446988    0.220103
 C   -3.575002    2.796466    0.577981
 C   -1.644256    1.197624    0.250077
 C    2.496171    0.492206   -0.074996
 C    3.330051    1.615905   -0.187736
 H    4.522585    3.863095   -1.325392
 H    4.491843    4.066282    0.451723
 H    5.987245    4.408569   -0.461888
 H    6.348188    0.100238    0.026631
 H    0.128142   -2.304656    0.306833
 H    6.807006   -2.047916   -0.626133
 H    6.778584   -1.847629    1.152848
 H    6.477615   -3.451390    0.427649
 H   -8.495726   -0.730087   -0.841379
 H   -1.634858   -2.031117   -0.817124
 H   -3.882438   -2.519379   -1.803441
 H   -4.543941   -2.640338   -0.171091
 H   -5.281291   -1.527575   -1.322866
 H   -5.822959    0.906513    1.730991
 H   -5.671899   -0.780058    1.178760
 H   -8.041278    0.111321    1.396510
 H   -7.678865    1.185599    0.021905
 H   -4.232977    3.167390   -0.213387
 H   -4.171311    2.750355    1.496546
 H   -2.773604    3.523090    0.735695
 H   -0.947776    1.979746    0.534827
 H    2.854228    2.579926   -0.308358
