70 
4j3e_ligand_dft.xyz
 O   -0.573476   -3.027192   -1.720818
 C   -0.861072   -2.075574   -1.014111
 N   -1.518722   -2.208172    0.182019
 C   -1.353237   -1.273077    1.280621
 C   -0.338232   -1.736904    2.320863
 O    0.148908   -0.937294    3.108041
 N   -0.042160   -3.061655    2.338464
 C   -0.468472   -4.051637    1.355072
 C   -1.731619   -3.569087    0.651685
 N   -0.466202   -0.770070   -1.363444
 C   -1.249012    0.371427   -1.586616
 C   -2.658590    0.426580   -1.131314
 C   -3.637229   -0.286646   -1.806989
 C   -4.978359   -0.232516   -1.436511
 C   -3.028581    1.217949   -0.025434
 O   -2.015623    1.847351    0.615285
 C   -2.244915    2.546128    1.849766
 C   -1.017669    3.416334    2.060744
 C   -2.449701    1.572768    3.005313
 C   -4.362756    1.283873    0.355330
 C   -5.334715    0.566427   -0.351796
 O   -6.597764    0.712619    0.113967
 C   -7.633323    0.015320   -0.543925
 C    0.775247   -0.626038   -2.123083
 C    1.953870   -1.137783   -1.329027
 C    2.076821   -0.856760    0.034073
 C    3.146259   -1.342571    0.772659
 C    4.112876   -2.112445    0.133366
Cl    5.463520   -2.736039    1.054836
 C    4.018822   -2.401553   -1.221836
 C    2.931163   -1.916187   -1.942396
 C    0.721532    0.915160   -2.457346
 N   -0.666016    1.316487   -2.214388
 C    1.690483    1.763704   -1.656525
 C    1.266203    2.496508   -0.551247
 C    2.176163    3.216551    0.216706
 C    3.520974    3.197852   -0.128789
Cl    4.673119    4.092792    0.838594
 C    3.967197    2.482369   -1.234612
 C    3.044509    1.775098   -1.994147
 H   -1.020138   -0.300643    0.929488
 H   -2.318120   -1.119625    1.777753
 H    0.699121   -3.310653    2.979637
 H   -0.659169   -5.000514    1.866560
 H    0.317199   -4.211877    0.607062
 H   -2.582336   -3.560857    1.341707
 H   -1.962602   -4.213700   -0.195036
 H   -3.345524   -0.901789   -2.653768
 H   -5.711612   -0.801460   -1.993925
 H   -3.123929    3.190728    1.724112
 H   -0.127400    2.787169    2.163121
 H   -0.876137    4.101161    1.219645
 H   -1.130735    4.004073    2.976556
 H   -2.639800    2.131717    3.927308
 H   -1.553011    0.961011    3.151756
 H   -3.303460    0.910592    2.834060
 H   -4.694862    1.877346    1.197353
 H   -7.480860   -1.070079   -0.492447
 H   -7.719653    0.320617   -1.594081
 H   -8.551735    0.275350   -0.016821
 H    0.697275   -1.199076   -3.053767
 H    1.337117   -0.240196    0.533818
 H    3.224628   -1.122217    1.831597
 H    4.775866   -3.010491   -1.703603
 H    2.839080   -2.162346   -2.996930
 H    0.947088    1.053274   -3.519445
 H    0.212164    2.503462   -0.294508
 H    1.843780    3.788112    1.076856
 H    5.020302    2.478866   -1.493240
 H    3.392140    1.205613   -2.852450
