70 
4j3e_ligand_xtb.xyz
 O   -0.356050   -3.149542   -1.435129
 C   -0.752420   -2.137185   -0.891975
 N   -1.516010   -2.166555    0.245099
 C   -1.510272   -1.134849    1.252113
 C   -0.713036   -1.490197    2.507757
 O   -0.434049   -0.635812    3.324911
 N   -0.380733   -2.782000    2.675023
 C   -0.606632   -3.850786    1.725146
 C   -1.770660   -3.474153    0.811909
 N   -0.454227   -0.885845   -1.402407
 C   -1.201742    0.282582   -1.505813
 C   -2.613158    0.324831   -1.110723
 C   -3.514843   -0.536413   -1.709937
 C   -4.868026   -0.477930   -1.426465
 C   -3.068130    1.264423   -0.163994
 O   -2.108775    1.997529    0.441108
 C   -2.431993    2.863116    1.530635
 C   -1.225526    3.775566    1.722703
 C   -2.713642    2.063792    2.802634
 C   -4.424950    1.329737    0.107730
 C   -5.328085    0.473970   -0.525148
 O   -6.628317    0.647841   -0.169357
 C   -7.607360   -0.163125   -0.774291
 C    0.794009   -0.698482   -2.136206
 C    1.975094   -1.152332   -1.328478
 C    2.047581   -0.895593    0.036397
 C    3.140748   -1.300211    0.777158
 C    4.177941   -1.968127    0.146631
Cl    5.551204   -2.473639    1.065107
 C    4.124980   -2.235607   -1.211181
 C    3.022570   -1.828037   -1.939420
 C    0.742948    0.849292   -2.418337
 N   -0.599636    1.246414   -2.069339
 C    1.782919    1.604648   -1.627340
 C    1.440486    2.279247   -0.464450
 C    2.408713    2.913643    0.292835
 C    3.730430    2.861429   -0.115289
Cl    4.951038    3.632657    0.835547
 C    4.089424    2.200710   -1.279445
 C    3.111796    1.579996   -2.032880
 H   -1.097018   -0.202559    0.869339
 H   -2.541289   -0.930134    1.569611
 H    0.182706   -2.988551    3.488260
 H   -0.825210   -4.772547    2.270153
 H    0.288711   -4.009328    1.109857
 H   -2.706708   -3.427151    1.374427
 H   -1.857582   -4.196469    0.000268
 H   -3.153194   -1.261467   -2.423916
 H   -5.540322   -1.162521   -1.916070
 H   -3.304224    3.474169    1.260128
 H   -0.373349    3.190887    2.058355
 H   -0.973457    4.265294    0.785711
 H   -1.450299    4.531461    2.469681
 H   -2.900110    2.746381    3.626900
 H   -1.855938    1.441128    3.050001
 H   -3.583238    1.422356    2.681063
 H   -4.835787    2.039541    0.806110
 H   -7.455805   -1.220936   -0.537170
 H   -7.621830   -0.031801   -1.860449
 H   -8.558590    0.165399   -0.358846
 H    0.757969   -1.261306   -3.077380
 H    1.249729   -0.365005    0.532861
 H    3.188384   -1.093546    1.834754
 H    4.935786   -2.761294   -1.690475
 H    2.975466   -2.044067   -2.996328
 H    0.896645    1.048137   -3.483864
 H    0.404585    2.313015   -0.163873
 H    2.142852    3.440972    1.195714
 H    5.122151    2.173928   -1.589491
 H    3.387610    1.064753   -2.941012
