49 
4j3i_ligand_xtb.xyz
 O   -5.293339    2.555461    0.012087
 C   -4.788083    3.861162    0.162201
 C   -4.414445    1.520104    0.008237
 C   -4.998489    0.255590   -0.148334
 C   -4.226697   -0.890933   -0.174468
 N   -0.600413   -1.614235    0.073621
 C   -6.111620   -2.303388   -0.458781
 O   -4.722776   -2.132317   -0.320404
 C   -2.820812   -0.780746   -0.040858
 O    5.419155    0.561071    0.729085
 N   -0.899335    0.680247    0.266001
 C   -1.950520   -1.944426   -0.079567
 C   -0.123129   -0.349990    0.247585
 O    4.771753   -0.382866   -2.093347
 O   -2.252671   -3.108440   -0.229560
 C    1.320636   -0.154944    0.405714
 C    2.180344   -1.179008    0.792284
 C    3.543794   -0.968264    0.916712
 C    4.421464   -2.088483    1.390397
 C    4.064821    0.296970    0.624777
 C    6.247654   -0.022525   -0.254619
 C    5.878196    0.390026   -1.681353
 C    3.207773    1.355550    0.301778
 C    3.736288    2.742631    0.082358
 C    1.850341    1.114087    0.192213
 C   -2.246210    0.496249    0.121195
 C   -3.046369    1.642450    0.144222
 H   -4.270592    3.982242    1.118692
 H   -4.107934    4.122715   -0.654106
 H   -5.656200    4.517926    0.134590
 H   -6.070439    0.222859   -0.246465
 H    0.040706   -2.396206    0.021767
 H   -6.651307   -1.943126    0.423128
 H   -6.492760   -1.795677   -1.350716
 H   -6.262065   -3.376649   -0.561528
 H    4.461199   -0.068996   -2.948240
 H    1.796670   -2.158449    1.042069
 H    3.870026   -2.733092    2.071829
 H    4.753298   -2.697631    0.548844
 H    5.294241   -1.697370    1.908350
 H    6.222867   -1.116198   -0.208263
 H    7.253509    0.330319   -0.015796
 H    5.642578    1.460814   -1.705495
 H    6.742438    0.202651   -2.335221
 H    3.186797    3.449474    0.700904
 H    4.789964    2.793991    0.341653
 H    3.605962    3.040385   -0.957881
 H    1.174197    1.912423   -0.069927
 H   -2.551516    2.589557    0.271411
