49 
4j3i_ligand_dft.xyz
 O   -5.417748    2.459759   -0.018852
 C   -4.939585    3.783253    0.100841
 C   -4.512702    1.456275   -0.013681
 C   -5.066065    0.169929   -0.132716
 C   -4.244557   -0.944191   -0.140318
 N   -0.572249   -1.529437    0.074899
 C   -6.101043   -2.395334   -0.364581
 O   -4.709420   -2.199313   -0.248806
 C   -2.834284   -0.791636   -0.027549
 O    5.380727    0.795323    0.676172
 N   -0.947927    0.767433    0.220597
 C   -1.914964   -1.927550   -0.054741
 C   -0.139285   -0.240830    0.211566
 O    5.058950   -1.121170   -1.831483
 O   -2.160453   -3.111694   -0.182309
 C    1.319661   -0.014898    0.346064
 C    2.181682   -0.996714    0.835212
 C    3.551817   -0.770749    0.958601
 C    4.456590   -1.839384    1.510063
 C    4.053500    0.475865    0.555473
 C    6.342732    0.120108   -0.134064
 C    5.951964   -0.053686   -1.596578
 C    3.203016    1.493211    0.092664
 C    3.769476    2.839489   -0.272547
 C    1.841868    1.230817   -0.003923
 C   -2.304557    0.511560    0.093149
 C   -3.145404    1.635119    0.099873
 H   -4.409154    3.931725    1.049250
 H   -4.274424    4.044046   -0.731340
 H   -5.821869    4.423451    0.074414
 H   -6.142239    0.094697   -0.214643
 H    0.087685   -2.290625   -0.009293
 H   -6.634085   -2.019570    0.517839
 H   -6.500902   -1.911473   -1.264525
 H   -6.239512   -3.473863   -0.440413
 H    4.183741   -0.850879   -1.527302
 H    1.793649   -1.951814    1.181583
 H    3.886107   -2.567110    2.093647
 H    4.957688   -2.376401    0.696409
 H    5.226530   -1.406867    2.155899
 H    6.585454   -0.862564    0.286330
 H    7.234646    0.749959   -0.067897
 H    5.565076    0.896691   -1.993066
 H    6.862117   -0.295359   -2.155283
 H    4.305948    3.279075    0.573841
 H    4.487100    2.765683   -1.096692
 H    2.973094    3.524616   -0.574465
 H    1.158941    1.996844   -0.356681
 H   -2.679977    2.606597    0.199287
