64 
4j47_ligand_dft.xyz
 N    1.429913   -2.294516   -1.636520
 C    2.127404   -2.867298   -0.431295
 C    1.823908   -1.842855    0.682633
 O    0.984573   -2.093102    1.533334
 C    3.593452   -3.134131   -0.754165
 O    4.107020   -1.969613   -1.364912
 N    2.450709   -0.660305    0.517104
 C    1.794473    0.619798    0.729326
 C    1.275466    1.063544   -0.660682
 O    1.690577    0.505507   -1.687699
 C    2.781917    1.651636    1.328114
 C    3.067614    1.311792    2.790750
 C    4.070528    1.755746    0.506152
 N    0.423231    2.100098   -0.733750
 C   -0.338481    2.678401    0.381030
 C   -1.362443    1.681249    0.944460
 O   -1.495000    1.541414    2.145083
 C   -0.964477    3.934944   -0.246105
 C   -1.158140    3.567113   -1.722076
 C    0.031241    2.654802   -2.042674
 N   -2.089319    0.985879    0.011891
 C   -2.770259   -0.239563    0.394971
 C   -1.730959   -1.350590    0.305890
 O   -0.968007   -1.445076   -0.652856
 C   -4.026661   -0.510153   -0.459653
 C   -4.726909   -1.811996   -0.037059
 C   -3.745185   -0.506265   -1.965089
 C   -5.153579   -1.866030    1.430031
 O   -1.689719   -2.137708    1.355279
 H    0.417006   -2.182173   -1.409702
 H    1.761638   -1.318231   -1.827654
 H    1.551588   -2.868159   -2.473397
 H    1.629435   -3.801005   -0.165936
 H    4.112676   -3.386188    0.178921
 H    3.664384   -3.999419   -1.428406
 H    5.055390   -2.064198   -1.515224
 H    3.147058   -0.643007   -0.222927
 H    0.964707    0.463104    1.425251
 H    2.289205    2.629253    1.292095
 H    3.525067    0.320349    2.877702
 H    3.759312    2.040952    3.222902
 H    2.149602    1.317682    3.387388
 H    4.668615    0.840982    0.591327
 H    3.874780    1.943060   -0.555462
 H    4.686438    2.576990    0.882528
 H    0.303929    2.935134    1.223887
 H   -1.891340    4.222215    0.254193
 H   -0.256527    4.763535   -0.148276
 H   -1.179504    4.446054   -2.369009
 H   -2.105728    3.037150   -1.860151
 H   -0.210158    1.845896   -2.737399
 H    0.879159    3.205166   -2.461877
 H   -1.721089    0.981814   -0.928962
 H   -3.051873   -0.128658    1.442163
 H   -4.700644    0.326721   -0.235418
 H   -4.079488   -2.670105   -0.269112
 H   -5.611498   -1.926557   -0.673801
 H   -3.333981    0.449946   -2.308199
 H   -3.048560   -1.301725   -2.249085
 H   -4.677773   -0.664946   -2.514135
 H   -4.297469   -1.921517    2.109330
 H   -5.745951   -0.984290    1.699432
 H   -5.770979   -2.749524    1.615021
 H   -0.828174   -2.606654    1.367725
