38 
4j4o_ligand_xtb.xyz
 O  -11.372082    0.882547  -31.586965
 C  -11.539949    1.906694  -32.210507
 N  -10.830496    3.049780  -32.094637
 C   -9.736798    3.293576  -31.247781
 C   -9.000781    2.244848  -30.705191
 C   -7.922837    2.499045  -29.878318
 C   -7.562068    3.802546  -29.589788
 C   -8.290805    4.845747  -30.132617
 C   -9.379340    4.618601  -30.961871
 C  -10.170017    5.786756  -31.484290
 C  -11.483707    5.948912  -30.715603
 C  -12.660171    2.017293  -33.247006
 S  -12.019118    1.941843  -34.952947
 C  -11.753188    3.626072  -35.261833
 N  -11.480626    4.062746  -36.526657
 C  -11.364963    5.425241  -36.446505
 N  -11.112326    6.281764  -37.415629
 C  -11.072248    7.549544  -37.033616
 C  -11.279558    7.986415  -35.726366
 C  -11.544611    7.080583  -34.712381
 C  -11.584165    5.744392  -35.083409
 N  -11.813278    4.587302  -34.375912
 H  -11.132293    3.828038  -32.680593
 H   -9.285158    1.230026  -30.925988
 H   -7.365024    1.673855  -29.461991
 H   -6.721125    4.008321  -28.944627
 H   -8.012248    5.865281  -29.905748
 H  -10.378548    5.666112  -32.548873
 H   -9.576948    6.696419  -31.368620
 H  -12.051397    6.793095  -31.100827
 H  -12.096921    5.055057  -30.798825
 H  -11.280162    6.123150  -29.661382
 H  -13.217199    2.948398  -33.156935
 H  -13.319194    1.155889  -33.145703
 H  -11.388330    3.494909  -37.351619
 H  -10.865526    8.256725  -37.824410
 H  -11.234308    9.042138  -35.509455
 H  -11.716487    7.396339  -33.695576
