79 
4j52_ligand_dft.xyz
 C   -1.208159    3.426738   -0.248011
 O   -1.345267    2.401919    0.745324
 C   -1.844859    1.223408    0.278559
 C   -3.185626    0.989653    0.228379
 C   -3.683588   -0.257954   -0.249629
 C   -2.748074   -1.232672   -0.694196
 C   -1.398840   -1.014809   -0.635572
 C   -0.901828    0.211154   -0.122180
 N    0.391235    0.524300    0.034027
 C    1.570918   -0.187297   -0.272394
 N    1.486216   -1.362164   -0.856916
 C    2.676143   -1.933219   -1.118809
 C    3.889288   -1.353210   -0.812552
 N    5.087644   -1.939933   -1.247848
 C    5.137728   -2.545048   -2.578578
 C    6.233480   -1.983323   -0.487712
 O    7.293032   -2.378224   -0.926308
 C    6.106826   -1.473396    0.959593
 F    4.929095   -1.970253    1.520276
 C    6.025511    0.047869    0.968978
 N    4.979915    0.638726    0.122288
 C    4.810469    2.088730    0.343091
 C    4.086699    2.808761   -0.825344
 C    4.817880    4.159009   -1.022089
 C    5.763384    4.280325    0.180767
 C    6.152404    2.829806    0.461528
 C    3.845442   -0.080784   -0.165940
 N    2.660170    0.476179    0.093539
 C    7.285940   -1.919494    1.781907
 C    7.163609   -2.405119    3.010667
 C   -5.050073   -0.565894   -0.284443
 O   -5.456682   -1.697595   -0.808672
 N   -6.029470    0.246838    0.199703
 N   -7.353196   -0.180853    0.132053
 C   -7.942129   -0.377588    1.461545
 C   -9.321060   -1.006331    1.322024
 N  -10.214289   -0.157423    0.455670
 C  -11.581101   -0.757067    0.302327
 C   -9.559332    0.101687   -0.875997
 C   -8.178019    0.711974   -0.689970
 H   -0.540882    3.104524   -1.055552
 H   -2.185315    3.690125   -0.666636
 H   -0.780776    4.288577    0.263071
 H   -3.832541    1.801353    0.549532
 H   -3.111264   -2.181109   -1.073807
 H   -0.688645   -1.762047   -0.962022
 H    0.576602    1.408598    0.497308
 H    2.642423   -2.893080   -1.624905
 H    6.170055   -2.516221   -2.924739
 H    4.807681   -3.588817   -2.555679
 H    4.502804   -1.972016   -3.257448
 H    6.997475    0.431918    0.651581
 H    5.866811    0.349969    2.014500
 H    4.245327    2.241847    1.274720
 H    4.140470    2.195001   -1.730452
 H    3.028399    2.946111   -0.594372
 H    5.401820    4.139547   -1.947987
 H    4.124573    5.000973   -1.098533
 H    6.628765    4.918117   -0.015134
 H    5.235751    4.698129    1.046933
 H    6.838252    2.478488   -0.320441
 H    6.640186    2.697136    1.431142
 H    8.252057   -1.814018    1.300077
 H    6.195888   -2.535657    3.483781
 H    8.038712   -2.704688    3.577394
 H   -5.799705    1.094022    0.705844
 H   -6.429892   -1.739812   -0.726007
 H   -7.309276   -1.057321    2.036660
 H   -8.005742    0.573894    2.015880
 H   -9.263295   -1.986349    0.841704
 H   -9.801265   -1.115071    2.296616
 H  -10.331811    0.747855    0.924293
 H  -12.193723   -0.088929   -0.303888
 H  -11.482375   -1.726051   -0.188660
 H  -12.025734   -0.879736    1.290541
 H   -9.501905   -0.863083   -1.386424
 H  -10.208230    0.768746   -1.447066
 H   -8.255489    1.715134   -0.238668
 H   -7.712494    0.822255   -1.671710
