75 
4j53_ligand_dft.xyz
 O   -5.215752    2.049541    0.294850
 C   -4.355188    1.178720    0.216087
 N   -4.722399   -0.141450    0.155695
 C   -6.115011   -0.489110    0.250274
 C   -6.875232   -0.164098   -1.044963
 C   -8.339939   -0.547065   -0.936128
 N   -8.479274   -2.014958   -0.598859
 C   -9.906416   -2.446869   -0.552893
 C   -7.747923   -2.354510    0.677220
 C   -6.277752   -1.970751    0.588163
 C   -2.904888    1.499483    0.178388
 C   -2.559967    2.863999    0.236743
 C   -1.246540    3.276564    0.212361
 O   -0.827841    4.565853    0.270577
 C   -1.805959    5.581827    0.377250
 C   -1.854547    0.596827    0.091834
 F   -2.097907   -0.743291    0.037869
 C   -0.524461    0.971838    0.057516
 C   -0.194455    2.323028    0.122628
 N    1.085228    2.830349    0.112583
 C    2.310270    2.195121    0.074166
 N    3.352705    3.021594    0.178183
 C    4.543873    2.448085    0.034928
 C    4.742951    1.086153   -0.188975
 N    6.024827    0.640242   -0.612681
 C    6.819342    1.600785   -1.390987
 C    6.685998   -0.542380   -0.363086
 O    7.838066   -0.711867   -0.705457
 N    2.366147    0.871820   -0.025616
 C    3.569354    0.299907   -0.110940
 N    3.642808   -1.073290   -0.068762
 C    4.609390   -1.570112    0.895983
 C    5.987943   -1.742112    0.304759
 F    5.943252   -2.718004   -0.643503
 F    6.804028   -2.175566    1.298060
 C    2.418121   -1.855198   -0.271187
 C    2.704680   -3.234727   -0.906273
 C    1.659020   -4.168847   -0.289927
 C    1.569436   -3.677891    1.159885
 C    1.594240   -2.147643    1.020507
 H   -4.009949   -0.853791    0.109018
 H   -6.560086    0.114035    1.053481
 H   -6.404485   -0.678161   -1.893552
 H   -6.807972    0.910173   -1.232619
 H   -8.885923   -0.380331   -1.867337
 H   -8.844622   -0.003714   -0.131381
 H   -8.019878   -2.534530   -1.353397
 H   -9.950938   -3.518197   -0.353476
 H  -10.408218   -1.897419    0.244773
 H  -10.377066   -2.223706   -1.510976
 H   -7.882676   -3.424620    0.850071
 H   -8.259870   -1.804063    1.472062
 H   -5.811935   -2.202037    1.551096
 H   -5.776226   -2.591367   -0.167830
 H   -3.376934    3.571862    0.305938
 H   -2.471829    5.580299   -0.493769
 H   -2.397456    5.464463    1.292873
 H   -1.257569    6.522547    0.415088
 H    0.252820    0.226772   -0.011266
 H    1.154543    3.836083    0.197604
 H    5.394968    3.121807    0.078960
 H    6.143679    2.231455   -1.970514
 H    7.446641    2.223413   -0.745074
 H    7.473407    1.045142   -2.060409
 H    4.300391   -2.553846    1.256059
 H    4.681090   -0.912061    1.770919
 H    1.814529   -1.263444   -0.959927
 H    3.709330   -3.576226   -0.641459
 H    2.667767   -3.190463   -1.997911
 H    1.933502   -5.224051   -0.373618
 H    0.689060   -4.037789   -0.787426
 H    2.446259   -4.028775    1.719369
 H    0.683684   -4.042074    1.688752
 H    0.573098   -1.772246    0.895673
 H    2.010378   -1.637906    1.894809
