54 
4j5b_ligand_dft.xyz
 C   -1.992655   -3.119210   -1.309532
 S   -3.653608   -2.379878   -1.151305
 C   -3.515063   -1.643471    0.476144
 C   -3.361641   -2.490641    1.579102
 C   -3.203037   -1.976896    2.858196
 C   -3.202803   -0.598112    3.048593
 C   -3.371276    0.247315    1.961038
 C   -3.542284   -0.252127    0.665288
 C   -3.745224    0.711243   -0.494965
 C   -5.173202    1.289173   -0.581175
 C   -5.101330    2.596160    0.217515
 C   -3.694175    3.127183   -0.076793
 N   -2.926927    1.920107   -0.382399
 C   -1.589806    1.978449   -0.580610
 O   -0.953455    3.022503   -0.478208
 C   -0.910966    0.661889   -0.938232
 N    0.485835    0.909384   -1.162445
 C    1.359120   -0.143897   -1.103723
 O    0.978683   -1.309597   -1.035271
 N    2.686548    0.209363   -1.124757
 C    3.727607   -0.793656   -1.232459
 C    4.975361   -0.389762   -0.480939
 C    6.237976   -0.531876   -1.052300
 C    7.391671   -0.192129   -0.355105
 C    7.310196    0.314038    0.946289
 N    8.458026    0.714985    1.632720
 C    6.041831    0.466600    1.522966
 C    4.899564    0.117443    0.818283
 H   -1.955632   -3.579821   -2.299936
 H   -1.841415   -3.895684   -0.556061
 H   -1.200147   -2.370213   -1.230765
 H   -3.363245   -3.565036    1.421551
 H   -3.077833   -2.650104    3.700709
 H   -3.067683   -0.180323    4.041590
 H   -3.336697    1.322020    2.112581
 H   -3.510094    0.184028   -1.421672
 H   -5.920280    0.588584   -0.201567
 H   -5.406820    1.500554   -1.630186
 H   -5.220991    2.395051    1.286760
 H   -5.877352    3.308185   -0.073062
 H   -3.680170    3.804201   -0.939264
 H   -3.243589    3.660399    0.765081
 H   -1.058733   -0.065457   -0.129849
 H   -1.380249    0.229095   -1.831609
 H    0.774905    1.854896   -0.940390
 H    2.929581    1.151316   -1.393582
 H    3.976902   -0.996449   -2.284130
 H    3.300111   -1.715377   -0.827521
 H    6.328684   -0.919734   -2.064624
 H    8.364121   -0.307510   -0.827649
 H    9.308353    0.257065    1.335276
 H    8.370731    0.707369    2.639457
 H    5.955410    0.868696    2.529714
 H    3.924465    0.245891    1.280546
