54 
4j5b_ligand_xtb.xyz
 C   -2.067719   -3.710678    0.455581
 S   -3.173305   -2.345510    0.931726
 C   -1.978968   -1.124226    1.425155
 C   -0.900051   -1.505275    2.210325
 C    0.070136   -0.586074    2.555836
 C   -0.033732    0.721732    2.114494
 C   -1.113662    1.102903    1.340908
 C   -2.110087    0.198005    0.997757
 C   -3.275315    0.631342    0.135072
 C   -4.313194    1.460841    0.907299
 C   -3.882911    2.909672    0.682080
 C   -3.313717    2.889981   -0.733285
 N   -2.834934    1.528974   -0.920978
 C   -1.939708    1.234235   -1.875713
 O   -1.442128    2.082580   -2.598943
 C   -1.599503   -0.243115   -2.069547
 N   -0.238508   -0.374544   -2.527767
 C    0.653569   -1.101932   -1.789532
 O    0.302068   -1.878463   -0.915694
 N    1.949295   -0.965158   -2.182143
 C    3.032084   -1.622656   -1.478298
 C    3.807786   -0.663348   -0.614646
 C    5.137095   -0.361787   -0.875004
 C    5.830649    0.529669   -0.080323
 C    5.203074    1.153497    0.997396
 N    5.870219    2.099246    1.750336
 C    3.863919    0.854223    1.254305
 C    3.180118   -0.039651    0.458099
 H   -2.621525   -4.310232   -0.260095
 H   -1.815822   -4.313930    1.323008
 H   -1.179561   -3.287840   -0.006203
 H   -0.812680   -2.527476    2.542617
 H    0.911305   -0.895300    3.158258
 H    0.728457    1.444926    2.362967
 H   -1.167368    2.116127    0.974189
 H   -3.751107   -0.260723   -0.287530
 H   -4.338389    1.186910    1.960045
 H   -5.302168    1.292360    0.480888
 H   -3.118009    3.193309    1.404344
 H   -4.714868    3.604678    0.775207
 H   -4.089995    3.101233   -1.477461
 H   -2.495789    3.596799   -0.890003
 H   -1.690319   -0.831519   -1.158970
 H   -2.291743   -0.641249   -2.824488
 H    0.081443    0.411156   -3.078445
 H    2.196618   -0.210980   -2.802082
 H    3.693537   -2.101085   -2.208006
 H    2.559751   -2.393173   -0.862217
 H    5.642020   -0.837447   -1.704236
 H    6.867440    0.751903   -0.290190
 H    6.876231    2.068560    1.715433
 H    5.489719    2.293183    2.662388
 H    3.369441    1.329736    2.089638
 H    2.145052   -0.268489    0.666525
