50 
4j5d_ligand_dft.xyz
 C    4.067323    0.157957    0.038482
 C    4.996345    1.145152   -0.255778
 C    6.311133    0.810960   -0.606477
 N    7.260730    1.806022   -0.847873
 C    6.664004   -0.542328   -0.646547
 C    5.726709   -1.522432   -0.342952
 C    4.416008   -1.195309   -0.000750
 C    3.399696   -2.277756    0.302374
 N    2.555216   -1.959578    1.440825
 C    1.306303   -1.433912    1.242075
 O    0.690221   -1.548534    0.188758
 N    0.762470   -0.783831    2.345111
 C   -0.386172    0.047426    2.035079
 C    0.029731    1.181795    1.091183
 O    1.034521    1.838148    1.351275
 N   -0.739542    1.444182    0.009271
 C   -0.339102    2.505356   -0.916794
 C   -1.400005    2.429163   -2.013622
 C   -1.744153    0.938684   -2.050910
 C   -1.732738    0.531128   -0.561714
 C   -3.099975    0.667433    0.088168
 C   -3.427600    1.769315    0.879984
 C   -4.684786    1.899943    1.460063
 C   -5.646836    0.915645    1.262295
 C   -5.346487   -0.195205    0.481133
 C   -4.086538   -0.305081   -0.094068
Br   -3.716666   -1.836557   -1.156459
 H    3.058751    0.461089    0.310692
 H    4.701716    2.190588   -0.204288
 H    8.030019    1.519785   -1.437330
 H    6.874867    2.688947   -1.152549
 H    7.682909   -0.825229   -0.900225
 H    6.027795   -2.567616   -0.374716
 H    2.717250   -2.427287   -0.538720
 H    3.908473   -3.231067    0.483998
 H    3.037078   -1.707775    2.292051
 H    1.444017   -0.292455    2.910357
 H   -1.185414   -0.580105    1.644876
 H   -0.742574    0.501090    2.964494
 H    0.666380    2.297208   -1.302873
 H   -0.302405    3.468297   -0.400493
 H   -2.283002    3.013565   -1.730528
 H   -1.034963    2.809096   -2.970884
 H   -2.698987    0.717165   -2.532260
 H   -0.960475    0.379717   -2.572869
 H   -1.374469   -0.496177   -0.459428
 H   -2.669654    2.529030    1.045301
 H   -4.910045    2.769893    2.069207
 H   -6.629278    1.005166    1.714993
 H   -6.081899   -0.975503    0.318311
