86 
4j70_ligand_dft.xyz
 C   -1.218741   -2.322642    0.094599
 O   -0.639330   -2.166902    1.157824
 O   -2.546629   -2.351882   -0.068719
 C   -3.346786   -2.368029    1.135747
 C   -4.784350   -2.257859    0.710332
 C   -5.383216   -1.003078    0.582283
 C   -6.701529   -0.895870    0.151380
 C   -7.432996   -2.041306   -0.152899
 C   -6.842526   -3.295831   -0.023796
 C   -5.523058   -3.401314    0.405338
 N   -0.595879   -2.533194   -1.097215
 C    0.842286   -2.540802   -1.212449
 C    1.395791   -1.114176   -1.300710
 O    0.876610   -0.282493   -2.046250
 C    1.259409   -3.314600   -2.463321
 N   -0.291482    0.993646    2.164668
 C    0.990633    0.956829    2.790234
 C    1.801939   -0.280905    2.545579
 C    2.235474    1.037136    1.937736
 C    2.138784    1.344464    0.461580
 C    3.035276    0.500479   -0.456539
 C    4.494201    0.448217   -0.013056
 C    5.418965   -0.260948   -1.011983
 C    6.857530   -0.242211   -0.554848
 C    7.735887    0.748986   -0.996329
 C    9.047881    0.798580   -0.534077
 C    9.501478   -0.145921    0.382053
 C    8.635118   -1.139770    0.830182
 C    7.325393   -1.185358    0.363405
 N    2.500757   -0.857839   -0.577618
 O   -1.596361    0.719543   -1.371896
 C   -1.371111    2.114461   -1.192591
 C   -2.415680    2.662034   -0.219059
 C   -3.858063    2.535778   -0.767287
 C   -4.033771    3.198575   -2.147360
 C   -3.688756    4.687213   -2.209498
 C   -4.895222    3.063605    0.232333
 C   -2.273931    1.973358    1.153905
 O   -2.668304    0.614754    1.102667
 C   -0.862220    2.144783    1.735292
 O   -0.329175    3.244077    1.806455
 H   -3.047373   -1.533892    1.770630
 H   -3.150740   -3.308891    1.659686
 H   -4.801447   -0.117005    0.821213
 H   -7.158274    0.084901    0.054280
 H   -8.462958   -1.956950   -0.487564
 H   -7.409667   -4.192415   -0.256603
 H   -5.060821   -4.380694    0.504492
 H   -1.160752   -2.496256   -1.932307
 H    1.233662   -3.036513   -0.318501
 H    2.349480   -3.356145   -2.541248
 H    0.875058   -2.816506   -3.359288
 H    0.868154   -4.334705   -2.423682
 H   -0.822021    0.137498    2.058680
 H    1.035251    1.431250    3.767248
 H    2.383078   -0.684752    3.369025
 H    1.324575   -1.025714    1.914919
 H    3.077611    1.507020    2.440884
 H    1.109871    1.199033    0.124029
 H    2.368098    2.405210    0.310154
 H    2.979709    0.928379   -1.462727
 H    4.842783    1.477374    0.135137
 H    4.567089   -0.040345    0.968573
 H    5.082930   -1.295877   -1.149910
 H    5.329840    0.226844   -1.990363
 H    7.387732    1.489706   -1.712648
 H    9.717903    1.574960   -0.891870
 H   10.524552   -0.109043    0.744221
 H    8.980933   -1.882806    1.542975
 H    6.653434   -1.965471    0.715504
 H    2.764700   -1.523054    0.135211
 H   -0.785314    0.319124   -1.737528
 H   -0.369442    2.298398   -0.786415
 H   -1.428019    2.636461   -2.156366
 H   -2.176939    3.719228   -0.053107
 H   -4.059612    1.468075   -0.915484
 H   -3.440667    2.653914   -2.890889
 H   -5.080257    3.061314   -2.448335
 H   -2.626981    4.867214   -2.008744
 H   -4.266747    5.266473   -1.481189
 H   -3.907103    5.093968   -3.202276
 H   -5.886840    3.106591   -0.232083
 H   -4.647818    4.072959    0.582954
 H   -4.975400    2.415859    1.111050
 H   -2.937176    2.466692    1.872200
 H   -2.366864    0.290259    0.229511
