103 
4j73_ligand_dft.xyz
 N  -10.500821   -2.430255   -0.174505
 C   -9.142777   -2.539754    0.470694
 C   -8.336130   -1.409168   -0.217303
 O   -8.858636   -0.818587   -1.163135
 C   -8.542105   -3.922872    0.240945
 N   -7.117967   -1.169798    0.255858
 C   -6.219674   -0.183538   -0.328251
 C   -4.830717   -0.515519    0.238299
 O   -4.701499   -1.324956    1.151031
 C   -6.644333    1.250825    0.005572
 N   -3.797144    0.152615   -0.309965
 C   -2.424889   -0.098025    0.087567
 C   -1.588135    1.066351   -0.438700
 O   -1.912016    1.670421   -1.452248
 C   -1.928116   -1.431226   -0.524205
 C   -0.525927   -1.900137   -0.123422
 C   -0.363109   -2.163127    1.378824
 C    0.890372   -2.957346    1.725319
 N    2.121627   -2.258999    1.256404
 N   -0.449294    1.339213    0.249137
 C    0.664013    2.033452   -0.364551
 C    1.935939    1.260180    0.016719
 O    1.964572    0.590612    1.051457
 C    0.800063    3.502607    0.081090
 C   -0.399975    4.362294   -0.325456
 C   -0.162393    5.844499   -0.001171
 C   -1.352131    6.695027   -0.426519
 N   -1.099221    8.164257   -0.144925
 N    2.982559    1.431555   -0.805970
 C    4.294042    0.837693   -0.605327
 C    4.189605   -0.695179   -0.730058
 O    3.138082   -1.241938   -1.058805
 C    4.964492    1.293230    0.709336
 C    4.876084    2.800762    0.987742
 C    5.598052    3.117152    2.300511
 C    5.439143    3.642308   -0.159676
 N    5.318139   -1.379478   -0.448329
 C    5.414621   -2.834063   -0.537035
 C    5.556529   -3.334739    0.904113
 O    6.803275   -3.585128    1.261220
 C    6.499682   -3.310043   -1.516679
 C    6.461456   -4.837244   -1.635773
 C    6.300524   -2.653074   -2.885022
 O    4.620200   -3.432373    1.679303
 H  -11.219723   -2.061981    0.453075
 H  -10.836358   -3.318353   -0.556538
 H  -10.342825   -1.735871   -0.953786
 H   -9.261007   -2.335280    1.537133
 H   -8.417196   -4.125247   -0.827498
 H   -7.558036   -3.983186    0.711353
 H   -9.165739   -4.701669    0.689200
 H   -6.704623   -1.700298    1.019864
 H   -6.214551   -0.320485   -1.415686
 H   -5.957166    1.970847   -0.447605
 H   -7.643800    1.439927   -0.391631
 H   -6.650197    1.406422    1.088224
 H   -3.915217    0.747877   -1.121453
 H   -2.389589   -0.148593    1.180919
 H   -2.655293   -2.193836   -0.228066
 H   -1.981017   -1.334148   -1.614192
 H    0.230305   -1.185578   -0.472544
 H   -0.334384   -2.833542   -0.667851
 H   -1.222215   -2.732789    1.750760
 H   -0.352002   -1.225267    1.949995
 H    0.988675   -3.098800    2.803167
 H    0.883341   -3.941012    1.249794
 H    2.183265   -2.171943    0.228990
 H    2.999849   -2.745438    1.535058
 H    2.161299   -1.278934    1.572695
 H   -0.194413    0.776412    1.051615
 H    0.510971    2.002658   -1.449498
 H    1.715667    3.912079   -0.365488
 H    0.937613    3.529554    1.169227
 H   -1.297577    4.004511    0.191047
 H   -0.591374    4.239863   -1.397860
 H    0.014644    5.964118    1.075690
 H    0.740967    6.190678   -0.520753
 H   -1.547352    6.620430   -1.498550
 H   -2.262799    6.433829    0.116704
 H   -0.933913    8.332657    0.853637
 H   -0.274058    8.506128   -0.649989
 H   -1.893267    8.750354   -0.426658
 H    2.815790    1.893261   -1.687483
 H    4.906648    1.183805   -1.444812
 H    4.529023    0.744442    1.549598
 H    6.027619    1.023454    0.663604
 H    3.814804    3.053475    1.119067
 H    5.491309    4.175459    2.556743
 H    6.670216    2.904749    2.219261
 H    5.197852    2.527500    3.131926
 H    6.486416    3.385522   -0.358762
 H    4.878135    3.512865   -1.093111
 H    5.410115    4.706816    0.092284
 H    6.170391   -0.872592   -0.250878
 H    4.438731   -3.177485   -0.890945
 H    6.816304   -3.876009    2.190319
 H    7.478088   -3.015149   -1.117419
 H    6.628634   -5.335309   -0.676447
 H    5.499851   -5.173337   -2.041784
 H    7.243722   -5.177554   -2.318943
 H    7.047829   -3.026259   -3.590119
 H    5.310041   -2.885506   -3.293656
 H    6.405383   -1.564379   -2.840949
