88 
4j77_ligand_xtb.xyz
 N   -5.894853   -1.856588   -1.358174
 C   -6.477517   -0.530814   -0.991249
 C   -5.432575    0.195461   -0.088814
 O   -5.702555    0.572049    1.025601
 C   -7.793177   -0.736023   -0.239241
 C   -8.555676    0.579644   -0.055358
 C   -9.866387    0.366901    0.709787
 C  -10.599741    1.691442    0.891901
 N  -11.873674    1.507728    1.651555
 N   -4.234233    0.281527   -0.671616
 C   -3.013850    0.748046   -0.047436
 C   -1.943624    0.611403   -1.148387
 O   -2.225495    0.017042   -2.177009
 C   -2.634800   -0.114593    1.167896
 C   -2.477612   -1.610154    0.804898
 C   -3.606081   -2.416687    1.384398
 O   -3.351941   -2.854555    2.583752
 O   -4.672012   -2.636273    0.821413
 N   -0.762845    1.170832   -0.887358
 C    0.415436    0.880569   -1.681854
 C    1.209469   -0.218910   -0.948171
 O    0.923264   -0.547895    0.186490
 C    1.265079    2.139456   -1.914996
 C    2.049894    2.583580   -0.677611
 C    2.986515    3.757554   -0.988906
 C    4.135776    3.869671    0.012097
 N    5.228511    2.929384   -0.338169
 N    2.191989   -0.784424   -1.667804
 C    3.181328   -1.655613   -1.072509
 C    4.321407   -0.786251   -0.530031
 O    4.314006    0.427614   -0.706950
 C    3.720265   -2.616574   -2.140220
 O    4.372160   -1.821712   -3.103590
 N    5.280421   -1.404468    0.154281
 C    6.464374   -0.721951    0.623107
 C    7.581557   -1.770881    0.724638
 O    7.364337   -2.940177    0.583110
 C    6.235836   -0.054697    2.001320
 C    7.162857    1.130040    2.179192
 O    7.044524    2.157769    1.540314
 O    8.084534    0.928019    3.076142
 O    8.746963   -1.219362    0.988351
 H   -5.235862   -1.791816   -2.139005
 H   -6.629457   -2.526340   -1.608510
 H   -5.356463   -2.239109   -0.494440
 H   -6.650069    0.056884   -1.898058
 H   -8.421706   -1.438589   -0.791237
 H   -7.570286   -1.157982    0.741930
 H   -7.923297    1.272655    0.498195
 H   -8.772778    1.014568   -1.032178
 H   -9.637202   -0.067737    1.684178
 H  -10.496169   -0.334511    0.158733
 H  -10.840719    2.127044   -0.079137
 H   -9.970670    2.394331    1.440372
 H  -11.683927    1.117200    2.584966
 H  -12.365061    2.404210    1.770583
 H  -12.501256    0.860139    1.154831
 H   -4.050166    0.022497   -1.642091
 H   -3.117606    1.791864    0.269061
 H   -1.695096    0.248242    1.579908
 H   -3.403689    0.016081    1.930843
 H   -1.545760   -1.983627    1.226590
 H   -2.447881   -1.739564   -0.277275
 H   -4.075331   -3.368204    2.984510
 H   -0.584112    1.530996    0.038358
 H    0.055495    0.490744   -2.639431
 H    0.609608    2.943011   -2.254354
 H    1.970747    1.927706   -2.719545
 H    1.366553    2.874744    0.121081
 H    2.634082    1.735889   -0.322457
 H    2.418665    4.687203   -0.984532
 H    3.402175    3.641359   -1.991390
 H    4.539089    4.882878    0.020491
 H    3.784966    3.632272    1.016807
 H    5.711188    3.247653   -1.181164
 H    5.936501    2.812140    0.428560
 H    4.846603    1.967518   -0.521514
 H    2.450314   -0.417948   -2.572407
 H    2.709780   -2.200719   -0.249032
 H    4.410724   -3.336621   -1.683351
 H    2.880263   -3.167416   -2.582692
 H    4.719940   -2.381471   -3.806580
 H    5.313934   -2.414068    0.251861
 H    6.753825    0.042487   -0.108851
 H    5.205102    0.303496    2.040468
 H    6.398711   -0.767737    2.808468
 H    8.697465    1.676204    3.189097
 H    9.456826   -1.880357    1.072649
