66 
4j7d_ligand_dft.xyz
 N   -0.417099   -0.142714    1.961309
 C    1.042341   -0.231632    1.945070
 C    1.593058   -0.162170    3.370918
 C    1.655731    0.870981    1.065736
 C    1.170687   -1.672656    1.256481
 C    1.094516   -2.813264    2.285119
 C    2.417421   -1.784368    0.394217
 N   -0.051401   -1.777333    0.444613
 C   -0.883920   -0.920487    0.917481
 C   -2.272442   -0.813821    0.417110
 C    0.899830    1.544813    0.104210
 C    1.467352    2.502951   -0.730706
 C    2.817599    2.796421   -0.608595
Cl    3.542493    3.994004   -1.657456
 C    3.598275    2.147839    0.339912
 C    3.011648    1.199466    1.167329
 C    3.670314   -2.041536    0.953048
 C    4.823572   -2.038604    0.174565
 C    4.717956   -1.781634   -1.185825
Cl    6.163104   -1.766161   -2.175119
 C    3.481648   -1.541505   -1.772796
 C    2.341878   -1.546960   -0.978619
 C   -2.853081   -1.933571   -0.170295
 C   -4.139627   -1.900700   -0.696195
 C   -4.894476   -0.729614   -0.654705
 C   -6.314467   -0.628975   -1.224520
 C   -7.290601   -0.230545   -0.101147
 C   -6.341608    0.438964   -2.334728
 C   -4.315026    0.403666   -0.070070
 C   -3.029550    0.371624    0.457710
 O   -2.430154    1.464375    1.012003
 C   -3.025872    2.745841    0.872178
 C   -2.045841    3.757095    1.432393
 C   -6.793163   -1.957865   -1.825273
 H   -0.853146    0.758328    2.102471
 H    2.644607   -0.460729    3.417797
 H    1.518743    0.859489    3.757620
 H    1.019384   -0.819420    4.026544
 H    1.072537   -3.765048    1.748260
 H    1.941015   -2.825767    2.977203
 H    0.175081   -2.726185    2.871540
 H   -0.156663    1.333182   -0.010417
 H    0.863003    3.011307   -1.474588
 H    4.654508    2.376824    0.428403
 H    3.644421    0.692674    1.886760
 H    3.769725   -2.234666    2.017099
 H    5.793199   -2.232647    0.620273
 H    3.412219   -1.348727   -2.837865
 H    1.369959   -1.358939   -1.420819
 H   -2.261336   -2.841888   -0.214279
 H   -4.542955   -2.803050   -1.139683
 H   -7.032289    0.736621    0.342132
 H   -8.309911   -0.153661   -0.496826
 H   -7.288427   -0.978352    0.698885
 H   -6.070245    1.429149   -1.954312
 H   -7.346318    0.512486   -2.766618
 H   -5.641326    0.183117   -3.136946
 H   -4.880343    1.327310   -0.030994
 H   -3.230872    2.939147   -0.188851
 H   -3.977705    2.777833    1.418454
 H   -1.863649    3.568882    2.494688
 H   -1.090608    3.703297    0.901822
 H   -2.449764    4.768200    1.326059
 H   -6.823563   -2.754659   -1.074356
 H   -6.151847   -2.284161   -2.651181
 H   -7.806770   -1.836466   -2.221996
