81 
4j7i_ligand_xtb.xyz
 N    7.993983    0.992652   -0.568759
 C    8.376754   -0.444758   -0.734571
 C    7.074384   -1.225296   -0.425588
 O    6.450405   -1.781557   -1.291779
 C    9.547514   -0.749307    0.207597
 O    9.292421   -0.059347    1.420863
 N    6.666498   -1.082393    0.852988
 C    5.245525   -1.086009    1.121204
 C    4.641187    0.097916    0.341628
 O    5.354722    0.957057   -0.185929
 C    4.980190   -0.958843    2.615192
 N    3.320247    0.119851    0.279499
 C    2.533048    1.159054   -0.338173
 C    1.112029    1.016514    0.221991
 O    0.822053    0.072122    0.944756
 C    2.533907    1.041729   -1.875124
 O    1.859785    2.166105   -2.388053
 N    0.270928    1.986310   -0.129244
 C   -1.087609    2.071186    0.376175
 C   -2.015129    1.093568   -0.374464
 O   -2.800459    1.451201   -1.238522
 C   -1.602125    3.505569    0.268531
 C   -2.992219    3.658273    0.914667
 C   -4.044802    4.222826   -0.053419
 C   -5.395077    3.526067    0.054636
 N   -5.257466    2.112580   -0.364416
 N   -1.868092   -0.176560    0.015136
 C   -2.790325   -1.217085   -0.381771
 C   -4.132359   -0.984939    0.369691
 O   -4.288847    0.036959    1.029479
 C   -2.144938   -2.585917   -0.127048
 C   -2.634374   -3.677101   -1.057771
 O   -3.773895   -3.782008   -1.443283
 O   -1.670764   -4.509353   -1.392010
 N   -5.026274   -1.949548    0.196045
 C   -6.364064   -2.000691    0.759748
 C   -7.302621   -0.996549    0.096121
 O   -6.947976   -0.004866   -0.496216
 C   -6.374974   -1.762026    2.274354
 O   -8.559943   -1.337575    0.271764
 H    6.918843    1.057792   -0.440374
 H    8.435617    1.312052    0.308996
 H    8.292561    1.585377   -1.345250
 H    8.651591   -0.659068   -1.768834
 H    9.617663   -1.829673    0.366620
 H   10.487648   -0.399349   -0.236459
 H    9.997467   -0.241517    2.051173
 H    7.269620   -0.620369    1.521320
 H    4.818355   -2.013147    0.723895
 H    5.451204   -1.783838    3.142789
 H    3.914575   -0.985492    2.822082
 H    5.382037   -0.022663    2.997625
 H    2.749203   -0.572218    0.761268
 H    2.939222    2.144248   -0.079826
 H    2.036709    0.109259   -2.176246
 H    3.575184    1.011872   -2.216834
 H    1.936077    2.177512   -3.348387
 H    0.552588    2.626016   -0.862099
 H   -1.059641    1.757937    1.427141
 H   -1.646686    3.770188   -0.788815
 H   -0.881639    4.168282    0.746777
 H   -3.314205    2.682404    1.279063
 H   -2.918441    4.307343    1.785679
 H   -4.183876    5.288191    0.124534
 H   -3.697822    4.111053   -1.081733
 H   -5.778310    3.564096    1.074853
 H   -6.110135    4.022520   -0.602967
 H   -4.502434    2.019356   -1.073724
 H   -4.942734    1.476919    0.404829
 H   -6.125350    1.686040   -0.715420
 H   -1.179743   -0.386855    0.729956
 H   -3.008916   -1.086841   -1.450977
 H   -1.063409   -2.508124   -0.250011
 H   -2.341354   -2.913315    0.897777
 H   -1.987392   -5.231318   -1.962532
 H   -4.783058   -2.696840   -0.457853
 H   -6.763464   -2.997846    0.556330
 H   -7.390537   -1.846838    2.648722
 H   -5.758894   -2.511439    2.763523
 H   -5.983778   -0.776704    2.511328
 H   -9.186678   -0.710223   -0.126886
