91 
4j84_ligand_xtb.xyz
 N    7.350656   -0.047041    2.241663
 C    5.892125   -0.129456    2.328009
 C    5.300728    0.570027    1.105086
 O    5.881210    1.461914    0.511657
 C    5.315568    0.528161    3.588762
 N    4.115893    0.084096    0.690426
 C    3.346171    0.696273   -0.372459
 C    1.921512    0.889234    0.158183
 O    1.494153    0.204053    1.073106
 C    3.318936   -0.202904   -1.632946
 C    4.242740    0.252754   -2.767471
 C    5.727937    0.309817   -2.408200
 N    6.221470   -1.005349   -2.037302
 C    7.054172   -1.278025   -1.034772
 N    7.742819   -0.343693   -0.399608
 N    7.203790   -2.555117   -0.647012
 N    1.196255    1.827048   -0.464848
 C   -0.124504    2.256779   -0.016573
 C   -1.213811    1.300967   -0.551985
 O   -2.125769    1.636963   -1.295454
 C   -0.291836    3.739807   -0.377707
 C   -1.710945    4.311113   -0.300859
 C   -2.456448    4.044126    1.013323
 C   -3.959721    3.931968    0.778553
 N   -4.246106    2.635802    0.130089
 N   -1.067129    0.057440   -0.093675
 C   -2.043412   -0.980510   -0.347944
 C   -3.375029   -0.594850    0.298241
 O   -3.456869    0.301627    1.127148
 C   -1.546153   -2.305031    0.238476
 C   -0.327919   -2.873829   -0.501771
 C    0.296393   -3.983588    0.341097
 C   -0.713003   -3.411830   -1.877605
 N   -4.434839   -1.283579   -0.147563
 C   -5.698974   -1.309052    0.556514
 C   -5.770060   -2.632202    1.337946
 O   -4.904312   -3.459816    1.274056
 C   -6.898201   -1.183930   -0.384308
 C   -7.068512    0.198689   -0.970464
 O   -8.018141    0.214705   -1.880718
 O   -6.429400    1.174388   -0.649493
 O   -6.870626   -2.726860    2.058671
 H    7.773827   -0.490388    3.051103
 H    7.895189   -0.424837    0.632154
 H    7.621224    0.934316    2.255929
 H    5.615694   -1.190005    2.304607
 H    4.233349    0.430694    3.616278
 H    5.725902    0.055969    4.478582
 H    5.570286    1.586195    3.607412
 H    3.576875   -0.533079    1.285868
 H    3.797960    1.667238   -0.599207
 H    3.577403   -1.217238   -1.323516
 H    2.301713   -0.235972   -2.028365
 H    4.100851   -0.424223   -3.612578
 H    3.948698    1.249350   -3.098885
 H    6.287392    0.688454   -3.269644
 H    5.871107    0.993596   -1.569651
 H    5.876590   -1.771102   -2.598760
 H    7.603233    0.619002   -0.673830
 H    6.830278   -3.313263   -1.192366
 H    7.945720   -2.779891   -0.004537
 H    1.598075    2.340018   -1.235075
 H   -0.132497    2.133426    1.074742
 H    0.367995    4.309786    0.279413
 H    0.051172    3.885512   -1.404932
 H   -1.636183    5.387761   -0.457960
 H   -2.273657    3.909415   -1.142017
 H   -2.120839    3.114368    1.472448
 H   -2.260234    4.847307    1.721914
 H   -4.305343    4.744036    0.136816
 H   -4.502372    3.978832    1.723249
 H   -4.042011    1.832616    0.771174
 H   -5.217287    2.513081   -0.188510
 H   -3.599175    2.471988   -0.669173
 H   -0.337812   -0.138317    0.587726
 H   -2.202392   -1.057842   -1.430134
 H   -2.350692   -3.042027    0.226016
 H   -1.284692   -2.129667    1.284657
 H    0.411759   -2.073884   -0.628045
 H   -0.428615   -4.772557    0.522062
 H    0.630526   -3.597906    1.301214
 H    1.150323   -4.418586   -0.171873
 H   -1.465418   -4.190567   -1.780819
 H   -1.104114   -2.627950   -2.522299
 H    0.154580   -3.843785   -2.369628
 H   -4.267914   -2.075010   -0.754402
 H   -5.698486   -0.480044    1.273237
 H   -6.831067   -1.898933   -1.206512
 H   -7.811749   -1.412323    0.170576
 H   -8.181729    1.096653   -2.254346
 H   -6.911596   -3.560306    2.558162
