21 
4jbl_ligand_dft.xyz
 N    0.740806    1.118864   -1.348167
 C    1.273875    0.898134    0.046674
 C    1.856088   -0.512715    0.157743
 O    2.013357   -1.073150    1.203375
 C    0.213032    1.187640    1.115587
 C   -0.962626    0.207691    1.187080
 S   -2.037524    0.307834   -0.295800
 C   -2.778013   -1.348472   -0.304821
 O    2.197853   -0.994801   -1.047079
 H    1.353418    0.688937   -2.049651
 H   -0.217744    0.684301   -1.405274
 H    0.639738    2.115779   -1.557757
 H    2.113159    1.590841    0.169489
 H    0.736455    1.152810    2.075249
 H   -0.144688    2.217146    0.994627
 H   -0.596049   -0.817072    1.296079
 H   -1.560249    0.441025    2.071359
 H   -3.452493   -1.391240   -1.162026
 H   -3.358109   -1.497655    0.607743
 H   -2.016087   -2.124614   -0.400338
 H    2.613588   -1.867713   -0.933474
