73 
4jbo_ligand_xtb.xyz
 C   12.330508   -3.579871   -0.087691
 N   11.653377   -2.370155    0.400509
 C   11.975262   -2.116932    1.813799
 C   11.909351   -1.185778   -0.458151
 C   10.720023   -0.225835   -0.333215
 O    9.576841   -1.051585   -0.363847
 C    8.314274   -0.458535   -0.349818
 C    8.092890    0.906815   -0.276263
 C    6.795827    1.383294   -0.264864
 C    7.240615   -1.340862   -0.406972
 C    5.950109   -0.860100   -0.394966
 C    5.704734    0.514515   -0.323605
 C    4.361341    1.045921   -0.314479
 O    4.215074    2.405525   -0.239230
 C    3.140134    0.425574   -0.374786
 C    2.169554    1.456758   -0.337211
 C    2.901577    2.657830   -0.253705
 N    2.374175    3.872298   -0.197644
 C    1.053292    3.866465   -0.231558
 N    0.242839    2.828226   -0.308642
 C    0.761103    1.598267   -0.365653
 N   -0.061650    0.545891   -0.479795
 C   -1.498938    0.646668   -0.432465
 C   -2.058802    0.307239    0.958533
 C   -3.559734    0.310324    0.912667
 C   -4.260384   -0.843412    0.587454
 C   -5.637763   -0.847095    0.485974
 C   -4.277261    1.477636    1.137587
 C   -5.654023    1.488065    1.040858
 C   -6.351275    0.327180    0.707490
 N   -7.741108    0.405625    0.614348
 C   -8.628165   -0.580599    0.227410
 O   -8.301487   -1.706931   -0.065580
 N   -9.920847   -0.115263    0.219767
 C  -11.091467   -0.801140   -0.128355
 C  -12.287688   -0.086713   -0.093909
 C  -13.479037   -0.701240   -0.427007
 C  -13.493961   -2.035219   -0.798206
 C  -12.306686   -2.746016   -0.831245
 C  -11.107702   -2.141314   -0.499743
 H   12.016880   -3.807405   -1.104569
 H   13.409315   -3.430058   -0.074155
 H   12.086525   -4.428550    0.548592
 H   10.623972   -2.487280    0.315200
 H   13.047492   -1.960964    1.924932
 H   11.448257   -1.236190    2.173001
 H   11.679262   -2.968094    2.424060
 H   11.979266   -1.525097   -1.493023
 H   12.844617   -0.702899   -0.175202
 H   10.728801    0.479563   -1.171330
 H   10.758811    0.347683    0.602828
 H    8.908997    1.610591   -0.231655
 H    6.616923    2.445002   -0.211213
 H    7.432681   -2.400982   -0.468012
 H    5.127434   -1.554213   -0.443118
 H    2.960644   -0.628488   -0.441144
 H    0.574926    4.835097   -0.188593
 H    0.344147   -0.375177   -0.427020
 H   -1.923308   -0.036139   -1.173945
 H   -1.759305    1.672500   -0.694216
 H   -1.695048    1.046331    1.673925
 H   -1.697652   -0.678715    1.261431
 H   -3.721442   -1.763753    0.413055
 H   -6.165654   -1.749952    0.232318
 H   -3.753329    2.387203    1.392272
 H   -6.196996    2.405687    1.222077
 H   -8.115520    1.320046    0.824875
 H  -10.077708    0.849077    0.477576
 H  -12.281456    0.956012    0.195172
 H  -14.397987   -0.134878   -0.396501
 H  -14.424745   -2.515193   -1.059194
 H  -12.309229   -3.786827   -1.118556
 H  -10.186724   -2.697674   -0.527834
