45 
4jck_ligand_dft.xyz
 C   -3.578209   -0.133669   -0.970435
 C   -2.731966    1.106249   -0.675400
 C   -3.535504    2.370093   -0.413139
 O   -2.614111   -1.767027    1.269508
 C   -1.769235   -1.477045    0.165310
 C   -2.667084   -1.368422   -1.078333
 O   -3.413247   -2.534604   -1.286992
 O   -4.584510   -0.353355   -0.001060
 O   -2.685480    3.455958   -0.129179
 O   -1.950390    0.909352    0.504238
 C   -1.031376   -0.148192    0.374379
 S   -0.057888   -0.140706    1.925691
 C    1.649173   -0.163049    1.307436
 O    1.836257    0.896124    0.400446
 C    3.214231    1.129311    0.109504
 C    3.250555    2.403654   -0.720542
 O    2.724151    3.489745   -0.001482
 C    3.819766   -0.088419   -0.584648
 O    3.288721   -0.296369   -1.883401
 C    3.603792   -1.358551    0.258188
 O    3.938409   -2.500710   -0.501971
 C    2.130579   -1.480402    0.701525
 O    1.341277   -1.793955   -0.433857
 H   -4.099766    0.005822   -1.923019
 H   -2.049379    1.287206   -1.522885
 H   -4.109264    2.630033   -1.307495
 H   -4.245353    2.176611    0.402019
 H   -2.053676   -1.958854    2.033024
 H   -1.035208   -2.275038    0.016312
 H   -2.008743   -1.249862   -1.947620
 H   -4.142616   -2.488761   -0.650947
 H   -4.122284   -0.546325    0.832537
 H   -2.113044    3.157935    0.590751
 H   -0.336399    0.034297   -0.454317
 H    2.241604    0.011690    2.220672
 H    3.750463    1.309937    1.055421
 H    4.289275    2.647579   -0.961792
 H    2.716109    2.231199   -1.664368
 H    1.825863    3.240912    0.253926
 H    4.893344    0.073902   -0.726600
 H    2.337229   -0.455036   -1.760165
 H    4.246104   -1.324076    1.147051
 H    3.967707   -2.192389   -1.423314
 H    2.039348   -2.271534    1.457632
 H    1.757950   -2.584559   -0.810946
