70 
4jfi_ligand_xtb.xyz
 O    3.548332   -2.486049    1.596694
 C    3.275372   -1.465497    0.992611
 C    3.698653   -1.268392   -0.460529
 N    2.556033   -0.467131    1.549676
 C    1.883106   -0.724291    2.805404
 C    0.401125   -0.916040    2.501821
 C   -0.123597    0.309563    1.809432
 C   -1.473102    0.624860    1.918829
 C   -1.959287    1.799210    1.369530
 O   -3.249846    2.211086    1.411148
 C   -4.202356    1.387961    2.052444
 C   -1.071836    2.680230    0.747594
 C    0.270352    2.371054    0.641796
 O    1.198942    3.218671    0.109252
 C    0.762057    4.429608   -0.462357
 C    0.753213    1.142056    1.128293
 C    2.228699    0.818460    0.963054
 C    2.677191    0.903173   -0.518644
 C    4.056552    1.558905   -0.665401
 C    5.145155    0.722725   -0.001150
 C    5.110334   -0.689974   -0.573739
 N    2.722390   -0.413052   -1.098729
 C    1.821254   -0.929672   -1.953745
 O    1.909894   -2.049873   -2.425981
 C    0.614269   -0.045662   -2.265275
 O    0.678460    0.930012   -2.984088
 C   -0.632913   -0.500124   -1.620591
 C   -0.698665   -1.706014   -0.927523
 C   -1.750577    0.326131   -1.717762
 C   -2.941392   -0.038709   -1.109048
 O   -4.092937    0.674522   -1.160097
 C   -4.072683    1.934115   -1.790244
 C   -3.000326   -1.237690   -0.380137
 O   -4.147105   -1.567017    0.309156
 C   -5.116630   -2.250722   -0.463522
 C   -1.885466   -2.087258   -0.316924
 O   -2.066867   -3.246814    0.362032
 C   -1.019828   -4.191251    0.378440
 H    3.660574   -2.249764   -0.945508
 H    2.324482   -1.620147    3.244342
 H    2.029360    0.126550    3.477436
 H    0.279641   -1.790483    1.857692
 H   -0.161275   -1.096789    3.418492
 H   -2.123453   -0.058858    2.438616
 H   -5.150235    1.914346    1.955104
 H   -4.278540    0.409725    1.572047
 H   -3.964481    1.262898    3.113182
 H   -1.470313    3.610780    0.379678
 H    1.660831    4.910676   -0.844864
 H    0.068436    4.252316   -1.289262
 H    0.290901    5.079526    0.281040
 H    2.783658    1.594824    1.516895
 H    1.959899    1.505803   -1.071919
 H    4.014358    2.560819   -0.237534
 H    4.273599    1.653738   -1.731425
 H    4.988859    0.685126    1.078713
 H    6.122207    1.174431   -0.180448
 H    5.395599   -0.669968   -1.627536
 H    5.799816   -1.344887   -0.040087
 H    0.160190   -2.353815   -0.898849
 H   -1.652672    1.241651   -2.277607
 H   -3.370842    2.610184   -1.295705
 H   -3.820025    1.847955   -2.851567
 H   -5.083218    2.326094   -1.689028
 H   -4.723122   -3.204565   -0.827906
 H   -5.956541   -2.432953    0.203601
 H   -5.444188   -1.641624   -1.311228
 H   -0.138222   -3.816869    0.907920
 H   -0.731542   -4.488659   -0.633900
 H   -1.415728   -5.053632    0.912128
