66 
4jfk_ligand_xtb.xyz
 C    2.945445   -1.474066   -1.155418
 N    3.497025    0.540803    0.257073
 O    3.033122   -2.037013   -2.234232
 C    3.749672   -0.185794   -0.954443
 C    5.252176   -0.468748   -1.128366
 C   -6.704194   -0.310913   -0.407117
 C   -3.336178    0.178354    3.784215
 O   -4.412679    1.193843   -2.234301
 O    3.283893    2.657472   -1.077274
 O    3.137038    2.736365    1.392756
 C   -2.834739   -1.970158   -0.727882
 C   -4.127852   -1.465135   -0.634198
 C    0.288461    2.183842    1.114072
 C   -1.091567    2.142001    1.011233
 C   -2.368482   -1.108379    1.466044
 C    0.543084    1.392980   -1.157426
 C    5.824551   -1.122985    0.123399
 C   -0.084872   -2.780244   -0.807269
 C    5.542227   -0.242475    1.339001
 C    3.264405   -1.235515    1.931283
 C    1.367681   -3.139633   -0.487497
 C    1.961526   -1.398044    1.152304
 N   -2.987925    1.691798   -0.510221
 O   -5.773853   -0.198369    0.647171
 O   -4.111070    0.137039    2.611453
 O   -0.666033   -2.249518    0.365425
 S   -1.798174    0.885270   -2.643200
 C   -1.954457   -1.795785    0.321591
 C    1.086557    1.825100    0.038569
 C   -4.547587   -0.767795    0.482455
 C   -3.642847   -0.589134    1.555321
 C   -3.313855    1.279154   -1.765360
 C   -1.653237    1.731723   -0.188630
 C   -0.835034    1.340583   -1.258695
 C    4.039307    0.024063    1.489392
 N    2.161602   -1.967913   -0.168432
 S    2.868576    2.059834    0.156960
 H    3.448990    0.474650   -1.775165
 H    5.757715    0.481225   -1.309551
 H    5.383008   -1.110104   -2.000176
 H   -6.963745   -1.356418   -0.600565
 H   -6.323724    0.151641   -1.322239
 H   -7.590504    0.222985   -0.068963
 H   -2.388968    0.706721    3.628934
 H   -3.127778   -0.827249    4.161859
 H   -3.936164    0.720893    4.513126
 H   -2.545420   -2.492342   -1.624735
 H   -4.796576   -1.613036   -1.465394
 H    0.773429    2.524463    2.014714
 H   -1.723783    2.446124    1.830331
 H   -1.652645   -0.994472    2.262665
 H    1.174668    1.139470   -1.991704
 H    5.378514   -2.111333    0.252161
 H    6.901465   -1.258902    0.009940
 H   -0.115601   -2.041354   -1.618444
 H   -0.615777   -3.686279   -1.127891
 H    5.915944   -0.709450    2.251672
 H    6.050253    0.714933    1.210824
 H    3.872315   -2.127946    1.781413
 H    3.034871   -1.164854    2.994700
 H    1.392979   -3.832340    0.356994
 H    1.813715   -3.610012   -1.366158
 H    1.307741   -2.086022    1.688421
 H    1.442227   -0.436106    1.082903
 H   -3.720161    1.899874    0.155318
 H    3.887171    0.824209    2.218462
