61 
4jfm_ligand_xtb.xyz
 C    2.891641    0.028708    3.482121
 O    2.309760   -0.149507    2.203973
 C    2.819616    0.660150    1.203572
 C    1.945032    1.532113    0.573944
 C    4.150625    0.543936    0.774360
 O    4.917034   -0.404525    1.395006
 C    6.178028   -0.702151    0.836304
 C    4.584430    1.366467   -0.256833
 C    3.716644    2.249210   -0.868702
 C    2.385599    2.330273   -0.475778
 O    1.616386    3.240435   -1.158034
 C    0.217490    3.154745   -1.064271
 C   -0.293264    1.906041   -1.799091
 O   -1.695836    1.703891   -1.653466
 C   -2.120686    1.226357   -0.484189
 O   -1.393864    1.031747    0.458820
 C   -3.617359    0.946823   -0.524587
 C   -4.408818    2.208182   -0.141462
 C   -4.290839    2.483105    1.354717
 C   -4.776663    1.261667    2.130348
 C   -3.925051    0.052583    1.754369
 N   -3.990975   -0.156714    0.323090
 S   -3.609802   -1.668589   -0.254807
 O   -4.209410   -2.617263    0.634085
 O   -3.975253   -1.679206   -1.640448
 C   -1.826123   -1.825986   -0.144343
 C   -1.069668   -1.603072   -1.278476
 C    0.306683   -1.668588   -1.154079
 S    1.526038   -1.417615   -2.386139
 C    2.842540   -1.696743   -1.190635
 O    4.011796   -1.640924   -1.448212
 N    2.275272   -1.986837    0.007531
 C    0.903618   -1.952065    0.082235
 C    0.125659   -2.179837    1.207509
 C   -1.250196   -2.112294    1.082553
 H    3.954431   -0.223691    3.478842
 H    2.765571    1.059660    3.827176
 H    2.355573   -0.643792    4.149900
 H    0.924906    1.532075    0.924051
 H    6.075408   -0.998670   -0.210549
 H    6.564246   -1.537569    1.418470
 H    6.864935    0.145058    0.922724
 H    5.599832    1.306677   -0.610585
 H    4.056451    2.879499   -1.673950
 H   -0.161871    4.060116   -1.545183
 H   -0.118812    3.140164   -0.021376
 H   -0.116740    1.996213   -2.871675
 H    0.236345    1.030167   -1.410273
 H   -3.866210    0.649388   -1.547921
 H   -5.455997    2.038573   -0.395354
 H   -4.040200    3.050745   -0.728527
 H   -4.885137    3.360342    1.615470
 H   -3.249948    2.686555    1.614304
 H   -4.703705    1.434168    3.204446
 H   -5.819010    1.060688    1.879237
 H   -4.312128   -0.860398    2.208016
 H   -2.890386    0.211444    2.081760
 H   -1.555091   -1.395229   -2.218050
 H    2.850321   -2.051469    0.838074
 H    0.594704   -2.387147    2.154745
 H   -1.895877   -2.294372    1.925707
