37 
4jfs_ligand_xtb.xyz
 C   -5.581549   -0.041910   -0.185017
 O   -4.531242   -0.257357    0.736119
 C   -3.263986   -0.059654    0.351074
 C   -2.857289    0.336522   -0.923624
 C   -1.514736    0.509220   -1.198248
 C   -2.283960   -0.272730    1.330141
 C   -0.950955   -0.092341    1.046001
 C   -0.539119    0.302110   -0.228764
 C    0.903457    0.521940   -0.585908
 C    1.721948    1.350767    0.450014
 O    2.187046    2.558090   -0.078942
 C    2.951474    0.455464    0.750871
 O    3.927970    0.637557   -0.237982
 C    2.402112   -0.964290    0.569457
 C    3.478992   -2.027969    0.497639
 N    1.684137   -0.774737   -0.726267
 C    0.903253   -1.915468   -1.206987
 H   -5.596405    0.992927   -0.537225
 H   -5.509256   -0.722361   -1.037921
 H   -6.497500   -0.248686    0.364371
 H   -3.578018    0.516150   -1.704079
 H   -1.225804    0.824646   -2.190679
 H   -2.605271   -0.573671    2.313749
 H   -0.230996   -0.253003    1.834829
 H    0.951581    1.034417   -1.551764
 H    1.135684    1.513125    1.359932
 H    1.516253    3.245228   -0.015733
 H    3.355982    0.634851    1.753019
 H    4.111039    1.583945   -0.313444
 H    1.666799   -1.202071    1.340256
 H    4.192867   -1.797303   -0.288991
 H    3.057083   -3.015912    0.338861
 H    4.019003   -2.043689    1.440216
 H    2.449811   -0.577411   -1.385432
 H    1.559900   -2.759626   -1.403463
 H    0.386498   -1.648060   -2.126589
 H    0.163744   -2.196621   -0.459490
