37 
4jfs_ligand_dft.xyz
 C   -5.572366   -0.108514   -0.220387
 O   -4.537084   -0.231737    0.742650
 C   -3.270287   -0.026854    0.359828
 C   -2.868339    0.304646   -0.938114
 C   -1.517368    0.492395   -1.209572
 C   -2.301763   -0.157873    1.368452
 C   -0.965930    0.039946    1.081989
 C   -0.544444    0.363619   -0.218668
 C    0.899340    0.552254   -0.577839
 C    1.776730    1.354011    0.428198
 O    2.263693    2.544152   -0.136892
 C    2.980917    0.441250    0.726399
 O    3.930457    0.575507   -0.304137
 C    2.408113   -0.964237    0.590513
 C    3.420076   -2.092731    0.556418
 N    1.660863   -0.790252   -0.713227
 C    0.863868   -1.951601   -1.175409
 H   -5.603025    0.902945   -0.640760
 H   -5.452159   -0.843916   -1.024079
 H   -6.499423   -0.306247    0.315592
 H   -3.591862    0.424533   -1.735329
 H   -1.223804    0.755054   -2.223497
 H   -2.631869   -0.403876    2.371710
 H   -0.249930   -0.052738    1.895181
 H    0.980898    1.027627   -1.557366
 H    1.214331    1.549273    1.345922
 H    1.727043    3.294883    0.140498
 H    3.416575    0.620070    1.715839
 H    4.050698    1.525552   -0.460444
 H    1.647082   -1.141883    1.356797
 H    4.145059   -1.953402   -0.249646
 H    2.939471   -3.069138    0.457384
 H    3.971120   -2.093390    1.500663
 H    2.409412   -0.606956   -1.391739
 H    1.541376   -2.779033   -1.385520
 H    0.326057   -1.672516   -2.081876
 H    0.149105   -2.226319   -0.400549
