34 
4jft_ligand_dft.xyz
 C    5.528335   -0.070226    0.319963
 O    4.494435   -0.495718   -0.554769
 C    3.224437   -0.207133   -0.245069
 C    2.259302   -0.658021   -1.160726
 C    0.920347   -0.406584   -0.939282
 C    2.817308    0.495640    0.893897
 C    1.463672    0.733943    1.105361
 C    0.496229    0.294458    0.202077
 C   -0.954205    0.547182    0.486735
 N   -1.647191   -0.747037    0.952941
 C   -2.530311   -1.223569   -0.180643
 C   -3.522982   -2.274109    0.273802
 C   -3.095228    0.117879   -0.627621
 O   -3.932527    0.554566    0.413883
 C   -1.854362    1.023860   -0.692973
 O   -2.272609    2.350524   -0.517723
 H    5.417111   -0.525049    1.310770
 H    6.456936   -0.412366   -0.134252
 H    5.545761    1.021768    0.409301
 H    2.594357   -1.194022   -2.041762
 H    0.203668   -0.755153   -1.679709
 H    3.539302    0.861211    1.613910
 H    1.164434    1.284797    1.993910
 H   -1.067812    1.261507    1.303527
 H   -2.266481   -0.537228    1.742322
 H   -0.961133   -1.445430    1.248656
 H   -1.853720   -1.618649   -0.944349
 H   -4.117112   -2.595940   -0.585402
 H   -3.015566   -3.156002    0.675882
 H   -4.208720   -1.870405    1.022871
 H   -3.619429    0.047452   -1.587598
 H   -4.069399    1.507291    0.297414
 H   -1.335383    0.887860   -1.647351
 H   -1.706114    2.952726   -1.012977
