34 
4jft_ligand_xtb.xyz
 C    5.540580    0.116974    0.144041
 O    4.489886   -0.616968   -0.452495
 C    3.219714   -0.304210   -0.166963
 C    2.239737   -1.072739   -0.810881
 C    0.903727   -0.832844   -0.594724
 C    2.811482    0.707321    0.703858
 C    1.465888    0.933781    0.920682
 C    0.493893    0.176035    0.279261
 C   -0.959222    0.464186    0.514906
 N   -1.715194   -0.776993    0.933629
 C   -2.628325   -1.175307   -0.185756
 C   -3.748663   -2.066106    0.307977
 C   -3.073249    0.208334   -0.667491
 O   -3.897608    0.750205    0.324543
 C   -1.736880    0.987208   -0.735438
 O   -2.019391    2.349415   -0.656997
 H    5.529183    0.015816    1.232646
 H    6.457799   -0.316733   -0.248814
 H    5.493624    1.174180   -0.130395
 H    2.563308   -1.849932   -1.483470
 H    0.176594   -1.435078   -1.119962
 H    3.533580    1.320778    1.216562
 H    1.170905    1.721398    1.598297
 H   -1.063268    1.215861    1.302738
 H   -2.334151   -0.550090    1.720889
 H   -1.069508   -1.522878    1.209675
 H   -2.040456   -1.670355   -0.961453
 H   -4.363195   -2.373041   -0.533302
 H   -3.357247   -2.961392    0.784311
 H   -4.383527   -1.524192    1.004397
 H   -3.575469    0.176943   -1.640978
 H   -4.024339    1.689172    0.134926
 H   -1.194287    0.733460   -1.653508
 H   -1.268372    2.878029   -0.945206
