41 
4jgv_ligand_dft.xyz
 C   -3.701281   -1.466609    0.000629
 C   -4.684870   -0.489080   -0.179863
 C   -4.316848    0.860143   -0.146034
 C   -3.003476    1.242241    0.062018
 C   -2.021489    0.265653    0.239801
 C   -2.378540   -1.085597    0.207897
 O   -5.356809    1.729387   -0.333885
 O   -5.966955   -0.858889   -0.382559
 O   -4.113335   -2.759522   -0.039531
 C   -0.618500    0.728771    0.465406
 C    0.474754   -0.316244    0.643716
 C    1.878785    0.275883    0.742412
 C    2.408754    0.785010   -0.599662
 C    3.758697    1.503513   -0.497250
 C    4.896973    0.690080    0.131536
 C    5.199629   -0.623007   -0.593079
 C    6.355377   -1.424325    0.016442
 C    7.714947   -0.730197   -0.072918
 O   -0.365621    1.919154    0.521479
 H   -2.712367    2.288248    0.091927
 H   -1.629791   -1.860402    0.348373
 H   -5.032892    2.636332   -0.293508
 H   -6.487562   -0.048485   -0.482357
 H   -3.350836   -3.334178    0.095422
 H    0.421524   -1.032187   -0.187821
 H    0.232411   -0.889364    1.549677
 H    2.550401   -0.495573    1.138172
 H    1.870594    1.098003    1.467053
 H    1.679518    1.481254   -1.027428
 H    2.483848   -0.058134   -1.300471
 H    3.621267    2.423751    0.085528
 H    4.063644    1.819781   -1.503884
 H    4.666584    0.474183    1.184128
 H    5.795558    1.318998    0.143953
 H    5.421499   -0.410631   -1.649305
 H    4.301488   -1.254313   -0.590585
 H    6.417238   -2.394519   -0.492315
 H    6.125578   -1.643662    1.068150
 H    7.953320   -0.470905   -1.111351
 H    7.740269    0.193176    0.514879
 H    8.512978   -1.379828    0.301435
