48 
4jh0_ligand_xtb.xyz
 C   -1.023780    0.927875   -0.277127
 C   -1.594978    2.160230   -0.620535
 C   -0.815880    3.327176   -0.536098
 N    0.457120    3.317432   -0.162697
 C    0.303656    0.947075    0.120987
 C    0.999141    2.159184    0.145098
 C    2.403433    1.895509    0.552669
 N    2.388353    0.478084    0.842596
 C    1.212065   -0.138218    0.555189
 C    3.591901   -0.260962    1.100604
 C    4.475554   -0.304804   -0.157642
 C   -1.359683    4.680056   -0.877421
 C   -1.734194   -0.366548   -0.345710
 C   -3.027960    2.215361   -1.068808
 N   -3.902782    2.552026    0.097996
 C   -1.405976   -1.278996   -1.345661
 C   -2.000249   -2.523281   -1.402597
 C   -2.934378   -2.886690   -0.440769
 C   -3.268993   -2.004519    0.578861
 C   -2.665203   -0.762588    0.607333
Cl   -3.050138    0.301715    1.947311
Cl   -3.679887   -4.432563   -0.492715
 N    5.536032   -1.124020   -0.097198
 C    6.399276   -1.252665   -1.252650
 O    4.209272    0.383363   -1.128401
 O    0.968230   -1.321125    0.676052
 C    5.838017   -1.963227    1.039509
 H    2.712403    2.483499    1.422262
 H    3.095971    2.102834   -0.273909
 H    3.286792   -1.272090    1.382148
 H    4.143907    0.200452    1.925872
 H   -1.764215    4.701842   -1.887404
 H   -2.134339    4.998509   -0.180436
 H   -0.543263    5.393552   -0.819715
 H   -3.336388    1.240944   -1.450886
 H   -3.167443    2.967827   -1.845839
 H   -4.895073    2.553346   -0.154190
 H   -3.722157    1.818733    0.850352
 H   -3.643870    3.472752    0.467879
 H   -0.663855   -1.001526   -2.077516
 H   -1.729759   -3.219581   -2.179309
 H   -3.977688   -2.295522    1.337896
 H    6.388878   -2.279804   -1.620331
 H    6.028853   -0.587947   -2.030096
 H    7.421115   -0.971992   -0.993434
 H    5.880062   -1.382642    1.961901
 H    5.097846   -2.758943    1.157499
 H    6.810958   -2.422198    0.881659
