21 
4jht_ligand_xtb.xyz
 O   -3.590231   -0.569592   -0.005256
 O   -2.755022    1.451971    0.002512
 O    2.618115   -2.086896   -0.001286
 C    1.197443    2.572693    0.000977
 C    2.396741    1.846820   -0.001069
 C    0.254385   -2.324195    0.002996
 C   -0.998402   -1.714363    0.003392
 C    0.002996    1.899573    0.001079
 N    2.431832    0.542469   -0.002129
 C   -2.535638    0.267790   -0.000233
 C    1.393435   -1.552843    0.000016
 C   -1.175953   -0.340902    0.001041
 C   -0.008637    0.486068    0.000085
 C    1.265878   -0.134636   -0.000991
 H   -3.349798   -1.503801   -0.008428
 H    3.246413   -1.339327   -0.003167
 H    1.222286    3.651119    0.002769
 H    3.355963    2.348116   -0.001782
 H    0.339712   -3.398724    0.005055
 H   -1.843334   -2.391205    0.006468
 H   -0.930449    2.436650    0.002479
