58 
4jia_ligand_xtb.xyz
 C   -2.976276    5.899665   -0.492048
 O   -2.312393    4.838907    0.156024
 C   -2.856608    3.596314    0.096979
 C   -4.015111    3.260570   -0.597448
 C   -4.469086    1.955332   -0.594609
 C   -2.173294    2.596327    0.793572
 C   -2.629273    1.298642    0.790233
 C   -3.787381    0.952980    0.090803
 C   -4.290158   -0.421789    0.077539
 C   -5.631105   -0.741054    0.087734
 N   -3.416823   -1.456401    0.054175
 N   -2.080437   -1.390067    0.021179
 C   -1.708820   -2.667102   -0.015376
 N   -2.720491   -3.550131   -0.010667
 C   -3.806445   -2.786308    0.029604
 C   -5.165352   -3.104485    0.042652
 C   -6.066320   -2.072177    0.072333
 N   -0.426020   -3.121669   -0.045015
 C    0.742798   -2.400997   -0.037050
 C    0.763163   -1.005834   -0.056984
 C    1.963326   -0.323728   -0.048462
 C    3.170248   -1.010068   -0.007705
 C    3.153990   -2.401661    0.012456
 C    1.960475   -3.088708   -0.008287
 N    4.434136   -0.353825    0.041266
 C    4.481695    1.002484    0.523056
 C    5.909119    1.288027    0.993222
 N    6.853670    1.111565   -0.139304
 C    8.236008    1.448960    0.232420
 C    6.737552   -0.268212   -0.676922
 C    5.293552   -0.525360   -1.105949
 H   -3.035280    5.735986   -1.572580
 H   -3.982685    6.048012   -0.089729
 H   -2.376486    6.786594   -0.294879
 H   -4.569335    4.004542   -1.147025
 H   -5.357729    1.710484   -1.156424
 H   -1.283592    2.870638    1.338379
 H   -2.093691    0.543963    1.342996
 H   -6.354710    0.055942    0.130948
 H   -5.459243   -4.139648    0.028439
 H   -7.124962   -2.278504    0.086526
 H   -0.362091   -4.129780   -0.045095
 H   -0.170729   -0.471038   -0.089385
 H    1.941736    0.755232   -0.075555
 H    4.084491   -2.948149    0.054251
 H    1.963161   -4.168446    0.007756
 H    3.802548    1.102448    1.370133
 H    4.196002    1.747443   -0.243049
 H    6.183425    0.580828    1.777511
 H    5.993870    2.305675    1.377120
 H    6.547757    1.749232   -0.885530
 H    8.292600    2.476356    0.587526
 H    8.573778    0.784428    1.025698
 H    8.896899    1.336221   -0.625145
 H    7.014937   -0.964944    0.115678
 H    7.420811   -0.385859   -1.519284
 H    5.028045    0.159857   -1.933448
 H    5.201177   -1.545985   -1.476050
