61 
4jib_ligand_dft.xyz
 N    4.081124    0.664438    0.075939
 C    3.702149    3.370532   -0.108034
 C    2.234675    2.694034   -2.002836
 C    1.267766    2.569133    1.787680
 C   -3.952811   -1.178687   -1.200311
 C   -6.580701    0.400907   -1.256764
 C   -7.805286    0.605643   -0.695199
 C    1.253897    2.926358    0.303157
 C   -2.605913   -1.496753   -1.322449
 C   -2.053620    0.156103    0.331535
 C    2.601019   -2.648679    0.059296
 O    3.491049   -3.480232   -0.080508
 C    2.841541   -1.191054    0.011218
 N    4.089106   -0.655883    0.214572
 C    5.315479   -1.296263    0.690895
 C    6.552692   -0.687905    0.035362
 O    6.849808    0.608317    0.487996
 N    1.311473   -3.045088    0.259785
 C    0.158638   -2.215375    0.522871
 C   -0.185987   -1.255207   -0.633558
 N    0.642905   -0.071034   -0.553912
 C    2.009710   -0.113258   -0.295638
 C    2.844453    1.031701   -0.241234
 C    2.506714    2.487595   -0.499721
 C   -1.643408   -0.842538   -0.553686
 C   -3.396070    0.495319    0.445388
 C   -4.351009   -0.179912   -0.312896
 N   -5.725640    0.147637   -0.198194
 C   -6.488256    0.200166    0.947160
 C   -5.951116   -0.054586    2.317298
 N   -7.741355    0.473128    0.670987
 H    3.457694    4.422851   -0.289957
 H    3.965907    3.253247    0.946553
 H    4.588014    3.119404   -0.698480
 H    1.984310    3.742130   -2.203440
 H    3.117464    2.431819   -2.594709
 H    1.398837    2.083397   -2.365454
 H    1.272261    1.483471    1.930163
 H    2.146057    2.977767    2.297275
 H    0.379424    2.972786    2.284853
 H   -4.701387   -1.705950   -1.783255
 H   -6.220199    0.438045   -2.273373
 H   -8.734625    0.842650   -1.193823
 H    1.156852    4.013240    0.184447
 H    0.352608    2.497259   -0.149591
 H   -2.301992   -2.272289   -2.021186
 H   -1.307283    0.684082    0.917948
 H    5.380905   -1.167769    1.777250
 H    5.229923   -2.355768    0.455940
 H    6.427686   -0.726168   -1.058657
 H    7.410498   -1.317027    0.292719
 H    6.040010    1.122961    0.337928
 H    1.197047   -4.047750    0.232084
 H    0.287221   -1.628881    1.441796
 H   -0.686522   -2.888057    0.679906
 H   -0.025053   -1.816337   -1.568720
 H    0.388326    0.624581   -1.240796
 H   -3.706102    1.292360    1.112799
 H   -5.471469    0.834347    2.742213
 H   -5.216735   -0.865826    2.321981
 H   -6.787162   -0.325285    2.964258
