33 
4jin_ligand_dft.xyz
 C    0.928324    0.334359    0.507587
 N    0.929719    2.807946   -0.257976
 C    1.966524   -0.521307    0.459678
 C    3.836485    0.793680   -0.663182
 C   -5.556356    0.531572   -0.968604
 C   -5.353653   -0.634137   -1.699152
 C   -4.305601   -1.489646   -1.362097
 C   -3.465134   -1.180088   -0.299584
 C   -3.661865   -0.008386    0.437331
 C   -4.711213    0.841993    0.094858
 C   -2.725696    0.332202    1.576746
 N   -1.393650    0.705260    1.121447
 C   -0.379042   -0.188544    1.072166
 C    0.973335    1.696494    0.075037
 C    3.341904   -0.341478   -0.009197
 C    5.171947    0.814711   -1.048200
 N    6.031391   -0.184762   -0.835511
 C    5.556927   -1.266373   -0.215404
 C    4.239773   -1.393846    0.207855
 O   -0.467753   -1.343613    1.462777
 H    1.725623   -1.508218    0.851844
 H    3.209891    1.649317   -0.881257
 H   -6.371530    1.201739   -1.224937
 H   -6.010836   -0.878665   -2.528352
 H   -4.146715   -2.403414   -1.927134
 H   -2.649060   -1.845313   -0.029817
 H   -4.873107    1.754619    0.664235
 H   -2.597294   -0.525328    2.240798
 H   -3.126881    1.161423    2.167724
 H   -1.282677    1.605420    0.676261
 H    5.572866    1.687293   -1.558207
 H    6.265858   -2.074124   -0.049683
 H    3.913707   -2.302201    0.705567
