38 
4jit_ligand_dft.xyz
 N   -2.308271   -2.533430    0.078854
 C   -1.110974   -1.869739    0.175848
 N   -0.009341   -2.626670    0.387491
 N   -1.015215   -0.559391    0.116043
 C   -2.218127    0.051329   -0.044695
 C   -3.477682   -0.520762   -0.152144
 C   -3.599000   -1.953179   -0.086135
 O   -4.574952   -2.671769   -0.142728
 N   -4.453099    0.437984   -0.309620
 C   -3.797113    1.559473   -0.299036
 N   -2.430272    1.406304   -0.145484
 O    2.166478    1.245204   -1.599415
 O    2.745871   -1.982647    0.074284
 O    4.230398   -0.385366   -1.409900
 O    4.963228   -0.976933    0.907301
 C   -0.949746    2.763162    1.354433
 C    0.322687    1.919535    1.443794
 C    2.885512    0.730740    0.636222
 C   -0.220224    2.301139   -0.905603
 C    1.914049    1.301932   -0.387468
 C   -1.488065    2.512744   -0.066050
 N    0.799987    1.893758    0.059766
 P    3.643808   -0.800391    0.003097
 H   -2.331724   -3.541188    0.166446
 H   -0.043543   -3.607744    0.158865
 H    0.909711   -2.197521    0.267997
 H   -4.234141    2.544519   -0.405238
 H    3.570122    0.230422   -1.826402
 H    4.995270   -1.873812    1.267137
 H   -1.682485    2.503670    2.120715
 H   -0.704553    3.825380    1.456284
 H    1.065586    2.370495    2.107512
 H    0.096375    0.901077    1.775128
 H    3.683860    1.461883    0.807248
 H    2.415142    0.507763    1.595195
 H   -0.342439    1.531290   -1.670024
 H    0.081770    3.229520   -1.401108
 H   -2.038679    3.384077   -0.426889
