40 
4jlh_ligand_xtb.xyz
Cl    0.864500    5.479406    0.007891
 C    0.725235    3.756546   -0.030510
 C    0.706462    3.044335    1.158874
 C    0.597067    1.666349    1.124015
 C    0.634852    3.103908   -1.250268
 C    0.524792    1.725552   -1.276257
 C    0.508347    0.996817   -0.091715
 C    0.380356   -0.478688   -0.122929
 C    1.478120   -1.306154   -0.177030
 C    2.871338   -0.713441   -0.197443
 O    3.560193   -1.144352   -1.342944
 C    4.724122   -0.404836   -1.636002
 C    3.588903   -1.052048    1.109725
 O    4.671300   -1.554711    1.220757
 O    2.849419   -0.677917    2.162059
 C   -0.916187   -1.057320   -0.094305
 C   -2.097178   -0.293509   -0.040206
 C   -3.305995   -0.932551   -0.016196
Br   -4.907288    0.097735    0.057559
 C   -3.408444   -2.331443   -0.043656
 C   -2.271987   -3.087773   -0.096304
 C   -1.002236   -2.473318   -0.123659
 N    0.091544   -3.253378   -0.176892
 C    1.281337   -2.716588   -0.202960
 C    2.432695   -3.663188   -0.260220
 H    0.775510    3.564634    2.101022
 H    0.587064    1.099736    2.042676
 H    0.648865    3.669682   -2.168382
 H    0.454231    1.207280   -2.221053
 H    2.780383    0.388507   -0.205543
 H    5.487879   -0.532057   -0.865185
 H    5.093479   -0.796325   -2.581411
 H    4.491829    0.661930   -1.746077
 H    3.316206   -0.878838    2.990118
 H   -2.037757    0.784388   -0.018590
 H   -4.383839   -2.793030   -0.023385
 H   -2.314967   -4.164769   -0.119388
 H    3.018893   -3.609423    0.655527
 H    2.054730   -4.674066   -0.380051
 H    3.088353   -3.404659   -1.087456
