54 
4jln_ligand_dft.xyz
 F  -36.897312    8.937852    0.544587
 C  -36.054452    8.230884   -0.286834
 C  -35.310494    9.167557   -1.206756
 O  -36.233764    9.691088   -2.134515
 C  -35.777764   10.585920   -3.044248
 C  -34.467446   11.014437   -3.145123
 C  -36.753166   11.086835   -3.940456
 O  -38.004091   10.605344   -3.766811
 C  -39.015322   11.080786   -4.624593
 C  -36.375028   12.007808   -4.908033
 C  -35.049553   12.436477   -5.000960
 C  -34.089307   11.946098   -4.127716
 C  -32.680741   12.360144   -4.182141
 N  -31.781654   11.970775   -3.326897
 S  -32.052416   13.425483   -5.416626
 C  -30.474148   13.315925   -4.701429
 C  -29.300561   14.056686   -5.271101
 C  -29.247057   15.542711   -4.875186
 C  -29.092395   15.755366   -3.371147
 C  -30.543492   12.502648   -3.604168
 C  -29.409604   12.147262   -2.690430
 S  -28.545945   10.595365   -3.143948
 C  -26.975363   11.178117   -3.727215
 N  -26.702448   12.477461   -3.710316
 N  -26.186485   10.188871   -4.132394
 C  -24.978503   10.555682   -4.589557
 N  -24.182501    9.542813   -5.037644
 C  -24.571262   11.893170   -4.638793
 C  -25.493928   12.832029   -4.184171
 N  -25.249031   14.177859   -4.229197
 H  -36.650903    7.523054   -0.871809
 H  -35.335360    7.678414    0.329553
 H  -34.513281    8.612176   -1.722816
 H  -34.848211    9.972253   -0.619516
 H  -33.698296   10.647762   -2.476637
 H  -39.146928   12.166421   -4.528530
 H  -38.803403   10.833696   -5.673137
 H  -39.931689   10.578015   -4.313911
 H  -37.106355   12.405497   -5.601711
 H  -34.787277   13.161513   -5.766113
 H  -29.311588   13.973836   -6.364129
 H  -28.384613   13.564447   -4.928183
 H  -30.152388   16.052477   -5.228450
 H  -28.401731   16.002429   -5.401942
 H  -29.940028   15.329320   -2.823846
 H  -28.183130   15.266817   -2.999750
 H  -29.032119   16.820170   -3.124066
 H  -29.803388   11.996390   -1.683344
 H  -28.645827   12.925157   -2.659684
 H  -24.479611    8.610609   -4.792138
 H  -23.191366    9.697048   -5.124915
 H  -23.604438   12.184274   -5.034423
 H  -25.863500   14.749871   -3.669398
 H  -24.292340   14.488504   -4.289389
