54 
4jln_ligand_xtb.xyz
 F    6.393574    3.490410    1.990637
 C    5.832511    3.620340    0.746639
 C    4.761026    2.560277    0.521964
 O    5.400515    1.389355    0.068946
 C    4.637589    0.288711   -0.178576
 C    3.270025    0.221340   -0.024227
 C    5.348836   -0.848123   -0.634340
 O    6.691076   -0.685691   -0.760941
 C    7.461553   -1.778980   -1.194004
 C    4.651680   -2.012641   -0.915539
 C    3.276993   -2.070956   -0.758976
 C    2.574259   -0.960390   -0.314396
 C    1.143409   -0.976328   -0.142896
 N    0.445890    0.002713    0.322703
 S    0.167733   -2.380932   -0.568647
 C   -1.243746   -1.510132   -0.062359
 C   -2.590300   -2.138354   -0.105878
 C   -2.756461   -3.209214    0.980876
 C   -2.624175   -2.624117    2.381119
 C   -0.880748   -0.266378    0.383441
 C   -1.790797    0.784604    0.905268
 S   -2.556330    1.787880   -0.439653
 C   -4.240752    1.323169   -0.333344
 N   -4.589889    0.369585    0.513483
 N   -5.034375    2.004056   -1.135707
 C   -6.335673    1.700156   -1.093400
 N   -7.134225    2.376011   -1.956077
 C   -6.826046    0.711662   -0.238434
 C   -5.891457    0.052303    0.553788
 N   -6.230851   -0.981064    1.369219
 H    6.638635    3.503706    0.017163
 H    5.404557    4.626304    0.701273
 H    4.045816    2.921901   -0.229509
 H    4.229884    2.377429    1.465380
 H    2.692098    1.063403    0.316802
 H    7.382544   -2.626443   -0.505095
 H    7.174690   -2.101278   -2.200614
 H    8.490764   -1.423895   -1.209860
 H    5.173663   -2.890057   -1.262161
 H    2.751882   -2.987141   -0.984110
 H   -2.740593   -2.601504   -1.084383
 H   -3.348093   -1.364480    0.028956
 H   -2.001466   -3.986204    0.839251
 H   -3.739934   -3.669851    0.865723
 H   -1.626535   -2.218008    2.533265
 H   -3.340936   -1.818540    2.527065
 H   -2.802330   -3.388318    3.134471
 H   -1.218515    1.486503    1.508361
 H   -2.629695    0.372246    1.460140
 H   -6.720204    3.161215   -2.427569
 H   -8.129316    2.364649   -1.823643
 H   -7.873289    0.461315   -0.201851
 H   -5.536301   -1.302593    2.020919
 H   -7.196888   -1.115314    1.607338
