39 
4jls_ligand_xtb.xyz
 C   -2.072038    0.210163   -0.227575
 C   -3.266813    0.931417   -0.162046
 C   -3.230335    2.346421    0.068769
 C   -3.807495   -1.079763   -0.540152
 N   -1.886434    2.773008    0.174489
 N    0.415940    2.594230    0.305721
 N   -0.819700    0.694216   -0.075321
 O    4.760527    0.756907    1.323452
 P    3.746416    0.573086    0.103408
 O    4.711500    0.006598   -1.023610
 O    3.040370    1.815538   -0.251801
 C    2.685271   -0.774841    0.746466
 C    1.811025   -1.108441   -0.432502
 O    2.183702   -0.809485   -1.560110
 N    0.662863   -1.750503   -0.207429
 C   -0.272957   -1.974181   -1.298386
 C    0.088112   -2.038425    1.085634
 C   -1.190631   -2.832194    0.760280
 O   -2.175909   -2.771770    1.737653
 C   -1.610681   -2.260249   -0.625324
 N   -2.430775   -1.086795   -0.476415
 C   -0.765830    1.989890    0.108430
 O   -4.118416    3.158550    0.175063
 N   -4.326947    0.088180   -0.358016
 H   -4.367331   -1.975010   -0.723763
 H   -1.776710    3.768403    0.328300
 H    1.286116    2.122514    0.063516
 H    0.449136    3.598987    0.282028
 H    5.215416    1.596626    1.256647
 H    4.181267   -0.178960   -1.805919
 H    2.121572   -0.406701    1.600051
 H    3.291795   -1.625892    1.050367
 H   -0.301312   -1.087695   -1.935220
 H    0.056087   -2.827939   -1.898953
 H   -0.179540   -1.108976    1.604169
 H    0.774742   -2.613650    1.709549
 H   -0.954923   -3.894970    0.647631
 H   -2.513872   -1.868423    1.805394
 H   -2.203271   -2.990414   -1.182874
