76 
4jmu_ligand_xtb.xyz
 C   -2.807389   -1.236153    0.680692
 C   -1.616974   -1.616444    0.068984
 C   -1.588543   -1.935978   -1.284141
 C   -2.772288   -1.893164   -2.019424
 C   -3.952566   -1.520826   -1.411919
 C   -3.994296   -1.178846   -0.061806
 O   -0.471423   -2.364386   -1.930103
 C    0.776448   -1.945006   -1.518053
 C    1.816552   -2.864277   -1.588039
 C    3.100253   -2.476273   -1.265427
 C    3.369607   -1.167425   -0.864398
 C    2.322730   -0.250486   -0.799799
 C    1.038552   -0.636970   -1.128275
 C   -2.783710   -0.835005    2.121739
 O   -2.046665   -1.629255    2.923251
 O   -3.347565    0.125597    2.559610
 N   -5.229751   -0.851074    0.538954
 C   -6.060037   -1.952790    1.030279
 C   -6.620710   -2.789989   -0.118213
 C   -5.303002   -2.827505    2.024698
 C   -5.716590    0.422463    0.625481
 C   -4.826816    1.525257    0.084271
 O   -6.822075    0.644729    1.073225
 C   -5.369556    1.967690   -1.279256
 C   -4.567583    3.146209   -1.821352
 C   -4.599006    4.325550   -0.849176
 C   -4.047507    3.878955    0.504768
 C   -4.840454    2.702695    1.060840
 C   -3.808192    5.508888   -1.400137
 N    4.688681   -0.834125   -0.563621
 C    5.193856    0.359177   -0.116709
 O    4.512994    1.327572    0.151295
 C    6.673452    0.364809    0.038756
 C    7.218990    1.225007    0.986310
 C    8.583182    1.305140    1.184874
 C    9.441126    0.526035    0.412502
 C    8.900021   -0.320416   -0.559974
 C    7.538206   -0.401998   -0.743037
 O   10.792433    0.518435    0.513975
 C   11.407240    1.370997    1.451815
 H   -0.694926   -1.635424    0.635710
 H   -2.741405   -2.151817   -3.065924
 H   -4.861730   -1.474916   -1.990463
 H    1.605665   -3.873462   -1.904909
 H    3.904860   -3.195674   -1.324943
 H    2.522526    0.763682   -0.498545
 H    0.236618    0.085756   -1.093945
 H   -1.665106   -2.380647    2.450341
 H   -6.888669   -1.453901    1.544346
 H   -7.140482   -2.152861   -0.829470
 H   -5.827234   -3.329307   -0.632593
 H   -7.329822   -3.514118    0.274144
 H   -4.493647   -3.366373    1.532909
 H   -4.896171   -2.223116    2.831090
 H   -5.985196   -3.555702    2.455451
 H   -3.801427    1.167005   -0.033827
 H   -6.416205    2.255233   -1.160809
 H   -5.325039    1.133812   -1.985347
 H   -4.974988    3.451297   -2.788264
 H   -3.530539    2.837481   -1.978595
 H   -5.641757    4.633762   -0.714095
 H   -4.086192    4.710386    1.211426
 H   -2.999699    3.589823    0.388865
 H   -4.415321    2.375228    2.010388
 H   -5.876820    2.995969    1.235786
 H   -2.764746    5.235213   -1.543638
 H   -4.213059    5.830099   -2.357595
 H   -3.849121    6.349224   -0.710810
 H    5.348682   -1.591048   -0.673093
 H    6.547420    1.833711    1.572601
 H    8.966441    1.977837    1.935382
 H    9.578890   -0.900311   -1.165050
 H    7.159153   -1.039741   -1.529315
 H   11.193360    2.422568    1.237316
 H   11.094779    1.135709    2.473908
 H   12.476803    1.193546    1.352953
