47 
4jn4_ligand_dft.xyz
 P    3.630888   -0.844042    0.658761
 O    3.388370   -0.129965    2.021518
 O    4.614989   -2.029425    1.060371
 O    4.033437   -0.045485   -0.516691
 P    1.093332   -1.523501   -0.708345
 O    0.666381   -0.191605   -1.147323
 O    1.570008   -2.562643   -1.809837
 O    2.224479   -1.665113    0.400017
 P   -1.413208   -2.834450   -0.663087
 O   -1.846657   -4.099515    0.210476
 O   -1.144850   -3.043038   -2.097508
 O   -0.087865   -2.323307    0.117603
 O   -2.556714   -1.802246   -0.341548
 C   -3.264320   -1.734378    0.912047
 C   -3.601426   -0.293118    1.229208
 O   -2.432091    0.364498    1.735891
 C   -4.098565    0.542104    0.043501
 O   -5.095831    1.417762    0.508989
 C   -2.855275    1.345345   -0.356759
 O   -3.261669    2.524079   -0.983025
 C   -2.204053    1.548442    1.024007
 N   -0.762410    1.742522    0.958295
 C    0.190979    1.086681    1.673014
 N    1.409697    1.448922    1.352445
 C    1.254676    2.388414    0.350785
 C    2.146068    3.062450   -0.510748
 N    3.480286    2.858754   -0.507854
 N    1.634668    3.960674   -1.370878
 C    0.313699    4.102443   -1.451472
 N   -0.629122    3.440241   -0.780250
 C   -0.095998    2.593238    0.110119
 H    2.671551    0.592114    1.887753
 H    5.188265   -2.257004    0.315665
 H    0.819531   -2.760116   -2.408162
 H   -1.254897   -4.854992    0.088922
 H   -2.659315   -2.156936    1.717925
 H   -4.179185   -2.322071    0.801295
 H   -4.368879   -0.291656    2.010960
 H   -4.463536   -0.083310   -0.780992
 H   -5.012299    2.215704   -0.038347
 H   -2.181805    0.739388   -0.976886
 H   -2.455326    3.071392   -1.107306
 H   -2.656306    2.413010    1.526455
 H   -0.065609    0.345688    2.414146
 H    3.810046    1.920545   -0.287481
 H    3.960625    3.303400   -1.278380
 H   -0.040490    4.835257   -2.171445
