47 
4jn4_ligand_xtb.xyz
 P    3.218067   -1.259528    0.649104
 O    3.563542   -0.567607    1.996511
 O    3.905535   -2.668794    0.804422
 O    3.527987   -0.561423   -0.597106
 P    0.667573   -1.520609   -0.430002
 O    0.218427   -0.221382   -0.890577
 O    1.361315   -2.454808   -1.488893
 O    1.632980   -1.611260    0.805823
 P   -1.773536   -2.598978   -0.817722
 O   -2.460292   -3.901069   -0.223366
 O   -1.339415   -2.674029   -2.205373
 O   -0.527283   -2.412909    0.195573
 O   -2.790095   -1.457281   -0.482733
 C   -3.339528   -1.352482    0.833929
 C   -3.429400    0.114414    1.258368
 O   -2.171876    0.557310    1.761982
 C   -3.826109    1.056280    0.109323
 O   -4.768785    1.988097    0.561641
 C   -2.497726    1.742798   -0.248164
 O   -2.739517    3.011999   -0.764690
 C   -1.792465    1.750685    1.128211
 N   -0.360934    1.800541    1.012398
 C    0.544981    1.084677    1.725055
 N    1.775746    1.252357    1.330450
 C    1.696806    2.119745    0.267683
 C    2.623760    2.630709   -0.662532
 N    3.927788    2.294675   -0.678444
 N    2.184234    3.528931   -1.551839
 C    0.906203    3.842181   -1.587356
 N   -0.074050    3.353094   -0.845518
 C    0.356027    2.481697    0.070176
 H    3.037813    0.274880    2.006043
 H    4.115426   -3.035852   -0.054822
 H    0.855713   -2.445052   -2.310435
 H   -2.097573   -4.701288   -0.601890
 H   -2.710451   -1.888605    1.546438
 H   -4.338110   -1.795387    0.812769
 H   -4.170542    0.201009    2.064517
 H   -4.224715    0.491730   -0.742063
 H   -4.589703    2.811507    0.080815
 H   -1.913624    1.108909   -0.928001
 H   -1.858441    3.396902   -0.982473
 H   -2.140425    2.624863    1.712795
 H    0.246720    0.454606    2.538793
 H    4.137476    1.356906   -0.361009
 H    4.428123    2.612484   -1.495131
 H    0.615769    4.572949   -2.330259
