52 
4jnc_ligand_xtb.xyz
 N    2.312657   -1.601460    0.100655
 C   -2.516469   -1.966758    0.842482
 C    3.893132   -0.144371   -1.050919
 C    3.602389    1.700644   -2.581560
 C    4.965448    1.987612   -0.634393
 C   -6.827347   -1.691410   -1.312403
 N   -6.737498   -0.295403   -0.986955
 C   -5.698194    0.272201   -0.355357
 N   -5.777647    1.599921   -0.173620
 C   -4.748592    2.140318    0.455612
 C   -4.768997    3.619044    0.669247
 N   -3.693705    1.477387    0.899886
 C   -3.704892    0.154950    0.673326
 N   -4.688458   -0.495336    0.045688
 N   -2.671660   -0.565426    1.142160
 C   -1.512410    0.065600    1.718547
 C   -0.308266   -0.085291    0.786373
 C   -0.063666   -1.571391    0.487500
 C   -1.334138   -2.184966   -0.101664
 C    1.097888   -1.688002   -0.491448
 O    0.962198   -1.836135   -1.686865
 C    3.537120   -1.563430   -0.675796
 C    3.344903    0.393901   -2.209664
 C    4.419400    2.497643   -1.797409
 C    4.698585    0.676255   -0.257674
 C    5.293908    0.154618    1.019995
 F    6.161665   -0.857347    0.823130
 F    4.356416   -0.329602    1.867131
 F    5.961755    1.084026    1.712593
 H    2.378764   -1.385140    1.082312
 H   -3.443910   -2.316658    0.390813
 H   -2.344941   -2.506671    1.782329
 H    3.166836    2.096922   -3.486050
 H    5.597036    2.604639   -0.014209
 H   -5.978051   -2.190934   -0.852887
 H   -7.755139   -2.116189   -0.923101
 H   -6.794115   -1.846084   -2.394359
 H   -7.461075    0.334385   -1.293594
 H   -4.203502    4.100741   -0.127009
 H   -5.792547    3.979270    0.639958
 H   -4.299640    3.861820    1.618159
 H   -1.295741   -0.412781    2.681882
 H   -1.750834    1.116951    1.879529
 H    0.572081    0.367606    1.247023
 H   -0.512795    0.437827   -0.149711
 H    0.197299   -2.086974    1.418752
 H   -1.537361   -1.714378   -1.064331
 H   -1.188673   -3.252227   -0.273135
 H    3.343011   -2.132057   -1.589015
 H    4.331215   -2.052671   -0.110683
 H    2.700892   -0.228534   -2.811694
 H    4.630448    3.515748   -2.085204
