45 
4joa_ligand_dft.xyz
 F   10.379148   19.741112   45.334950
 C   10.009983   19.261014   44.138545
 C   10.064254   17.894190   43.917301
 C    9.587064   20.148812   43.159869
 C    9.200117   19.646968   41.922069
 C    9.252303   18.279597   41.706150
 F    8.861691   17.797109   40.507986
 C    9.687295   17.383278   42.676592
 C    9.693531   15.896662   42.409460
 N    8.459423   15.265179   42.835349
 C    7.283448   15.223918   42.165634
 N    8.360323   14.782087   44.084352
 C    7.093041   14.406946   44.197395
 C    6.352607   14.660629   43.017762
 C    4.941564   14.388702   42.764111
 C    4.068405   15.156638   42.038590
 N    2.822695   14.570652   42.012939
 C    2.864243   13.408399   42.739643
 N    1.840988   12.582609   42.935694
 C    2.131895   11.512922   43.667319
 C    4.181926   13.254772   43.226117
 C    4.451029   12.101990   43.963267
 C    3.406911   11.209699   44.195273
 C    3.613553    9.979776   44.970509
 C    2.978268    8.759190   44.828512
 N    3.485982    7.932570   45.771209
 C    3.189761    6.532601   45.975272
 N    4.424864    8.527254   46.523555
 C    4.504530    9.762550   46.046814
 H   10.383587   17.228173   44.712022
 H    9.561219   21.211695   43.371106
 H    8.858449   20.301998   41.128692
 H   10.497657   15.410518   42.963910
 H    9.832831   15.695253   41.345455
 H    7.202098   15.580281   41.148893
 H    6.740700   13.973179   45.123729
 H    4.242733   16.101825   41.544006
 H    1.995280   14.936922   41.572390
 H    1.302555   10.837086   43.867916
 H    5.451993   11.889294   44.328962
 H    2.228441    8.423212   44.126341
 H    3.116220    6.339480   47.046607
 H    2.237657    6.296540   45.496221
 H    3.977474    5.904360   45.549344
 H    5.182266   10.471358   46.504169
