36 
4joo_ligand_xtb.xyz
 C    0.160536   -0.512426   -0.224122
 C    0.346703   -1.896491   -0.234577
 C   -0.766317   -2.737701   -0.160617
 C   -2.039024   -2.221364   -0.055752
 C   -2.207383   -0.845935   -0.023263
 C   -1.123757    0.004461   -0.113570
 C    1.329419    0.435383   -0.381392
 C    2.640487   -0.325910   -0.650423
 C    2.714516   -1.724934   -0.024823
 O    1.549472   -2.491342   -0.354471
 C    1.399379    1.378207    0.834421
 N    1.121473    2.626213    0.381035
 C    0.866032    2.648398   -1.006618
 N    1.096887    1.384928   -1.450159
 O    1.631417    1.085659    1.981829
 N    0.516769    3.604319   -1.745523
 C    1.075178    3.788327    1.230629
Br   -3.956493   -0.112874    0.137004
 C    3.883873   -2.494559   -0.642185
 C    2.862578   -1.678384    1.496022
 H   -0.601418   -3.802760   -0.188217
 H   -2.893714   -2.876560    0.006213
 H   -1.275295    1.073958   -0.109704
 H    3.486544    0.265608   -0.299307
 H    2.727901   -0.430843   -1.735123
 H    0.769501    1.105047   -2.358126
 H    0.416028    4.498705   -1.283775
 H    0.083809    4.245261    1.200276
 H    1.291813    3.459189    2.245846
 H    1.822121    4.519720    0.915591
 H    3.940287   -3.485693   -0.201392
 H    4.816807   -1.970057   -0.459262
 H    3.739335   -2.603865   -1.714012
 H    2.835251   -2.690898    1.891791
 H    3.809576   -1.219557    1.764716
 H    2.062345   -1.101866    1.950640
