24 
4jpx_ligand_xtb.xyz
 N   -0.931990    1.200659   -0.892172
 C   -1.323936   -0.168370   -0.468947
 C   -2.801015   -0.050629   -0.054498
 O   -3.377327   -1.198082    0.157282
 C   -0.478208   -0.583624    0.753724
 C    0.979159   -0.349484    0.453449
 C    1.547731    0.897062    0.722222
 C    1.747240   -1.329581   -0.161481
 C    2.870352    1.148397    0.386165
 C    3.067381   -1.075409   -0.491027
 C    3.627248    0.164762   -0.226402
 O   -3.283016    1.047179    0.066800
 H   -1.698570    1.811532   -0.506462
 H    0.003502    1.424104   -0.473539
 H   -0.897363    1.323598   -1.907493
 H   -1.199655   -0.889677   -1.277682
 H   -4.302625   -1.118187    0.451195
 H   -0.669314   -1.634325    0.967430
 H   -0.783115    0.003498    1.622411
 H    0.995834    1.643934    1.281947
 H    1.316451   -2.298390   -0.364717
 H    3.307380    2.107977    0.613836
 H    3.661850   -1.848548   -0.951204
 H    4.656582    0.358354   -0.482407
