24 
4jpy_ligand_xtb.xyz
 N   -0.931618    1.201103   -0.892341
 C   -1.323786   -0.167926   -0.469255
 C   -2.800982   -0.050643   -0.054840
 O   -3.283890    1.046993    0.064545
 C   -0.478587   -0.583304    0.753562
 C    0.978888   -0.349411    0.453598
 C    1.746387   -1.328960   -0.162914
 C    1.547998    0.896602    0.723412
 C    3.066565   -1.075123   -0.492486
 C    2.870696    1.147726    0.387716
 C    3.627144    0.164389   -0.226026
 O   -3.375633   -1.198422    0.159723
 H   -1.698401    1.812095   -0.507094
 H   -0.896674    1.323966   -1.907641
 H    0.003670    1.424239   -0.473236
 H   -1.199429   -0.889318   -1.277920
 H   -0.783340    0.003919    1.622267
 H   -0.670075   -1.633858    0.967351
 H    1.315163   -2.297217   -0.366995
 H    0.996152    1.643036    1.283561
 H    3.660313   -1.847855   -0.954274
 H    3.308284    2.106790    0.616639
 H    4.656669    0.357458   -0.481395
 H   -4.300767   -1.119651    0.454370
