48 
4jr5_ligand_dft.xyz
 C   -7.106127    1.101988    0.661415
 C   -7.843543   -0.932202    1.363349
 C   -5.044785    1.432462   -0.765213
 C    0.396779    0.130262   -1.164526
 C    2.264116   -0.913452   -0.054143
 C    0.299045   -0.358464    1.202392
 C    4.916519    0.834619   -0.909823
 C    6.127451    2.395009    0.654073
 C    4.829653    0.412772    1.511785
 C   -6.801337   -1.590346    0.712304
 C   -5.876475   -0.835063    0.005943
 C   -6.025841    0.553158   -0.026017
 N   -8.004620    0.390862    1.346140
 N   -3.712302    1.393152   -0.182339
 C   -2.661288    0.677904   -0.658155
 S   -2.703771   -0.175732   -2.096616
 N   -1.576334    0.735815    0.184283
 C   -0.299598    0.151037    0.046239
 C    1.673498   -0.412594   -1.211879
 C    1.581920   -0.884201    1.158510
 S    3.943308   -1.510256   -0.103560
 O    4.128803   -2.386465    1.040881
 O    4.214702   -1.949234   -1.461225
 N    4.896041   -0.164244    0.164785
 C    6.126522    1.748804   -0.732255
 C    6.037375    1.319605    1.737950
 H   -7.259111    2.181555    0.658784
 H   -8.584555   -1.496113    1.925876
 H   -5.387455    2.472697   -0.756463
 H   -4.945142    1.120043   -1.806909
 H   -0.062006    0.525333   -2.060443
 H   -0.251250   -0.360528    2.139806
 H    3.989342    1.434851   -0.893017
 H    4.969694    0.306412   -1.862748
 H    5.265685    3.071955    0.740429
 H    7.027077    3.003875    0.792496
 H    4.823999   -0.406590    2.231888
 H    3.898047    0.993855    1.634396
 H   -6.723374   -2.671622    0.757717
 H   -5.049924   -1.304804   -0.521306
 H   -3.618532    1.848552    0.715258
 H   -1.758592    1.079994    1.117482
 H    2.210937   -0.457819   -2.153036
 H    2.041158   -1.300055    2.048736
 H    6.111279    2.512138   -1.517807
 H    7.037437    1.153721   -0.866061
 H    5.957789    1.773587    2.731828
 H    6.944062    0.703485    1.726900
