48 
4jr5_ligand_xtb.xyz
 C   -5.639215   -0.612459   -0.608633
 C   -7.819945   -1.219209   -0.744463
 C   -4.841746    1.470317    0.569606
 C    0.145429   -0.480309   -0.624823
 C    2.304961   -1.203030    0.116773
 C    0.562047   -0.886683    1.715561
 C    4.420427    0.846999   -1.273973
 C    5.575033    2.679546   -0.029609
 C    4.815547    0.583756    1.097306
 C   -8.233061   -0.101202   -0.035175
 C   -7.268855    0.789038    0.406841
 C   -5.932683    0.538646    0.118904
 N   -6.552390   -1.469012   -1.023123
 N   -3.697810    0.760303    1.090770
 C   -2.506473    0.676505    0.449630
 S   -2.181443    1.584257   -0.887858
 N   -1.610546   -0.158243    1.056356
 C   -0.304021   -0.484467    0.694759
 C    1.452228   -0.834934   -0.905740
 C    1.865411   -1.237273    1.426897
 S    4.027943   -1.545399   -0.236299
 O    4.571660   -2.314995    0.844000
 O    4.143045   -2.043827   -1.573798
 N    4.759336   -0.052454   -0.196700
 C    5.474910    1.947411   -1.365489
 C    5.881962    1.676458    1.079572
 H   -4.617495   -0.854356   -0.873059
 H   -8.530983   -1.949316   -1.106903
 H   -5.221778    2.154113    1.336139
 H   -4.479567    2.062745   -0.279030
 H   -0.520807   -0.201602   -1.422860
 H    0.208221   -0.917893    2.736733
 H    3.427491    1.298040   -1.108917
 H    4.393328    0.250019   -2.185818
 H    4.627160    3.180226    0.183332
 H    6.355949    3.440344   -0.075068
 H    5.060141   -0.194611    1.820764
 H    3.837997    1.023822    1.359114
 H   -9.278858    0.066973    0.169668
 H   -7.548021    1.671402    0.966231
 H   -3.887355    0.113372    1.843591
 H   -1.861120   -0.468630    1.988057
 H    1.814757   -0.853048   -1.920900
 H    2.548868   -1.554121    2.198273
 H    5.207685    2.640026   -2.164619
 H    6.437249    1.493835   -1.604742
 H    5.910472    2.172527    2.050854
 H    6.853144    1.216174    0.895280
