74 
4jrv_ligand_dft.xyz
 C    5.150989    0.394980   -0.722811
 N    4.442049   -0.291005   -1.836996
 C    4.556835    0.490166   -3.099822
 C    4.917298   -1.697695   -2.039244
 C    4.480106   -2.694636   -0.964860
 C    3.105271   -3.350498   -1.173022
 C    1.933239   -2.441599   -0.840841
 O    1.872713   -1.294142   -1.289449
 N    0.997346   -2.991565   -0.034583
 C   -0.182411   -2.422931    0.518213
 C   -0.806270   -1.291917   -0.008230
 C   -0.719075   -3.068386    1.634063
 C   -1.874174   -2.577827    2.226998
 C   -2.489067   -1.438240    1.724939
 C   -1.962250   -0.790376    0.604273
 C   -2.616138    0.428601    0.086433
 C   -2.026547    1.737737   -0.064866
 C   -3.928647    0.586165   -0.265304
 C   -5.065690   -0.333455   -0.338157
 C   -4.876138   -1.695163   -0.602140
 C   -5.966150   -2.554782   -0.650585
 C   -7.254249   -2.065605   -0.447184
 C   -7.449755   -0.709339   -0.201147
 C   -6.363574    0.155271   -0.147170
 O   -4.196647    1.885134   -0.615614
 C   -3.048259    2.577729   -0.493433
 N   -2.967373    3.869912   -0.767165
 C   -1.741031    4.341772   -0.583320
 N   -0.657836    3.673396   -0.156327
 C   -0.785523    2.375471    0.118599
 N    0.323382    1.672089    0.540920
 C    1.600561    2.334686    0.776825
 C    2.213155    2.672840   -0.594873
 O    2.350477    1.504311   -1.383000
 C    2.540225    1.440837    1.565834
 C    3.616566    2.025919    2.239320
 C    4.544336    1.245040    2.920545
 C    4.403312   -0.141821    2.954477
 C    3.332045   -0.733788    2.292211
 C    2.417337    0.051067    1.591979
 H    6.213202    0.458285   -0.967715
 H    4.721822    1.387164   -0.609297
 H    5.002763   -0.152881    0.207219
 H    3.433223   -0.324747   -1.589875
 H    4.176246    1.492383   -2.916526
 H    5.604107    0.511843   -3.408360
 H    3.946234    0.009708   -3.864925
 H    4.551384   -2.017379   -3.018416
 H    6.008116   -1.642430   -2.093447
 H    4.539273   -2.248079    0.033822
 H    5.224256   -3.496648   -0.977564
 H    2.993981   -3.654076   -2.221474
 H    3.068995   -4.270018   -0.580710
 H    1.177453   -3.937914    0.268542
 H   -0.405699   -0.805007   -0.887168
 H   -0.231980   -3.949846    2.043744
 H   -2.287577   -3.080818    3.094714
 H   -3.384380   -1.045294    2.194689
 H   -3.877946   -2.079093   -0.785483
 H   -5.810276   -3.608656   -0.858868
 H   -8.104099   -2.739751   -0.487718
 H   -8.451848   -0.321007   -0.049799
 H   -6.516391    1.212297    0.043019
 H   -1.590198    5.396634   -0.793497
 H    0.108120    0.888130    1.140174
 H    1.450280    3.278667    1.315857
 H    3.211780    3.100869   -0.459967
 H    1.583309    3.411710   -1.098195
 H    1.526891    1.001202   -1.277536
 H    3.725319    3.108024    2.238039
 H    5.367786    1.720962    3.443826
 H    5.111334   -0.749853    3.509044
 H    3.193141   -1.811475    2.329198
 H    1.608109   -0.436476    1.062025
