74 
4jrv_ligand_xtb.xyz
 C    5.110471   -0.062585   -0.914457
 N    4.370687   -0.857378   -1.903144
 C    4.366124   -0.171168   -3.201640
 C    4.886711   -2.240381   -2.002801
 C    4.384053   -3.146317   -0.879651
 C    2.928902   -3.615036   -1.036712
 C    1.889507   -2.583397   -0.627584
 O    1.942616   -1.417778   -1.029687
 N    0.935016   -3.041255    0.185743
 C   -0.187278   -2.365818    0.722427
 C   -0.762737   -1.259322    0.114191
 C   -0.738629   -2.892307    1.886639
 C   -1.859425   -2.304666    2.443884
 C   -2.445642   -1.210100    1.837596
 C   -1.908938   -0.685622    0.662849
 C   -2.558705    0.449242    0.008161
 C   -1.963187    1.699615   -0.349209
 C   -3.884530    0.558313   -0.350525
 C   -4.987688   -0.383766   -0.264337
 C   -4.776488   -1.763000   -0.278066
 C   -5.848634   -2.629251   -0.188312
 C   -7.140704   -2.137403   -0.090734
 C   -7.359483   -0.769292   -0.096711
 C   -6.293368    0.104204   -0.186250
 O   -4.148621    1.778427   -0.898924
 C   -3.006176    2.467611   -0.905545
 N   -2.881485    3.702961   -1.367792
 C   -1.662023    4.185834   -1.258404
 N   -0.602516    3.594442   -0.727904
 C   -0.724615    2.360029   -0.243385
 N    0.372175    1.770426    0.302106
 C    1.568608    2.550782    0.567265
 C    2.307384    2.764213   -0.773499
 O    2.586704    1.538360   -1.414012
 C    2.467250    1.864014    1.560522
 C    3.194558    2.622429    2.470298
 C    4.057914    2.013906    3.363324
 C    4.205239    0.636710    3.361269
 C    3.488605   -0.124645    2.455073
 C    2.627825    0.483704    1.556892
 H    6.133673    0.095931   -1.252407
 H    4.610600    0.895342   -0.795506
 H    5.125283   -0.561784    0.050733
 H    3.352265   -0.933762   -1.574329
 H    3.934869    0.819136   -3.068900
 H    5.381145   -0.080582   -3.586009
 H    3.760033   -0.723044   -3.916529
 H    4.576298   -2.658355   -2.962901
 H    5.978815   -2.204003   -1.988002
 H    4.508197   -2.658041    0.088042
 H    5.016486   -4.034997   -0.875343
 H    2.739135   -3.869556   -2.083443
 H    2.792757   -4.525262   -0.452596
 H    1.018437   -3.993927    0.516281
 H   -0.356474   -0.868297   -0.805075
 H   -0.292900   -3.760217    2.350103
 H   -2.281496   -2.710582    3.349312
 H   -3.330839   -0.761723    2.259877
 H   -3.774921   -2.152866   -0.379421
 H   -5.676732   -3.695221   -0.201795
 H   -7.974260   -2.819156   -0.018745
 H   -8.364873   -0.382190   -0.031737
 H   -6.457443    1.170687   -0.190923
 H   -1.504964    5.186800   -1.633768
 H    0.199967    0.976458    0.900552
 H    1.284190    3.544656    0.935138
 H    3.265347    3.258520   -0.600422
 H    1.681423    3.397031   -1.411253
 H    1.767089    1.024036   -1.393863
 H    3.077540    3.695783    2.480831
 H    4.611716    2.614472    4.068054
 H    4.871141    0.160827    4.064507
 H    3.592079   -1.201692    2.454738
 H    2.084283   -0.120057    0.847321
