17 
4jsz_ligand_dft.xyz
 C   -3.075860    0.002938   -0.082549
 C   -2.382337    1.210264   -0.039683
 C   -0.993874    1.214654    0.037366
 C   -0.318264   -0.001366    0.066975
 C   -0.997412   -1.215075    0.035035
 C   -2.386137   -1.206366   -0.041988
 S    1.460655   -0.003679    0.149509
 O    1.876018   -1.288110    0.691856
 O    1.879578    1.260120    0.735613
 N    1.927659    0.028764   -1.461347
 H   -4.160099    0.004675   -0.140088
 H   -2.923335    2.151003   -0.059493
 H   -0.437610    2.144319    0.090715
 H   -0.443452   -2.146194    0.086704
 H   -2.929944   -2.145447   -0.063472
 H    2.432615   -0.819117   -1.698757
 H    2.476260    0.861891   -1.649017
