47 
4ju3_ligand_dft.xyz
 C   -4.176553    0.308890   -1.065061
 C   -4.330799    1.592406   -1.565231
 C   -4.424104    2.696934   -0.709037
 C   -4.351376    2.484359    0.667859
 C   -4.191241    1.204014    1.189261
 C   -4.110060    0.127744    0.315995
 S   -3.877490   -1.514818    0.959523
 O   -3.751586   -1.414651    2.403137
 O   -4.819552   -2.424554    0.338784
 N   -2.386609   -1.985256    0.319722
 C   -1.255931   -1.158993    0.411195
 C   -0.414896   -0.958835   -0.705366
 C    0.692718   -0.111918   -0.585027
 C    0.982895    0.506633    0.619073
 C    0.177641    0.283740    1.729149
 C   -0.926815   -0.545642    1.626853
 C   -0.719096   -1.598471   -2.023802
 O    0.308316   -1.763183   -2.872467
 O   -1.823817   -1.962906   -2.362363
 O    2.027699    1.398915    0.720971
 C    3.303953    0.956877    0.509696
 C    4.245849    1.936108    0.197400
 C    5.570481    1.574124    0.005377
 C    5.968465    0.237944    0.114212
 C    5.008493   -0.730985    0.410534
 C    3.682366   -0.382256    0.621004
 C    7.374784   -0.221679   -0.112526
 C   -4.616209    4.080673   -1.273750
 O    7.654938   -1.346033   -0.437869
 O    8.350381    0.696711    0.065744
 H   -4.095783   -0.538794   -1.738545
 H   -4.380066    1.742717   -2.640320
 H   -4.418291    3.330757    1.345787
 H   -4.131858    1.035352    2.258887
 H   -2.537486   -2.356745   -0.617845
 H    1.317091    0.121885   -1.442935
 H    0.424683    0.764827    2.669394
 H   -1.549850   -0.732613    2.493001
 H    1.152076   -1.610752   -2.426660
 H    3.920958    2.966072    0.100106
 H    6.280031    2.347956   -0.277875
 H    5.321264   -1.767499    0.480213
 H    2.950378   -1.140820    0.875431
 H   -3.944633    4.259850   -2.119469
 H   -5.641995    4.210255   -1.637594
 H   -4.429747    4.851053   -0.520505
 H    7.994887    1.485986    0.494149
