41 
4ju4_ligand_dft.xyz
 C    1.216474    1.643667    0.762808
 C   -0.025775    2.054273    1.218536
 C   -0.951452    2.501762    0.283019
 C   -0.658898    2.535790   -1.076641
 C    0.591648    2.109777   -1.506181
 C    1.539629    1.661941   -0.591024
 S    3.126514    1.073964   -1.179881
 O    4.202597    1.808207   -0.551248
 O    3.004157    1.002382   -2.624839
 N    3.230133   -0.478971   -0.556456
 C    2.099159   -1.313672   -0.536689
 C    1.803262   -2.103146    0.593277
 C    0.575921   -2.779569    0.644898
 C   -0.314278   -2.718998   -0.410237
 C    0.035419   -2.038581   -1.575007
 C    1.232551   -1.351236   -1.638428
 C    2.759594   -2.188784    1.740563
 O    3.641597   -1.386322    1.951064
 O    2.619089   -3.233514    2.572958
 O   -1.521380   -3.360025   -0.299455
 C   -2.659259   -2.580117   -0.346890
 C   -2.659217   -1.219663   -0.045071
 C   -3.859468   -0.515487   -0.090347
 C   -5.047129   -1.157823   -0.423874
 C   -5.031694   -2.520845   -0.713875
 C   -3.840783   -3.236467   -0.679947
 F    2.103165    1.194057    1.648338
Br   -2.648761    3.076712    0.880766
 H   -0.248878    2.023351    2.278011
 H   -1.398307    2.885054   -1.787150
 H    0.844841    2.109214   -2.560639
 H    3.741925   -0.475194    0.330275
 H    0.257153   -3.311973    1.536308
 H   -0.649009   -2.032284   -2.416832
 H    1.502956   -0.813493   -2.539304
 H    2.018182   -3.891764    2.200207
 H   -1.739448   -0.710306    0.223095
 H   -3.849902    0.544175    0.144987
 H   -5.978506   -0.601806   -0.456395
 H   -5.952875   -3.033153   -0.974550
 H   -3.807838   -4.296630   -0.907772
