41 
4ju4_ligand_xtb.xyz
 C    1.093323    1.558242    0.812781
 C   -0.164980    1.902970    1.277701
 C   -1.050818    2.490553    0.388553
 C   -0.698738    2.740735   -0.930017
 C    0.563669    2.380022   -1.365532
 C    1.462092    1.779523   -0.501826
 S    3.081764    1.273464   -1.132707
 O    4.110710    2.045336   -0.523697
 O    2.968720    1.276298   -2.558014
 N    3.240003   -0.289936   -0.570460
 C    2.139987   -1.116343   -0.512409
 C    1.996689   -2.101424    0.485643
 C    0.788332   -2.795660    0.577480
 C   -0.251043   -2.550553   -0.304952
 C   -0.056247   -1.660125   -1.362137
 C    1.124001   -0.961063   -1.461637
 C    3.110276   -2.360734    1.436433
 O    4.037326   -1.604291    1.600009
 O    3.068951   -3.507766    2.123476
 O   -1.409672   -3.256460   -0.139975
 C   -2.613946   -2.618596   -0.336808
 C   -2.798118   -1.263289   -0.087324
 C   -4.054003   -0.703721   -0.239607
 C   -5.125998   -1.485212   -0.635115
 C   -4.940961   -2.837024   -0.873336
 C   -3.690593   -3.407123   -0.726205
 F    1.950011    0.970790    1.656323
Br   -2.785179    2.941406    0.988247
 H   -0.434713    1.710435    2.304419
 H   -1.404304    3.202680   -1.602419
 H    0.873315    2.541604   -2.385895
 H    3.890362   -0.412183    0.207902
 H    0.599684   -3.510017    1.367081
 H   -0.839002   -1.518291   -2.092063
 H    1.288436   -0.280126   -2.280075
 H    2.328853   -4.075668    1.870168
 H   -1.963168   -0.656225    0.234972
 H   -4.196602    0.346956   -0.037288
 H   -6.102723   -1.041853   -0.750648
 H   -5.774035   -3.452666   -1.176985
 H   -3.528967   -4.458837   -0.902701
