58 
4ju7_ligand_dft.xyz
 C    3.573631    1.470719    0.612843
 C    3.238292    2.865816    1.142106
 C    2.808227    3.825195    0.025622
 C    1.640077    3.222265   -0.763880
 C    1.966888    1.828639   -1.302875
 C    2.393736    0.881251   -0.167404
 C    2.773423   -0.469061   -0.755284
 O    3.865840   -0.653900   -1.269381
 C    2.173259   -2.767808   -1.348773
 N    1.824677   -1.474843   -0.728173
 C    0.492585   -1.256649   -0.281591
 C    0.124771   -1.481892    1.053826
 C   -1.195817   -1.306378    1.459784
 C   -2.162318   -0.893275    0.545262
 C   -1.814832   -0.677472   -0.786007
 C   -0.495734   -0.864150   -1.182706
 C    1.153454   -1.845457    2.086960
 O    0.837357   -2.912723    2.853348
 O    2.174931   -1.241670    2.271624
 O   -3.432989   -0.766836    1.024950
 C   -4.316298    0.078440    0.380357
 C   -5.537594   -0.446313   -0.021819
 C   -6.476424    0.395436   -0.612324
 C   -6.189174    1.743613   -0.805248
 C   -4.958688    2.254663   -0.397177
 C   -4.016475    1.426734    0.203076
 C    2.457341    5.206893    0.574209
 C    1.581904   -3.946397   -0.579927
 C    1.786876   -2.801966   -2.828130
 H    3.827770    0.799613    1.438936
 H    4.445105    1.514607   -0.050240
 H    4.103790    3.279436    1.674506
 H    2.424338    2.792189    1.879523
 H    3.656815    3.932518   -0.667420
 H    1.363423    3.887734   -1.591583
 H    0.761241    3.158304   -0.103791
 H    2.786521    1.890471   -2.030491
 H    1.097623    1.419452   -1.832975
 H    1.553013    0.769207    0.524221
 H    3.261832   -2.810227   -1.280775
 H   -1.489351   -1.446045    2.496133
 H   -2.564411   -0.362787   -1.503474
 H   -0.216290   -0.697048   -2.217700
 H    0.038698   -3.334800    2.507235
 H   -5.738907   -1.500439    0.136584
 H   -7.434117   -0.008385   -0.925935
 H   -6.922131    2.395882   -1.269124
 H   -4.731534    3.306819   -0.538615
 H   -3.057802    1.815031    0.532507
 H    2.175380    5.896022   -0.230189
 H    1.613225    5.143410    1.272619
 H    3.303980    5.645619    1.114018
 H    1.892970   -3.936817    0.469387
 H    0.486455   -3.953706   -0.625800
 H    1.937622   -4.880574   -1.025358
 H    0.698030   -2.790126   -2.956445
 H    2.218426   -1.942826   -3.349678
 H    2.167779   -3.714688   -3.298600
