38 
4jv6_ligand_xtb.xyz
 C   -0.914572    3.093516    1.086692
 C   -1.132227    4.262337    0.381658
 C   -0.658581    4.389684   -0.914077
 C    0.033151    3.343292   -1.497069
 C    0.254175    2.172699   -0.790693
 C   -0.219220    2.038686    0.506488
 C    0.007005    0.780180    1.316908
 N    0.573987   -0.304149    0.567536
 C    1.918261   -0.509279    0.375793
 C    3.036625    0.232275    0.721995
 C    4.264990   -0.283292    0.361120
 C    4.378355   -1.495966   -0.323229
 C    3.270524   -2.237426   -0.673300
 C    2.021672   -1.738054   -0.318065
 N    0.769568   -2.243800   -0.527053
 C   -0.063278   -1.379123   -0.008678
 C   -1.507643   -1.564787   -0.037194
 C   -2.008497   -2.858599    0.107531
 C   -3.369824   -3.087866    0.079571
 C   -4.249515   -2.031861   -0.099769
 C   -3.758435   -0.748626   -0.269896
 C   -2.395794   -0.510812   -0.242890
 H   -1.286427    2.992806    2.096663
 H   -1.673499    5.074999    0.843154
 H   -0.829476    5.301779   -1.466028
 H    0.404754    3.434249   -2.506799
 H    0.794977    1.362812   -1.258054
 H   -0.941877    0.448454    1.752844
 H    0.690138    1.012457    2.144219
 H    2.954627    1.176399    1.240687
 H    5.161679    0.264882    0.610201
 H    5.363063   -1.855116   -0.584047
 H    3.354303   -3.172125   -1.203888
 H   -1.309265   -3.669403    0.239390
 H   -3.748756   -4.092298    0.197546
 H   -5.314590   -2.210217   -0.118224
 H   -4.439397    0.074552   -0.431124
 H   -2.028168    0.489555   -0.417299
