50 
4jv7_ligand_xtb.xyz
 C   -0.641381   -2.565022   -0.154643
 C   -1.936496   -2.953870   -0.445760
 C   -2.992352   -2.284088    0.146942
Br   -4.778305   -2.801645   -0.261620
 C   -2.771906   -1.244553    1.034953
 C   -1.473286   -0.868861    1.320412
 C   -0.397490   -1.518509    0.724730
 C    1.005684   -1.025986    0.986427
 N    1.993822   -2.078058    0.927312
 C    2.117708   -2.907060    2.105428
 C    2.695212   -2.388438   -0.184311
 O    3.481004   -3.317757   -0.221628
 C    2.483855   -1.525328   -1.425891
 C    3.846374   -0.959172   -1.900072
 C    4.432320    0.040296   -0.945080
 C    5.121323   -0.382129    0.187195
 C    5.624591    0.540683    1.087002
 C    5.450728    1.896897    0.865258
 C    4.777410    2.326901   -0.265821
 C    4.274548    1.404469   -1.166509
 O    1.481759   -0.535743   -1.323723
 C    1.396152    0.058172   -0.052775
 C    0.380596    1.165936   -0.078513
 C   -0.696421    1.118552   -0.954000
 C   -1.657867    2.111775   -0.938122
 C   -1.536906    3.152408   -0.033416
Br   -2.866345    4.514136    0.011387
 C   -0.465225    3.223089    0.840811
 C    0.492863    2.226725    0.811428
 H    0.182005   -3.088131   -0.616390
 H   -2.123048   -3.766832   -1.130258
 H   -3.604282   -0.735108    1.495040
 H   -1.295416   -0.058116    2.011608
 H    1.049882   -0.574031    1.986187
 H    2.847968   -3.684661    1.891314
 H    1.156641   -3.363110    2.351473
 H    2.458990   -2.306716    2.950909
 H    2.130331   -2.202587   -2.215791
 H    4.517514   -1.812581   -2.010777
 H    3.690766   -0.494343   -2.874764
 H    5.261184   -1.439053    0.359763
 H    6.158412    0.200374    1.962308
 H    5.844508    2.616297    1.568036
 H    4.644075    3.383179   -0.448447
 H    3.741727    1.742546   -2.043892
 H    2.372323    0.461646    0.252153
 H   -0.769170    0.301683   -1.653374
 H   -2.495368    2.075910   -1.617500
 H   -0.381388    4.046679    1.533053
 H    1.336061    2.276836    1.485109
