50 
4jv7_ligand_dft.xyz
 C   -1.012589   -2.511092   -0.272083
 C   -2.350051   -2.753709   -0.564970
 C   -3.333055   -2.044725    0.114802
Br   -5.158012   -2.370780   -0.278312
 C   -2.998055   -1.105258    1.082414
 C   -1.656644   -0.878121    1.365015
 C   -0.650851   -1.571162    0.691317
 C    0.804102   -1.243901    0.966604
 N    1.669961   -2.413481    0.908855
 C    1.633856   -3.312939    2.047316
 C    2.489249   -2.692323   -0.141685
 O    3.264975   -3.639039   -0.154348
 C    2.382510   -1.807896   -1.389457
 C    3.770811   -1.352833   -1.879653
 C    4.406822   -0.337204   -0.964205
 C    5.099176   -0.744064    0.180229
 C    5.576360    0.195439    1.089341
 C    5.370287    1.554893    0.865365
 C    4.695868    1.970018   -0.280305
 C    4.222027    1.029008   -1.189422
 O    1.479299   -0.722751   -1.282490
 C    1.383390   -0.178010    0.015443
 C    0.556278    1.077845   -0.035574
 C   -0.480584    1.222909   -0.956335
 C   -1.274585    2.363112   -0.951265
 C   -1.028353    3.358754   -0.012572
Br   -2.114382    4.912799    0.004984
 C    0.004130    3.237666    0.909425
 C    0.796536    2.094457    0.886764
 H   -0.245474   -3.070795   -0.797852
 H   -2.626846   -3.487459   -1.313674
 H   -3.774277   -0.559555    1.607120
 H   -1.390643   -0.133035    2.110276
 H    0.881892   -0.833030    1.982495
 H    2.228799   -4.193661    1.809774
 H    0.598856   -3.605921    2.253035
 H    2.049136   -2.823925    2.936364
 H    1.959724   -2.465794   -2.158178
 H    4.392790   -2.247568   -1.970916
 H    3.638428   -0.926819   -2.879068
 H    5.242531   -1.805685    0.363594
 H    6.109618   -0.135333    1.975964
 H    5.740107    2.287481    1.576799
 H    4.533276    3.027906   -0.464605
 H    3.672102    1.353662   -2.068698
 H    2.377917    0.073365    0.402386
 H   -0.667594    0.435049   -1.677490
 H   -2.081266    2.475991   -1.666954
 H    0.191711    4.027725    1.628028
 H    1.619244    2.000237    1.591751
