62 
4jve_ligand_dft.xyz
 C    2.303568   -1.110593    1.400302
 C    3.662843   -1.019547    1.677635
 C    4.509731   -0.443521    0.737467
Cl    6.220155   -0.326503    1.077837
 C    4.017635    0.036227   -0.470644
 C    2.656550   -0.066445   -0.731083
 C    1.785094   -0.636018    0.196824
 C    0.299360   -0.665780   -0.096008
 N   -0.373197   -1.862965    0.412506
 C   -0.504027   -3.034167   -0.447737
 C   -1.158422   -1.838117    1.530223
 O   -1.864916   -2.782009    1.858486
 C   -1.104006   -0.596950    2.427928
 C   -2.515569   -0.193401    2.896624
 C   -3.367232    0.360292    1.781290
 C   -3.333755    1.725113    1.481506
 C   -4.014930    2.239944    0.384060
 C   -4.747462    1.368847   -0.408133
 C   -4.821134    0.012331   -0.130641
 C   -4.125012   -0.485505    0.966584
 O   -0.407710    0.505502    1.879036
 C   -0.453232    0.553890    0.468111
 C    0.096618    1.870607   -0.004704
 C   -0.412913    2.437722   -1.171374
 C    0.106678    3.625933   -1.673395
 C    1.141866    4.249110   -0.986366
Cl    1.802049    5.746168   -1.603845
 C    1.657314    3.706853    0.186320
 C    1.131513    2.515506    0.671811
 C    0.797141   -3.370694   -1.197647
 C   -1.693184   -2.906482   -1.398897
 O   -2.221059   -3.834843   -1.957694
 O   -2.095363   -1.631121   -1.576177
 C    0.786761   -4.741790   -1.876054
 C    2.132281   -5.048198   -2.531400
 F   -5.405644    1.852805   -1.474811
 H    1.644729   -1.571321    2.129216
 H    4.063564   -1.393798    2.613315
 H    4.689740    0.481101   -1.195922
 H    2.265299    0.319789   -1.668837
 H    0.149338   -0.640033   -1.179742
 H   -0.756738   -3.872194    0.205275
 H   -0.532440   -0.902618    3.313178
 H   -2.390474    0.559390    3.681240
 H   -2.979582   -1.075573    3.345028
 H   -2.734189    2.390301    2.096178
 H   -3.981949    3.295788    0.138861
 H   -5.421904   -0.633455   -0.762708
 H   -4.150357   -1.549813    1.181045
 H   -1.485514    0.458401    0.111758
 H   -1.234636    1.950647   -1.690916
 H   -0.292413    4.068939   -2.579161
 H    2.464247    4.208893    0.708641
 H    1.528925    2.078467    1.581426
 H    1.606683   -3.337704   -0.460102
 H    1.025439   -2.596918   -1.942044
 H   -2.863767   -1.662145   -2.168303
 H    0.552874   -5.510615   -1.129259
 H   -0.012556   -4.787013   -2.621541
 H    2.119473   -6.030022   -3.014214
 H    2.942151   -5.046112   -1.793137
 H    2.377700   -4.302408   -3.296201
