41 
4jvj_ligand_dft.xyz
 O   -3.781471    1.857276    1.103381
 P   -4.067080    0.319877    0.914209
 O   -3.876906   -0.571026    2.094423
 O   -5.516480    0.292282    0.240616
 C   -2.938870   -0.282421   -0.433790
 P   -3.341570   -2.068206   -0.554086
 O   -2.692812   -2.644910    0.779790
 O   -4.793035   -2.246811   -0.804478
 O   -2.371757   -2.702809   -1.660853
 N   -1.531573   -0.100145   -0.146926
 C   -0.875873    1.078675   -0.292125
 N   -1.596803    2.190077   -0.484881
 C   -0.938091    3.351919   -0.669775
 N    0.363621    3.541645   -0.670584
 C    1.071758    2.422116   -0.454063
 S    2.808236    2.387510   -0.409012
 C    0.538062    1.145748   -0.261702
 C    1.544174    0.145502   -0.072131
 C    2.806091    0.655913   -0.116454
 C    4.070978   -0.078404    0.035116
 C    5.184065    0.501756    0.655540
 C    6.362457   -0.214868    0.804665
 C    6.473012   -1.530994    0.346320
 C    7.760461   -2.295875    0.517098
 C    5.361977   -2.104087   -0.273390
 C    4.180323   -1.390739   -0.434177
 H   -3.074623    2.163708    0.466618
 H   -5.736788   -0.623804   -0.025668
 H   -3.200090    0.211330   -1.376512
 H   -3.063663   -2.124357    1.540764
 H   -2.888625   -3.065248   -2.393879
 H   -1.012408   -0.895521    0.193302
 H   -1.566106    4.224486   -0.825347
 H    1.349651   -0.904144    0.117226
 H    5.121547    1.515048    1.043264
 H    7.212444    0.254195    1.293887
 H    8.586396   -1.797070   -0.002081
 H    8.037114   -2.369136    1.574644
 H    7.678576   -3.311483    0.119943
 H    5.423629   -3.122339   -0.648365
 H    3.340767   -1.849396   -0.948514
