76 
4jvq_ligand_xtb.xyz
 C   -3.809562   -1.554002   -0.768147
 C   -2.650929   -1.901878   -1.450118
 C   -1.397310   -1.734903   -0.866320
 C   -1.313788   -1.216952    0.423503
 C   -2.465911   -0.865053    1.099022
 C   -3.724907   -1.021418    0.527084
 O   -0.335261   -2.165392   -1.595913
 C    0.946664   -1.759407   -1.283524
 C    1.946755   -2.723662   -1.319363
 C    3.255889   -2.366430   -1.074340
 C    3.590418   -1.043410   -0.784190
 C    2.585486   -0.078592   -0.768623
 C    1.275361   -0.434941   -1.021717
 C   -5.130999   -1.703030   -1.453215
 O   -5.276098   -2.834685   -2.169438
 O   -6.008503   -0.889822   -1.405681
 N   -4.879625   -0.714817    1.280277
 C   -5.399917   -1.749363    2.176584
 C   -5.668102   -3.054444    1.433830
 C   -4.471924   -1.977917    3.368739
 C   -5.502223    0.500709    1.256565
 C   -4.907016    1.545851    0.332680
 O   -6.449628    0.737351    1.976509
 C   -6.037847    2.274402   -0.395071
 C   -5.488755    3.406785   -1.253974
 C   -4.692240    4.402563   -0.410735
 C   -3.557800    3.667546    0.303301
 C   -4.099606    2.539725    1.175216
 C   -4.149305    5.539753   -1.271716
 N    4.926613   -0.754057   -0.516097
 C    5.502305    0.448223   -0.197924
 O    4.901074    1.502366   -0.166684
 C    6.958548    0.358344    0.094253
 C    7.575180   -0.774125    0.627837
 C    8.924915   -0.771355    0.897256
 C    9.703228    0.361067    0.638748
 C    9.090179    1.499493    0.121230
 C    7.733356    1.490846   -0.135464
 O   11.021383    0.248853    0.931516
 C   11.860931    1.359665    0.717688
 H   -2.689118   -2.279409   -2.462461
 H   -0.351641   -1.097939    0.898194
 H   -2.391814   -0.454681    2.093853
 H    1.684107   -3.745785   -1.542384
 H    4.028664   -3.121737   -1.101843
 H    2.838292    0.947583   -0.562510
 H    0.504927    0.321790   -1.023998
 H   -4.500851   -3.409269   -2.111765
 H   -6.347992   -1.336974    2.538363
 H   -6.319945   -2.880270    0.581827
 H   -4.738143   -3.506449    1.090228
 H   -6.161243   -3.754547    2.103106
 H   -3.534343   -2.431800    3.052676
 H   -4.263381   -1.035286    3.868817
 H   -4.953077   -2.643354    4.080656
 H   -4.248764    1.076556   -0.402321
 H   -6.732188    2.668038    0.348918
 H   -6.575858    1.555716   -1.014430
 H   -6.314564    3.920910   -1.749924
 H   -4.840100    2.992992   -2.030550
 H   -5.360110    4.825989    0.347619
 H   -2.993130    4.368904    0.922257
 H   -2.872792    3.253263   -0.441439
 H   -3.272048    2.022774    1.669070
 H   -4.751453    2.950452    1.948900
 H   -3.480708    5.151282   -2.037541
 H   -4.962920    6.067496   -1.764249
 H   -3.596090    6.252422   -0.663597
 H    5.547576   -1.548173   -0.581583
 H    7.001404   -1.656182    0.875641
 H    9.410441   -1.637494    1.318420
 H    9.657368    2.394350   -0.079110
 H    7.248314    2.372548   -0.526097
 H   11.881912    1.649174   -0.337507
 H   11.554617    2.216381    1.325687
 H   12.855541    1.038956    1.022789
