64 
4jyt_ligand_xtb.xyz
 O    3.022699   -2.571618    2.557672
 S    2.659870   -1.325526    1.954476
 O    2.157712   -0.267395    2.779826
 C    4.015867   -0.720842    0.965155
 C    4.506571    0.569087    1.196410
 C    5.545933    1.035760    0.440757
 C    6.124246    0.229764   -0.564854
 C    7.198305    0.684601   -1.358566
 C    7.743498   -0.117098   -2.322212
 C    7.241258   -1.410337   -2.539371
 C    6.200855   -1.882347   -1.789149
 C    5.616762   -1.080545   -0.785893
 C    4.544505   -1.536297    0.009938
 N    1.521332   -1.731384    0.769449
 C    0.602234   -0.780768    0.344181
 C   -0.747024   -1.132510    0.113857
 O   -1.060070   -2.420199    0.362268
 C   -2.282076   -3.000246    0.101129
 C   -2.505939   -4.199371    0.776327
 C   -3.664725   -4.912192    0.556082
 C   -4.628313   -4.439697   -0.331602
 C   -5.863185   -5.227678   -0.582755
 N   -6.987997   -4.490903   -0.828337
 N   -5.939641   -6.495358   -0.648077
 C   -4.393739   -3.241570   -0.998115
 C   -3.228723   -2.524093   -0.796013
 C    0.963488    0.534784    0.108127
 C    0.009083    1.446555   -0.316715
 C   -1.295919    1.000695   -0.483617
 N   -1.649181   -0.262732   -0.281571
 O   -2.307277    1.779718   -0.944556
 C   -2.374793    3.106442   -0.603218
 C   -2.995933    3.957642   -1.513273
 C   -3.150522    5.296149   -1.215674
 C   -2.698728    5.809078   -0.002150
 C   -2.890769    7.242789    0.340362
 N   -3.187204    7.704648    1.486955
 N   -2.799088    8.113449   -0.710212
 C   -2.097810    4.945648    0.908832
 C   -1.930884    3.606210    0.616832
 H    4.044986    1.157575    1.973836
 H    5.941996    2.027191    0.604249
 H    7.583281    1.679565   -1.188602
 H    8.566416    0.238427   -2.924234
 H    7.686072   -2.028504   -3.304743
 H    5.810095   -2.876174   -1.949542
 H    4.142983   -2.527929   -0.128135
 H    1.116625   -2.643591    0.926117
 H   -1.758838   -4.555334    1.468776
 H   -3.835469   -5.836597    1.089269
 H   -7.839588   -5.026178   -0.881193
 H   -7.054835   -3.572663   -0.424057
 H   -5.051801   -6.974533   -0.542250
 H   -5.121427   -2.875718   -1.707170
 H   -3.060236   -1.599233   -1.320138
 H    1.985023    0.843066    0.258556
 H    0.273417    2.471962   -0.519136
 H   -3.354984    3.548562   -2.444462
 H   -3.645561    5.947846   -1.919950
 H   -3.328235    6.998305    2.201033
 H   -2.818933    9.086812   -0.451922
 H   -2.213760    7.864863   -1.489001
 H   -1.746929    5.329522    1.856286
 H   -1.471418    2.945411    1.336800
