66 
4jzi_ligand_dft.xyz
 O   -2.244493   -2.911226    0.680566
 C   -2.010823   -1.796333    0.233076
 N   -2.992294   -0.989212   -0.273449
 C   -4.385290   -1.398750   -0.356384
 C   -4.970500   -1.637876    1.045681
 C   -6.423708   -2.121653    0.983049
 C   -6.501352   -3.369050    0.111895
 N   -7.944468   -3.862058    0.067118
 C   -6.016770   -3.106409   -1.308250
 C   -4.560603   -2.629363   -1.264778
 C   -0.620682   -1.230165    0.188571
 C   -0.375858    0.146307    0.228094
 C    0.431797   -2.124174    0.111254
 C    1.721110   -1.579747    0.054992
 O    2.735965   -2.458972   -0.036619
 C    4.046662   -1.989810   -0.026108
 C    4.636747   -1.606978    1.170836
 C    5.969441   -1.220053    1.168481
 C    6.710330   -1.215747   -0.016630
 C    8.151948   -0.816789    0.006882
 N    8.991307   -1.100309    0.929359
 N    8.575834   -0.127859   -1.115143
 C    6.091564   -1.602796   -1.207561
 C    4.757611   -1.995392   -1.215798
 N    1.980771   -0.285003    0.072278
 C    0.956444    0.552811    0.163552
 O    1.339885    1.851452    0.212365
 C    0.385268    2.843515    0.111485
 C   -0.245993    3.089091   -1.105044
 C   -1.162488    4.127808   -1.193268
 C   -1.445663    4.929996   -0.083411
 C   -2.417373    6.061471   -0.209337
 N   -3.137582    6.333255    0.938875
 N   -2.587816    6.792255   -1.244843
 C   -0.794703    4.668281    1.125013
 C    0.119867    3.625205    1.227681
 H   -2.711684   -0.157743   -0.770415
 H   -4.922094   -0.555947   -0.810215
 H   -4.921455   -0.712297    1.625357
 H   -4.353990   -2.380645    1.559408
 H   -7.064459   -1.338766    0.550901
 H   -6.787438   -2.327169    1.996885
 H   -5.937104   -4.190294    0.565192
 H   -8.301700   -4.067350    1.005955
 H   -8.556248   -3.150864   -0.347398
 H   -8.034221   -4.713265   -0.497326
 H   -6.652631   -2.336833   -1.770480
 H   -6.090497   -4.011657   -1.922679
 H   -3.917814   -3.430910   -0.890062
 H   -4.229762   -2.388906   -2.278928
 H   -1.168296    0.871750    0.362348
 H    0.273083   -3.194530    0.098575
 H    4.053404   -1.605706    2.085196
 H    6.438761   -0.900261    2.094242
 H    8.566683   -1.716673    1.620657
 H    9.520297    0.224767   -1.025852
 H    7.924991    0.537078   -1.508862
 H    6.667462   -1.615795   -2.127450
 H    4.269296   -2.313062   -2.130779
 H   -0.009713    2.472796   -1.966734
 H   -1.668597    4.319037   -2.135346
 H   -3.848864    7.040247    0.805524
 H   -3.429217    5.546649    1.500265
 H   -1.896972    6.572521   -1.960483
 H   -0.988353    5.303659    1.983458
 H    0.644117    3.422236    2.155335
