54 
4k0o_ligand_xtb.xyz
 C    1.218361   -0.376822   -0.043637
 C    2.232539    0.652672    0.479630
 C    3.614748    0.420756   -0.154836
 C    3.985965   -1.073835   -0.105149
 C    2.856793   -1.936106   -0.667285
 C    3.165648   -3.431201   -0.546737
 C    2.139822    3.132007    0.629259
 C    1.246388    4.307853    0.314411
 N    1.674674    1.957055    0.161405
 O    0.058364   -0.249441    0.715844
 O    4.648412    1.093683    0.508916
 O    5.155053   -1.307413   -0.839643
 O    1.661565   -1.699842    0.063464
 O    2.124047   -4.215143   -1.059056
 O    3.189462    3.239568    1.239564
 C   -3.171595    0.600393   -0.989228
 C   -1.790105    0.869875   -0.375511
 C   -1.167912   -0.467811    0.037041
 C   -2.127860   -1.172398    1.013017
 C   -3.531742   -1.266488    0.393332
 C   -4.557726   -1.783443    1.411118
 C   -4.927801    1.760162   -2.050134
 O   -3.683089    1.828925   -1.376535
 O   -0.952844    1.539475   -1.289647
 O   -2.193911   -0.468347    2.220843
 O   -4.011769   -0.009848   -0.049492
 O   -5.821986   -1.937722    0.832146
 H    1.020258   -0.145502   -1.109410
 H    2.325318    0.541765    1.568536
 H    3.569913    0.737886   -1.213274
 H    4.137075   -1.341916    0.953625
 H    2.697226   -1.680727   -1.726620
 H    3.348412   -3.666262    0.510276
 H    4.059756   -3.656770   -1.128163
 H    0.330730    4.234066    0.897466
 H    1.759669    5.228618    0.575466
 H    0.989135    4.317073   -0.741505
 H    0.784142    1.945458   -0.321972
 H    4.304324    1.945337    0.856491
 H    5.787260   -0.626152   -0.571955
 H    1.316043   -3.943186   -0.607301
 H   -3.061533   -0.071271   -1.873167
 H   -1.940959    1.481578    0.526005
 H   -1.007541   -1.090543   -0.850598
 H   -1.755718   -2.194633    1.189704
 H   -3.483164   -1.951767   -0.470168
 H   -4.581890   -1.080649    2.251488
 H   -4.252530   -2.767425    1.769607
 H   -5.164070    2.780197   -2.343121
 H   -4.850852    1.123245   -2.937760
 H   -5.705733    1.372075   -1.390746
 H   -1.485814    2.237380   -1.695613
 H   -1.284919   -0.269699    2.483582
 H   -6.076810   -1.082421    0.466341
