28 
4k2g_ligand_dft.xyz
 F   -4.326699   -1.281525    0.595385
 C   -3.336394   -1.016197   -0.272978
 F   -3.897668   -0.600130   -1.414641
 F   -2.699258   -2.165294   -0.528202
 C   -2.383747    0.024111    0.279430
 N   -1.319324    0.258290   -0.486261
 C   -2.631472    0.670408    1.480982
 C   -1.703772    1.617688    1.906507
 C   -0.585065    1.867568    1.126702
 C   -0.436102    1.158604   -0.066614
 C    0.800684    1.296671   -0.951731
 C    1.286085    2.680647   -0.972328
 N    1.666324    3.773552   -0.958568
 C    1.881197    0.305918   -0.510113
 C    3.065715    0.715031    0.097710
 C    4.006895   -0.222060    0.514524
 C    1.639504   -1.057791   -0.695683
 C    2.569345   -2.002822   -0.284105
 C    3.742458   -1.566703    0.315924
 F    4.645091   -2.474287    0.713238
 H   -3.516080    0.442020    2.062027
 H   -1.852970    2.150602    2.839948
 H    0.158251    2.598313    1.427736
 H    0.485248    1.043830   -1.969653
 H    3.269430    1.771713    0.243348
 H    4.935681    0.080810    0.984685
 H    0.708301   -1.381263   -1.152072
 H    2.397950   -3.064237   -0.423579
