40 
4k3k_ligand_xtb.xyz
 C   -4.067429    0.064824    1.720865
 C   -3.982009    0.029694    0.196868
 C   -4.406304    1.380196   -0.378210
 C   -2.567023   -0.307636   -0.286578
 C   -2.107037   -1.716727    0.099623
 C   -0.757238   -2.026468   -0.519889
 O   -0.591383   -2.805963   -1.432901
 N    0.264546   -1.336877    0.042926
 C    1.623979   -1.463213   -0.410563
 C    2.607486   -1.447623    0.743543
 O    3.788441   -1.629700    0.628996
 O    2.030763   -1.182826    1.922449
 C    2.012356   -0.352215   -1.421220
 C    1.712793    1.004305   -0.851684
 C    2.617213    1.639112   -0.008997
 C    2.308070    2.861837    0.559995
 C    1.089691    3.464861    0.294946
 C    0.185852    2.843740   -0.549796
 C    0.497034    1.621399   -1.119197
 H   -3.869516   -0.913571    2.150408
 H   -3.348723    0.775185    2.125340
 H   -5.062851    0.372041    2.033318
 H   -4.669102   -0.738460   -0.174327
 H   -5.419194    1.626718   -0.068854
 H   -3.740381    2.165985   -0.026845
 H   -4.375491    1.363915   -1.465209
 H   -1.871548    0.433490    0.115737
 H   -2.545193   -0.228496   -1.376188
 H   -2.824011   -2.451140   -0.269028
 H   -2.029106   -1.810507    1.183483
 H    0.086487   -0.678711    0.783751
 H    1.706993   -2.430676   -0.922548
 H    2.698535   -1.177941    2.626783
 H    3.074785   -0.457186   -1.643956
 H    1.437209   -0.515061   -2.332995
 H    3.571392    1.174515    0.194969
 H    3.020502    3.347311    1.210803
 H    0.848854    4.418591    0.740613
 H   -0.762625    3.312745   -0.768353
 H   -0.206012    1.140795   -1.783992
