87 
4k3q_ligand_xtb.xyz
 C    4.565618    3.938824   -0.941869
 O    4.109944    4.352189    0.115390
 C    5.502328    4.755395   -1.800466
 N    4.259151    2.739337   -1.455763
 C    3.515218    1.698394   -0.783170
 C    4.190099    0.366732   -1.154213
 O    4.869927    0.265194   -2.158556
 C    2.053456    1.649999   -1.259510
 C    1.217044    2.845412   -0.786829
 C    0.960231    2.777593    0.706096
 O   -0.023463    2.211475    1.178347
 N    1.870414    3.378242    1.467246
 N    3.931954   -0.623408   -0.294869
 C    4.336210   -2.000849   -0.497248
 C    3.119753   -2.909056   -0.250323
 O    3.166236   -3.966615    0.336653
 C    5.538391   -2.408701    0.369311
 C    5.578657   -1.792642    1.772994
 C    6.871812   -2.229217    2.461604
 C    4.378217   -2.198176    2.624141
 N    1.986451   -2.400775   -0.778855
 C    0.657767   -2.807505   -0.409399
 C   -0.312374   -1.967601   -1.249234
 O    0.069163   -0.976511   -1.844079
 C    0.385279   -2.484125    1.084436
 C    0.529655   -0.985190    1.260241
 O    1.604039   -0.435739    1.380621
 O   -0.612019   -0.346178    1.198999
 N   -1.578708   -2.391323   -1.229296
 C   -2.685531   -1.590687   -1.700580
 C   -3.846139   -1.852675   -0.735362
 O   -3.840999   -2.807856    0.017132
 C   -3.085824   -1.977987   -3.126902
 N   -4.850364   -0.970768   -0.819377
 C   -6.027261   -1.037351    0.013015
 C   -7.098135   -0.184117   -0.637177
 O   -8.280051   -0.308977   -0.041376
 C   -5.739711   -0.538381    1.450804
 C   -5.203756    0.865685    1.427100
 C   -3.839468    1.093462    1.295488
 C   -6.065855    1.952977    1.490415
 C   -3.345055    2.384501    1.223452
 C   -5.574282    3.243970    1.416776
 C   -4.213718    3.461210    1.279111
 O   -6.903294    0.530895   -1.583923
 H    6.443208    4.225573   -1.930218
 H    5.689939    5.712084   -1.321799
 H    5.059869    4.922240   -2.779964
 H    4.730562    2.403046   -2.289152
 H    3.559006    1.857345    0.298003
 H    2.047577    1.619913   -2.350834
 H    1.583225    0.734449   -0.902091
 H    0.253507    2.811444   -1.297439
 H    1.721099    3.779789   -1.032350
 H    1.767114    3.344565    2.469024
 H    2.693184    3.829811    1.063979
 H    3.321084   -0.445969    0.495329
 H    4.618810   -2.097035   -1.553885
 H    6.452312   -2.123212   -0.154601
 H    5.515952   -3.496509    0.456879
 H    5.594308   -0.700821    1.676278
 H    6.955854   -1.767897    3.442919
 H    7.740779   -1.942071    1.873508
 H    6.883928   -3.309427    2.588276
 H    4.256483   -3.278336    2.611128
 H    4.525336   -1.876630    3.653421
 H    3.459019   -1.745720    2.262475
 H    2.009782   -1.524800   -1.290614
 H    0.525063   -3.881029   -0.577947
 H    1.128791   -3.006200    1.687577
 H   -0.619569   -2.794999    1.365322
 H   -0.473807    0.649687    1.222672
 H   -1.867060   -3.168661   -0.644437
 H   -2.386521   -0.537134   -1.669554
 H   -3.367021   -3.027937   -3.163248
 H   -3.924455   -1.375478   -3.464773
 H   -2.243178   -1.816072   -3.793907
 H   -4.800390   -0.168870   -1.432753
 H   -6.372026   -2.076466    0.070232
 H   -8.941173    0.260997   -0.466919
 H   -5.006857   -1.217465    1.887797
 H   -6.665635   -0.594756    2.023913
 H   -3.156445    0.257193    1.260052
 H   -7.127903    1.787658    1.609227
 H   -2.282152    2.545173    1.133267
 H   -6.254531    4.081556    1.469428
 H   -3.830970    4.469463    1.222305
