90 
4k42_ligand_xtb.xyz
 C    0.754949    3.096394   -0.233193
 C    0.946610    3.975491    0.816286
 C    1.901880    4.973271    0.718698
 C    2.663977    5.085371   -0.431216
 C    2.475723    4.199669   -1.478614
 C    1.517896    3.198820   -1.390559
 C    1.341705    2.186590   -2.496031
 O    1.919331    0.934994   -2.186778
 C    3.329483    0.905934   -2.214588
 C    3.789573   -0.547723   -2.105279
 C    4.015282   -1.109299   -0.698175
 O    5.163091   -0.434565   -0.152253
 C    5.943081   -1.128668    0.678982
 O    5.765813   -2.282161    0.970895
 C    7.065966   -0.258852    1.203669
 C    8.244862   -1.091793    1.688035
 C    2.858969   -1.056863    0.322329
 C    2.644470    0.352070    0.883301
 C    1.539168   -1.614362   -0.253266
 O    0.510410   -1.547000    0.715204
 C    1.630291   -3.083614   -0.712140
 C    1.900232   -4.023466    0.463383
 C    0.376003   -3.496700   -1.499105
 C   -0.940337   -3.351347   -0.734107
 C   -1.396716   -1.909351   -0.696381
 O   -1.173383   -1.136296   -1.597823
 C   -2.297870   -1.525394    0.479654
 C   -3.608691   -2.310310    0.428569
 C   -2.461651    0.005693    0.496739
 O   -2.705615    0.461303    1.836772
 C   -1.655219    0.815793    2.566998
 O   -0.509930    0.759039    2.189306
 C   -2.078695    1.322892    3.920816
 C   -3.540996    0.583498   -0.433279
 C   -3.282965    2.082640   -0.641506
 C   -4.928574    0.405493    0.104519
 C   -5.950848    0.025446   -0.653841
 N   -7.268810   -0.106011   -0.237554
 C   -7.625120    0.191189    1.131816
 C   -8.241501   -0.506185   -1.090926
 O   -9.405686   -0.641239   -0.801835
 H    0.015057    2.314089   -0.152365
 H    0.353746    3.874844    1.713160
 H    2.053272    5.661586    1.537197
 H    3.411141    5.861469   -0.511957
 H    3.076339    4.288321   -2.373303
 H    0.280878    1.966613   -2.646355
 H    1.765434    2.573389   -3.435857
 H    3.761705    1.514755   -1.410451
 H    3.675097    1.318961   -3.176330
 H    3.052494   -1.167005   -2.615818
 H    4.741699   -0.644101   -2.631468
 H    4.304638   -2.163536   -0.813567
 H    7.359819    0.440230    0.420030
 H    6.653268    0.324167    2.031613
 H    7.905265   -1.824668    2.414922
 H    8.995824   -0.455504    2.148922
 H    8.699703   -1.625159    0.857219
 H    3.166762   -1.699935    1.154549
 H    2.097220    0.315461    1.822495
 H    3.601280    0.830956    1.078521
 H    2.085733    0.962945    0.182868
 H    1.252754   -0.993755   -1.115071
 H    0.452428   -0.639314    1.050502
 H    2.465242   -3.164511   -1.414663
 H    1.226593   -3.802335    1.285692
 H    2.922033   -3.910857    0.815977
 H    1.759940   -5.057973    0.158330
 H    0.307735   -2.879174   -2.397410
 H    0.497001   -4.536511   -1.810321
 H   -1.718666   -3.909681   -1.263892
 H   -0.855802   -3.749445    0.273553
 H   -1.769548   -1.800912    1.397407
 H   -4.282319   -1.957541    1.205222
 H   -3.414768   -3.366941    0.594498
 H   -4.097968   -2.194459   -0.534376
 H   -1.496323    0.419862    0.178080
 H   -3.031318    0.887873    4.206019
 H   -1.312627    1.089921    4.654527
 H   -2.187024    2.404998    3.868446
 H   -3.436190    0.078441   -1.396621
 H   -4.052490    2.507911   -1.281089
 H   -3.298503    2.606965    0.311828
 H   -2.315964    2.239812   -1.112921
 H   -5.055557    0.668687    1.142036
 H   -5.799585   -0.220481   -1.697091
 H   -7.390334    1.229586    1.369751
 H   -8.697155    0.027735    1.232514
 H   -7.090290   -0.468234    1.816790
 H   -7.853870   -0.702028   -2.106273
