85 
4k43_ligand_xtb.xyz
 O   -6.934602   -0.430532    1.327090
 C   -6.043595    0.312198    0.979407
 N   -5.783869    0.650286   -0.300902
 C   -6.665497    0.182904   -1.349479
 C   -4.731424    1.487977   -0.680153
 C   -3.555951    1.594165   -0.071058
 C   -2.502508    2.556760   -0.506627
 C   -1.177476    1.861888   -0.863463
 O   -1.265863    1.187047   -2.109032
 C   -1.589896   -0.175936   -2.021924
 C    0.003116    2.857412   -0.981419
 C   -0.321351    4.026974   -1.913047
 C    0.392490    3.383891    0.391200
 O   -0.344541    4.089651    1.038349
 C    1.748774    2.962903    0.894875
 C    1.732089    1.471562    1.246594
 C    3.063112    0.902413    1.748814
 C    3.545949    1.638218    3.000877
 C    4.219852    0.855969    0.727975
 O    4.542131    2.178554    0.338773
 C    5.859708    2.373404   -0.100788
 C    4.061075   -0.069693   -0.513876
 C    3.203935    0.528825   -1.630206
 C    3.599326   -1.484478   -0.131305
 C    3.977097   -2.559726   -1.169697
 C    5.479577   -2.754458   -1.329770
 C    3.328429   -3.869401   -0.701658
 O    1.942562   -3.717486   -0.500415
 C    1.666078   -2.713692    0.431569
 O    2.189612   -1.472705    0.036007
 C    0.173922   -2.553783    0.592698
 C   -0.321311   -1.603296    1.478678
 C   -1.679125   -1.419702    1.617808
 C   -2.579653   -2.194223    0.881501
 C   -2.082495   -3.152475    0.004713
 C   -0.715841   -3.320804   -0.138997
 O   -3.897225   -1.937530    1.087866
 C   -4.850177   -2.779330    0.479210
 H   -5.362442    0.799065    1.692508
 H   -7.436930   -0.430440   -0.886491
 H   -7.131668    1.026830   -1.862273
 H   -6.112097   -0.413599   -2.076957
 H   -4.943458    2.067223   -1.570690
 H   -3.321534    0.982471    0.788286
 H   -2.297177    3.258169    0.305735
 H   -2.849687    3.113573   -1.376668
 H   -0.934374    1.131949   -0.075877
 H   -1.625371   -0.545396   -3.045609
 H   -2.562751   -0.330980   -1.543506
 H   -0.831065   -0.733958   -1.459832
 H    0.835693    2.294769   -1.408582
 H   -1.026342    4.706385   -1.442046
 H   -0.743606    3.646152   -2.838494
 H    0.587381    4.580192   -2.141129
 H    1.985785    3.549260    1.782740
 H    2.503907    3.148363    0.133426
 H    0.994415    1.324090    2.040741
 H    1.414225    0.882928    0.389645
 H    2.859530   -0.137416    2.023530
 H    4.350609    1.086215    3.483083
 H    3.918523    2.623322    2.736228
 H    2.731932    1.747947    3.712841
 H    5.081228    0.445008    1.289506
 H    6.583011    1.973216    0.620617
 H    5.996746    3.450609   -0.186002
 H    6.045151    1.913243   -1.078069
 H    5.080030   -0.175691   -0.900542
 H    3.311546    1.610142   -1.634518
 H    2.159525    0.269005   -1.495770
 H    3.526189    0.148759   -2.597435
 H    4.069239   -1.769358    0.830699
 H    3.525029   -2.281876   -2.126000
 H    5.940793   -1.903463   -1.822530
 H    5.673256   -3.637778   -1.934206
 H    5.952491   -2.892851   -0.359407
 H    3.436185   -4.655303   -1.451816
 H    3.806482   -4.199800    0.236117
 H    2.131532   -2.995008    1.408847
 H    0.367158   -1.007362    2.056966
 H   -2.072580   -0.688908    2.307108
 H   -2.747624   -3.771385   -0.575822
 H   -0.331934   -4.058487   -0.824525
 H   -5.817918   -2.436161    0.840859
 H   -4.816726   -2.697038   -0.612253
 H   -4.701177   -3.823407    0.770079
