55 
4k4e_ligand_dft.xyz
 N   -4.293704   -1.168871    0.649865
 C   -4.180100    0.128863    0.156645
 C   -3.493943    0.443870   -1.019051
 C   -3.372479    1.776911   -1.401032
 C   -3.931781    2.811179   -0.665619
 C   -4.629475    2.490567    0.498199
 C   -4.747101    1.174696    0.908682
 O   -5.446916    0.843228    2.048017
 C   -4.655976    0.895897    3.226923
Cl   -2.480750    2.145395   -2.860732
 C   -4.059935   -2.301738   -0.222246
 C   -2.575167   -2.550857   -0.518827
 O   -2.234448   -3.164006   -1.518136
 N   -1.719560   -2.056622    0.406833
 C   -0.287477   -1.980949    0.168176
 C    0.055833   -0.858639   -0.821364
 C    1.565406   -0.748082   -1.038224
 C    0.445278   -1.782982    1.495558
 C    1.956858   -1.670476    1.288420
 C    2.290605   -0.548965    0.297160
 N    3.730581   -0.406840    0.114161
 C    4.545202   -1.415440   -0.389593
 O    4.220239   -2.540165   -0.725463
 N    5.819493   -0.870038   -0.429398
 C    5.815680    0.441288    0.017093
 C    4.485564    0.736209    0.360836
 C    4.140501    1.987854    0.846519
 C    5.156631    2.936260    0.982296
 C    6.475228    2.638681    0.641911
 C    6.824796    1.378968    0.151387
 H   -5.075811   -1.260356    1.284500
 H   -3.051325   -0.329066   -1.636700
 H   -3.830233    3.839384   -0.991784
 H   -5.095593    3.267029    1.096828
 H   -3.806099    0.203666    3.163887
 H   -4.278809    1.910817    3.401899
 H   -5.305462    0.601668    4.053309
 H   -4.560138   -2.207439   -1.195309
 H   -4.455831   -3.196682    0.266494
 H   -2.126581   -1.457074    1.112824
 H    0.013500   -2.937610   -0.272764
 H   -0.342441    0.089529   -0.430779
 H   -0.448503   -1.052972   -1.772804
 H    1.794734    0.088571   -1.706953
 H    1.947513   -1.660450   -1.509025
 H    0.216981   -2.612672    2.173379
 H    0.071768   -0.863557    1.974108
 H    2.353943   -2.611710    0.894956
 H    2.458183   -1.475026    2.242728
 H    1.951019    0.399107    0.731351
 H    6.606794   -1.396632   -0.768965
 H    3.117358    2.232447    1.111877
 H    4.909934    3.923576    1.359444
 H    7.244329    3.395507    0.757426
 H    7.849955    1.143661   -0.116163
