44 
4k4j_ligand_dft.xyz
 C   -1.110714    0.279987    1.421877
 C   -2.132087   -0.136562    2.484875
 C   -2.880547   -1.390223    2.042901
 C   -3.357422   -1.324475    0.606840
 C   -4.312107   -2.244471    0.168165
 C   -4.748546   -2.264054   -1.149085
 C   -4.214579   -1.355791   -2.060210
 C   -3.267990   -0.435264   -1.637442
 C   -2.838851   -0.384361   -0.302473
 C   -1.836194    0.620308    0.143315
 C   -1.681351    1.789954   -0.507631
 C   -0.725357    2.869399   -0.207384
 C   -1.336215    4.241508   -0.077464
 C    0.608262    2.690063   -0.098127
 C    1.309708    1.437996   -0.310361
 C    2.618926    1.264643   -0.054138
 C    3.361094    0.017375   -0.246125
 C    2.615560   -1.156123   -0.835056
 C    4.669604   -0.002400    0.083724
 C    5.632670   -1.129484   -0.049011
 O    6.758892   -0.980991   -0.446381
 O    5.206076   -2.360536    0.332380
 H   -0.408610   -0.549929    1.251666
 H   -0.520586    1.131432    1.766593
 H   -2.839384    0.687708    2.639228
 H   -1.630899   -0.315610    3.442029
 H   -3.731747   -1.583684    2.705792
 H   -2.213197   -2.258580    2.142895
 H   -4.716737   -2.959626    0.880932
 H   -5.491470   -2.989484   -1.466879
 H   -4.526374   -1.373009   -3.100166
 H   -2.830163    0.242983   -2.363475
 H   -2.378676    2.024893   -1.312133
 H   -0.576881    5.012310    0.081785
 H   -1.900838    4.499626   -0.982489
 H   -2.046512    4.273979    0.757288
 H    1.227010    3.555137    0.139521
 H    0.718575    0.615137   -0.704482
 H    3.189973    2.100875    0.348254
 H    3.270720   -1.994763   -1.074422
 H    1.828539   -1.504071   -0.154603
 H    2.121021   -0.851984   -1.763024
 H    5.146186    0.919225    0.407057
 H    4.347121   -2.278512    0.767507
