17 
4k60_ligand_xtb.xyz
 O   -4.541037   -0.890575    0.003103
 C   -3.422060   -0.448482    0.001057
 C   -2.985029    1.011757    0.003156
 N   -2.276717   -1.205643   -0.003311
 C   -1.133454   -0.430569   -0.002958
 C    0.187599   -0.832773   -0.002868
 C    1.146446    0.171792   -0.001984
Br    2.984818   -0.327481    0.001526
 C   -1.493557    0.924327   -0.000829
 C   -0.521012    1.898794   -0.001668
 C    0.815431    1.515911   -0.002635
 H   -3.380273    1.518750    0.885054
 H   -3.385939    1.523323   -0.873447
 H   -2.284444   -2.213449   -0.006902
 H    0.469141   -1.873709   -0.002806
 H   -0.782926    2.945391   -0.001232
 H    1.594956    2.261072   -0.003343
