54 
4k6i_ligand_dft.xyz
 O   -7.146351    0.237542   -0.690160
 C   -5.975675    0.825166   -1.026223
 O   -5.968043    1.783931   -1.753560
 C   -4.732790    0.216875   -0.452080
 C   -3.526674    0.443886   -1.117850
 C   -4.726179   -0.522603    0.733222
 C   -3.538430   -1.043403    1.229198
 C   -2.332445   -0.850965    0.547686
 C   -2.344181   -0.087383   -0.626882
 C   -1.057615   -1.427971    1.052521
 C   -1.023052   -2.629340    1.641212
 C    0.195629   -0.651810    0.827487
 C    0.364675    0.648827    1.334141
 C   -0.698374    1.328211    2.160742
 C    1.561946    1.296730    1.062748
 C    1.231007   -1.231010    0.101987
 C    2.442409   -0.581042   -0.158847
 C    3.510422   -1.318997   -0.972293
 C    3.714268   -2.752150   -0.449516
 C    3.059295   -1.389236   -2.444215
 C    4.860892   -0.590357   -0.864922
 C    4.727580    0.915344   -1.027873
 C    3.868648    1.557496    0.075281
 C    2.600655    0.730638    0.312193
 C    3.523648    2.986466   -0.380672
 C    4.666509    1.636872    1.391481
 H   -6.979822   -0.604204   -0.246403
 H   -3.535851    1.041897   -2.023014
 H   -5.636152   -0.654658    1.314592
 H   -3.539210   -1.578629    2.173803
 H   -1.411405    0.089994   -1.153730
 H   -1.913625   -3.242160    1.749316
 H   -0.090878   -3.038762    2.018256
 H   -1.524449    1.687691    1.536558
 H   -1.127882    0.643306    2.899428
 H   -0.284232    2.188122    2.695012
 H    1.693584    2.298142    1.464716
 H    1.070080   -2.233496   -0.284108
 H    3.928077   -2.750365    0.624740
 H    2.841439   -3.389725   -0.621268
 H    4.562852   -3.216105   -0.966084
 H    2.102576   -1.915170   -2.532733
 H    2.925965   -0.391955   -2.875313
 H    3.799895   -1.928529   -3.047085
 H    5.544559   -0.996146   -1.620983
 H    5.312762   -0.815907    0.109772
 H    4.282033    1.141531   -2.005329
 H    5.717889    1.387518   -1.026049
 H    4.442252    3.515276   -0.661110
 H    2.859576    2.970669   -1.251485
 H    3.038388    3.573174    0.405320
 H    4.962892    0.644723    1.746378
 H    5.573080    2.238440    1.253632
 H    4.067756    2.102075    2.181786
