34 
4k77_ligand_xtb.xyz
 C   -1.813088   -1.751965    0.124737
 C   -3.097856   -2.150110    0.232783
 N   -4.117956   -1.250802    0.205542
 C   -3.978755    0.122160    0.059440
 O   -4.963237    0.826444    0.044108
 C   -2.581315    0.565507   -0.064326
 C   -1.528884   -0.360624   -0.023552
 C   -0.216643    0.200834   -0.142153
 N   -0.050188    1.510963   -0.299738
 C   -1.134608    2.271156   -0.333352
 N   -2.377577    1.880824   -0.217768
 N    0.884788   -0.570051   -0.124697
 C    2.229259   -0.039645   -0.183168
 C    2.812007    0.156443    1.220002
 C    4.225949    0.721300    1.126270
 C    5.119274   -0.203928    0.305620
 C    4.535253   -0.409680   -1.088812
 C    3.120309   -0.974240   -0.999253
 H   -1.024450   -2.485486    0.142608
 H   -3.376617   -3.187054    0.344761
 H   -5.073203   -1.575119    0.291343
 H   -0.963796    3.332039   -0.463828
 H    0.789403   -1.544493    0.109391
 H    2.151706    0.933946   -0.675326
 H    2.832731   -0.804017    1.742491
 H    2.169856    0.836348    1.782247
 H    4.639807    0.847531    2.128282
 H    4.188306    1.704003    0.652359
 H    5.203966   -1.169334    0.810159
 H    6.121673    0.220538    0.227809
 H    5.167597   -1.090332   -1.662063
 H    4.507784    0.546547   -1.614849
 H    2.701306   -1.100589   -1.999478
 H    3.150930   -1.955867   -0.517566
