59 
4kao_ligand_xtb.xyz
 N   -3.564783   -0.045746    0.032583
 C   -2.356717    0.591162    0.026631
 C   -2.610841    1.941098    0.028875
 C   -4.019318    2.042107    0.027593
 N   -4.571073    0.846942    0.014758
 N   -1.169973   -0.123077   -0.058927
 C    0.084053    0.436217    0.067504
 C   -4.831738    3.303359    0.037781
 C   -4.533641    4.069052    1.332532
 C   -4.437788    4.161620   -1.170212
 C   -6.321155    2.965516   -0.032268
 C   -3.842912   -1.416504    0.033393
 C   -4.933784   -1.880874   -0.697514
 C   -5.227545   -3.227847   -0.718017
 C   -4.446660   -4.144797   -0.019525
 C   -3.379829   -3.668150    0.729067
 C   -3.079507   -2.317586    0.769488
 C   -4.773852   -5.605509   -0.066896
 O    0.270908    1.597608    0.334774
 N    1.072011   -0.502774   -0.133764
 C    2.456012   -0.325705   -0.089320
 C    3.259321   -1.438079   -0.337713
 C    4.633498   -1.331584   -0.308908
 C    5.247380   -0.110050   -0.039499
 C    4.436865    0.996688    0.205172
 C    3.060365    0.897404    0.187163
 C    6.708913    0.004356   -0.022413
 C    7.517580   -0.991780    0.523615
 C    8.891969   -0.834784    0.507571
 C    9.417810    0.319646   -0.052975
 N    8.666108    1.272086   -0.578573
 C    7.357056    1.116964   -0.564141
 H   -1.881860    2.721722    0.032904
 H   -1.267873   -1.096524   -0.310802
 H   -3.475005    4.305626    1.403554
 H   -5.099874    4.997633    1.357554
 H   -4.811358    3.470015    2.196937
 H   -5.024348    5.077713   -1.184483
 H   -3.384350    4.425854   -1.128230
 H   -4.620497    3.619426   -2.095529
 H   -6.601430    2.331556    0.803878
 H   -6.915160    3.876307   -0.003800
 H   -6.542068    2.428128   -0.950223
 H   -5.539126   -1.165073   -1.230204
 H   -6.074674   -3.580657   -1.287844
 H   -2.779352   -4.358806    1.303946
 H   -2.281353   -1.966092    1.407293
 H   -5.756055   -5.786051    0.368183
 H   -4.799049   -5.955946   -1.097816
 H   -4.039770   -6.189171    0.482540
 H    0.784904   -1.447094   -0.350051
 H    2.799852   -2.392581   -0.558181
 H    5.237933   -2.201143   -0.521992
 H    4.891899    1.948463    0.434739
 H    2.446985    1.759562    0.385729
 H    7.070297   -1.867708    0.972348
 H    9.541362   -1.588270    0.926694
 H   10.485163    0.493988   -0.085109
 H    6.788312    1.914596   -1.024674
