40 
4kb8_ligand_xtb.xyz
 N    2.156377    2.386660    0.035409
 C    1.974667   -1.089773   -0.812816
 N    1.202208    3.309683   -0.009056
 C   -0.896205    0.405878    0.070638
 C    3.561156   -0.081409    0.694695
 C   -1.719189   -1.740946    0.789319
 C    0.145004    1.380752   -0.010243
 C   -0.696007   -0.838796    0.710717
 C    1.555421    4.699649   -0.013895
 C    4.343602   -1.217730    0.641258
 C    3.924728   -2.280783   -0.141736
 C    2.752751   -2.228474   -0.878779
 C    2.362348   -0.013227   -0.014742
 F    4.673063   -3.391427   -0.194300
 N   -2.913909   -1.452799    0.252038
 C   -3.167435   -0.283764   -0.357178
 C   -2.178179    0.665184   -0.451269
 C    1.568118    1.207278    0.037178
 C   -0.013796    2.770453   -0.062881
 C   -4.558020   -0.157091   -0.920841
 N   -5.393899   -1.195456   -0.339429
 C   -6.047448   -0.780245    0.895326
 H    1.074553   -1.023963   -1.406846
 H    3.866044    0.765534    1.287939
 H   -1.611597   -2.695967    1.279520
 H    0.260127   -1.067051    1.150851
 H    2.234621    4.901718    0.814112
 H    2.069571    4.948651   -0.943512
 H    0.660409    5.309297    0.083619
 H    5.269571   -1.288911    1.188696
 H    2.472476   -3.065637   -1.497876
 H   -2.381495    1.599787   -0.948110
 H   -0.902339    3.368912   -0.076255
 H   -4.493871   -0.297319   -2.004610
 H   -4.939149    0.859411   -0.744469
 H   -3.729536   -2.079067    0.274456
 H   -6.097383   -1.503458   -1.000836
 H   -5.290756   -0.507655    1.631525
 H   -6.717152    0.075679    0.756925
 H   -6.626198   -1.615479    1.282303
