42 
4kba_ligand_xtb.xyz
 N    0.590411    3.226319    0.108148
 C    0.059829    1.098980    0.249194
 N    1.736986    2.572712   -0.008368
 C    3.789972    0.561515    0.420742
 C    2.520318    0.290251   -0.087306
 C    4.562588   -1.535334   -0.396717
 C    0.574209    4.660213    0.067587
 C    4.815950   -0.350807    0.273337
 C   -3.828996   -2.001493   -0.529731
 C   -3.838835    1.035844   -0.223874
 C   -0.651864   -0.142481    0.457202
 C   -0.078681   -1.189402    1.186505
 C   -0.782676   -2.363790    1.374893
 N   -1.977736   -2.577959    0.850493
 C    1.463427    1.282267    0.071420
 C    3.317775   -1.820555   -0.931168
 C    2.298744   -0.901139   -0.775870
 F    5.552120   -2.433674   -0.539139
 C   -0.447497    2.392017    0.250057
 C   -2.533091   -1.609158    0.134962
 C   -1.946517   -0.362459   -0.050730
 O   -2.601783    0.638835   -0.750365
 N   -4.995074   -1.183265   -0.077409
 C   -5.025030    0.174430   -0.679948
 H    3.958543    1.496501    0.930518
 H    1.173863    5.059831    0.886436
 H    1.007344    5.005775   -0.871699
 H   -0.448842    5.018723    0.153551
 H    5.801741   -0.156731    0.664476
 H   -4.001949   -3.049848   -0.279893
 H   -3.742448   -1.896905   -1.613959
 H   -4.007002    2.049303   -0.600237
 H   -3.806201    1.069619    0.874715
 H    0.903254   -1.065649    1.612621
 H   -0.379205   -3.176931    1.959489
 H    3.163848   -2.745025   -1.464558
 H    1.330633   -1.101481   -1.211049
 H   -1.448137    2.751700    0.376989
 H   -4.953324   -1.108590    0.948203
 H   -5.860338   -1.677829   -0.321869
 H   -4.993602    0.068636   -1.766516
 H   -5.952867    0.673241   -0.395414
