45 
4kc2_ligand_xtb.xyz
 O   -3.286536    2.174400   -0.446311
 C   -2.116268    1.920958   -0.618762
 N   -1.162174    2.370343    0.297911
 C    0.186616    2.153623    0.285762
 O    0.924444    2.649081    1.113619
 C   -1.529773    1.173095   -1.708429
 C   -0.211265    0.915450   -1.716320
 N    0.633550    1.332568   -0.728404
 C    2.075283    1.029278   -0.798453
 O    2.314570    0.029597   -1.733846
 C    2.635112    0.557800    0.570805
 O    3.404034    1.526851    1.209807
 C    3.514040   -0.649157    0.195865
 O    4.849026   -0.278192    0.005006
 C    2.925345   -1.118968   -1.141342
 C    1.930712   -2.293762   -1.028002
 N    0.648482   -1.906607   -0.499647
 C    0.362380   -1.848056    0.817020
 O    1.142459   -2.149015    1.700795
 C   -1.019899   -1.340263    1.086060
 C   -1.361205   -0.871753    2.345629
 C   -2.645391   -0.378342    2.536511
 C   -3.533177   -0.389638    1.477772
 C   -3.102990   -0.892023    0.249340
 N   -1.873124   -1.344862    0.061781
 C   -4.022078   -0.956163   -0.939451
 O   -3.374848   -1.392250   -2.104618
 H   -1.502306    2.951914    1.056710
 H   -2.178792    0.811768   -2.486952
 H    0.273066    0.362847   -2.507455
 H    2.592547    1.952639   -1.107443
 H    1.808701    0.222454    1.208706
 H    2.796090    2.232603    1.486540
 H    3.438790   -1.427620    0.965981
 H    5.018550    0.479925    0.583384
 H    3.747634   -1.416306   -1.800221
 H    1.775526   -2.724156   -2.018602
 H    2.366147   -3.046860   -0.366434
 H   -0.082658   -1.616012   -1.132796
 H   -0.628847   -0.898447    3.136450
 H   -2.944405    0.006774    3.500019
 H   -4.537776   -0.012436    1.579869
 H   -4.864578   -1.624564   -0.694491
 H   -4.427884    0.040857   -1.138056
 H   -2.686781   -2.011711   -1.826354
