62 
4kcg_ligand_xtb.xyz
 C   -7.774512   -3.353033    1.685919
 S   -7.698356   -1.958205    0.543040
 O   -8.527899   -0.904781    1.044106
 O   -7.927195   -2.443493   -0.788456
 N   -6.103619   -1.481491    0.742732
 C   -5.163916   -2.094407   -0.176219
 C   -3.861593   -1.298734   -0.187359
 O   -4.197968    0.017392   -0.562676
 C   -3.222749    0.968980   -0.571694
 C   -1.883426    0.737288   -0.351404
 C   -3.677662    2.283374   -0.836803
 O   -5.017062    2.406846   -1.019267
 C   -5.543219    3.679987   -1.303539
 C   -2.757892    3.318984   -0.884169
 C   -1.411745    3.077496   -0.666889
 C   -0.961999    1.792834   -0.396191
 C    0.429642    1.503646   -0.158771
 N    0.901715    0.342361    0.142350
 S    1.668717    2.753034   -0.251587
 C    2.855792    1.554894    0.148522
 C    4.288877    1.916686    0.305864
 C    4.532320    2.726912    1.586595
 C    4.168583    1.937986    2.838435
 C    2.244694    0.340864    0.322253
 C    2.909175   -0.940249    0.672791
 S    3.630168   -1.788963   -0.797268
 C    5.348830   -1.670651   -0.484939
 N    6.096519   -2.331440   -1.345899
 N    5.763447   -0.955018    0.546627
 C    7.087843   -0.900938    0.744842
 N    7.502134   -0.199253    1.834545
 C    7.976111   -1.565284   -0.094664
 C    7.419000   -2.279771   -1.156774
 N    8.179374   -2.915211   -2.082886
 H   -7.467144   -2.990442    2.656450
 H   -8.795672   -3.710306    1.711583
 H   -7.110991   -4.123451    1.319122
 H   -6.057101   -0.472641    0.668821
 H   -5.587259   -2.128418   -1.187238
 H   -4.968039   -3.116060    0.158867
 H   -3.159003   -1.744620   -0.903011
 H   -3.409841   -1.304215    0.813624
 H   -1.502338   -0.248913   -0.147481
 H   -5.356027    4.384469   -0.486403
 H   -5.133910    4.085545   -2.234429
 H   -6.616408    3.534357   -1.414365
 H   -3.081038    4.327173   -1.087587
 H   -0.709511    3.896759   -0.706300
 H    4.608743    2.509531   -0.555010
 H    4.881406    1.000107    0.334506
 H    3.937509    3.642667    1.549675
 H    5.585820    3.014692    1.623064
 H    3.106118    1.705076    2.846019
 H    4.717522    0.998837    2.876102
 H    4.400088    2.511484    3.733271
 H    2.168732   -1.627489    1.076934
 H    3.743372   -0.805437    1.356956
 H    6.827077    0.407851    2.267762
 H    8.468687    0.068288    1.891751
 H    9.040921   -1.522606    0.063841
 H    7.690171   -3.515911   -2.723674
 H    9.140729   -3.118711   -1.876589
