57 
4kcx_ligand_xtb.xyz
 C   -0.104798   -0.728347   -0.062508
 N    2.097963    0.336762   -0.185928
 C    2.911473   -0.849688   -0.164214
 C    4.645984    0.498305    1.076805
 C    6.966236    0.015427    0.735212
 C   -2.085569   -2.835576    0.578651
 C   -3.975617   -3.824791   -0.698017
 C   -3.805750   -1.319370   -0.266110
 C   -4.184015   -0.107687    1.949143
 C   -3.176257    4.353547    0.397254
 C   -2.707961    3.773807   -0.939018
 C   -1.405655    3.059642   -0.802582
 C   -0.118646    3.596729   -0.889969
 N    0.836631    2.696382   -0.695877
 N    0.177784    1.550951   -0.472137
 C   -1.194821    1.711196   -0.526164
 N   -2.028078    0.685508   -0.335693
 C   -1.513937   -0.517813   -0.109373
 C    0.742346    0.337305   -0.241453
 C    4.339037   -0.511078    0.168640
 C    5.981285    0.752646    1.347037
 N    6.669223   -0.972356   -0.142613
 C    5.366493   -1.217756   -0.419179
 O    7.574205   -1.641485   -0.690493
 N   -2.401255   -1.533766    0.042569
 C   -2.482781   -3.932923   -0.408144
 C   -4.290798   -2.424838   -1.216256
 C   -4.683143   -1.196811    0.989355
 O   -4.193430    1.173190    1.388814
 H    0.311570   -1.708637    0.076599
 H    2.512323    1.193284   -0.530612
 H    2.521456   -1.519338    0.612854
 H    2.871826   -1.390131   -1.121966
 H    3.862919    1.062774    1.554494
 H    8.018891    0.171677    0.911240
 H   -2.641258   -2.979873    1.514412
 H   -1.026447   -2.902726    0.817674
 H   -4.271852   -4.567724   -1.440774
 H   -4.540384   -4.024832    0.214284
 H   -3.859269   -0.366861   -0.800970
 H   -4.849339   -0.064641    2.817031
 H   -3.174966   -0.367340    2.306149
 H   -2.414638    5.010966    0.811955
 H   -4.090409    4.925937    0.257828
 H   -3.376370    3.555194    1.106810
 H   -3.460605    3.076436   -1.311356
 H   -2.594334    4.582580   -1.665558
 H    0.152649    4.614283   -1.096198
 H    6.262448    1.528757    2.040736
 H    5.195588   -2.011343   -1.131138
 H   -2.240776   -4.910080    0.012524
 H   -1.918340   -3.807429   -1.334526
 H   -5.364095   -2.311904   -1.373157
 H   -3.793896   -2.289427   -2.179900
 H   -4.729103   -2.141525    1.531737
 H   -5.693328   -0.940258    0.667694
 H   -3.520984    1.192639    0.678666
