65 
4kfp_ligand_xtb.xyz
 C   -0.245394    2.815147   -0.384483
 C   -1.376820    2.778160   -1.182244
 C   -2.018806    1.570876   -1.433611
 C   -3.263117    1.508249   -2.285429
 C   -7.729474   -0.385995    0.575181
 C   -9.604796   -1.130761    1.816864
 C   -8.347691   -2.748392    0.787033
 C    3.107711    0.002427   -0.429737
 C    4.334637    1.697793    0.939264
 C   -1.524630    0.396483   -0.868940
 C   -0.402249    0.428349   -0.062217
 C    0.226235    1.639003    0.165281
 N   -4.419244    1.081902   -1.525129
 C   -4.764851   -0.225400   -1.463904
 O   -4.148045   -1.101349   -2.025182
 N   -5.909506   -0.510211   -0.699846
 C   -6.745739    0.357400   -0.038205
 C   -8.848775   -0.082324    1.384249
 N   -9.362753   -2.432231    1.526758
 C   -7.466011   -1.771148    0.263567
 C   -6.337658   -1.798383   -0.523947
 S    1.688394    1.700623    1.187773
 O    1.853152    3.007919    1.747439
 O    1.742273    0.559870    2.063940
 C    3.136229    1.443328    0.040818
 C    4.459244   -0.437961   -0.981931
 N    5.523439   -0.260109    0.039206
 C    5.642346    1.189631    0.345068
 C    6.808484   -0.953644   -0.356093
 C    8.003862   -0.513616    0.490257
 C    9.236633   -1.350503    0.095764
 O    9.006211   -2.720225    0.261438
 C    7.964616   -3.170027   -0.557194
 C    6.641122   -2.467591   -0.205673
 H    0.260560    3.740482   -0.159777
 H   -1.760471    3.692516   -1.608887
 H   -3.120312    0.765629   -3.077261
 H   -3.474871    2.480897   -2.733666
 H  -10.474503   -0.974516    2.440099
 H   -8.197102   -3.800273    0.581255
 H    2.349315   -0.135550   -1.201055
 H    2.830815   -0.620707    0.425536
 H    4.141640    1.200669    1.894538
 H    4.415222    2.764244    1.148772
 H   -2.027237   -0.537444   -1.068490
 H   -0.022549   -0.463323    0.410088
 H   -4.887233    1.764028   -0.952813
 H   -6.619283    1.420937   -0.048031
 H   -9.086981    0.937304    1.643514
 H   -5.806054   -2.611799   -0.973458
 H    3.060844    2.161560   -0.772466
 H    4.730723    0.159123   -1.855439
 H    4.407933   -1.485547   -1.277298
 H    5.191478   -0.710251    0.902412
 H    6.440250    1.347280    1.068713
 H    5.888746    1.715065   -0.579660
 H    6.995399   -0.695952   -1.404436
 H    7.799611   -0.684586    1.548689
 H    8.256596    0.533024    0.328884
 H   10.077939   -1.100097    0.742455
 H    9.509202   -1.129487   -0.947422
 H    7.878093   -4.243004   -0.384049
 H    8.203574   -2.995773   -1.617359
 H    5.864637   -2.868174   -0.855706
 H    6.396795   -2.708017    0.831500
