21 
4kfq_ligand_dft.xyz
 O    0.082922    3.584845    0.000229
 C    0.229146    2.383564    0.003020
 C   -0.870922    1.400999   -0.019998
 N   -2.151976    1.672061   -0.027387
 N   -2.807457    0.487216   -0.022637
 C   -1.921101   -0.484544   -0.008714
 S   -2.406379   -2.178116   -0.035225
 N   -0.646235    0.043421   -0.015523
 C    0.662478   -0.506327   -0.014015
 C    0.936136   -1.872989   -0.051262
 C    2.248507   -2.322197   -0.042125
 C    3.301378   -1.411355    0.002223
 C    3.039408   -0.051883    0.030644
 C    1.722976    0.414818    0.019794
 N    1.470688    1.782059    0.037194
 H   -2.306460   -2.383049    1.291075
 H    0.121796   -2.581976   -0.099518
 H    2.445229   -3.388242   -0.072532
 H    4.328846   -1.759677    0.010724
 H    3.853541    0.666596    0.059070
 H    2.252558    2.423630    0.054016
