47 
4kln_ligand_dft.xyz
 P    3.412304   -0.388240   -0.084314
 S    5.089435   -0.471095   -1.295561
 O    4.074025   -0.084022    1.313727
 O    2.438108   -1.489171   -0.203553
 P    1.164256    1.337747   -0.739246
 O    0.467479    0.407233   -1.632595
 O    1.171910    2.860640   -1.165835
 O    2.717771    1.076863   -0.461905
 P    0.451280    0.397155    1.988505
 O    1.743855    0.048829    2.612846
 O   -0.531208    1.120233    2.982015
 O    0.537313    1.447178    0.764495
 O   -0.328180   -0.796567    1.283836
 C   -0.249738   -2.154539    1.753240
 C   -1.164626   -3.023927    0.900192
 O   -2.517349   -2.536977    0.932800
 C   -0.806897   -3.121090   -0.580636
 O   -1.310497   -4.341101   -1.070682
 C   -1.571729   -1.942067   -1.172306
 O   -1.907950   -2.181468   -2.510160
 C   -2.808922   -1.840111   -0.244737
 N   -3.066263   -0.421580    0.104626
 C   -3.113384    0.048446    1.382972
 N   -2.850650    1.331206    1.494999
 C   -2.608819    1.730459    0.191568
 C   -2.050570    2.904725   -0.344231
 N   -1.782187    3.987407    0.408815
 N   -1.729985    2.924922   -1.651090
 C   -2.034617    1.847820   -2.400760
 N   -2.548742    0.693094   -2.009325
 C   -2.752469    0.663506   -0.683018
 H    4.409519   -1.031201   -2.310281
 H    3.351061   -0.008308    1.992805
 H    0.305282    3.083708   -1.578097
 H   -1.423430    1.320831    2.587099
 H   -0.578885   -2.190323    2.796528
 H    0.785550   -2.496542    1.675177
 H   -1.173788   -4.024802    1.341546
 H    0.272360   -3.018702   -0.751343
 H   -1.502168   -4.191819   -2.008346
 H   -0.949283   -1.052616   -1.073138
 H   -2.105071   -1.308954   -2.887889
 H   -3.701302   -2.260354   -0.713474
 H   -3.289236   -0.620142    2.211787
 H   -1.242303    4.737099    0.005489
 H   -1.839675    3.924181    1.412693
 H   -1.793996    1.937506   -3.455566
