26 
4klv_ligand_xtb.xyz
 C    3.383169    2.611796   -0.074429
 O    4.633186   -2.069037   -0.068127
 P   -3.462857   -0.021830   -0.162008
 C    3.076915    1.151102   -0.035031
 O    2.477256   -1.585514    0.036532
 C    4.055969    0.220972   -0.074144
 O   -2.143576   -0.857837    0.278096
 C    3.795247   -1.204206   -0.038628
 O   -3.343573    0.729477   -1.400711
 C    1.475216   -0.685243    0.075180
 O   -3.869007    0.822863    1.114331
 C    1.706289    0.701369    0.045168
 O   -4.529338   -1.201969   -0.136927
 C    0.598675    1.555436    0.093459
 C   -0.682535    1.060335    0.168693
 C   -0.892737   -0.316463    0.187630
 C    0.179349   -1.189335    0.143737
 H    4.456154    2.773522   -0.124944
 H    2.917419    3.070620   -0.945109
 H    2.995326    3.103947    0.815933
 H    5.097862    0.494042   -0.134794
 H   -4.135583    0.269414    1.849120
 H   -4.599207   -1.610500   -0.998210
 H    0.748972    2.622474    0.072039
 H   -1.534585    1.720744    0.200634
 H    0.023583   -2.255268    0.160091
