128 
4kmu_ligand_dft.xyz
 C   -1.708228   -2.783794   -1.200088
 C   -0.415598   -2.776099   -0.428814
 C   -0.430677   -2.494732    0.927294
 C   -1.602291   -1.871716    1.426977
 C   -4.000976   -1.142610    1.107274
 C   -5.197223   -1.113675    0.321877
 C   -5.319027   -1.735260   -0.919825
 C   -4.148568   -2.325377   -1.384504
 C   -2.915150   -2.341200   -0.647748
 C   -2.860293   -1.751759    0.642579
 C   -4.316851   -0.362958    2.312730
 C   -5.740671    0.206851    2.148233
 C   -6.663200   -0.229082    3.261713
 C   -6.596251   -1.725100   -1.712147
 C    2.020965   -2.702636   -1.100497
 C    2.775920   -2.828067   -2.408606
 C    3.920384   -1.807413   -2.445388
 C    3.463885   -0.359956   -2.249776
 C    4.631073    0.628337   -2.240158
 C    4.259901    2.107169   -2.010331
 C    4.152259    2.520868   -0.525878
 C    3.073806    1.877404    0.366356
 C    1.648328    1.720943   -0.219415
 C    0.720852    2.952660   -0.101782
 C   -0.744932    2.573731   -0.371171
 C   -1.767308    3.707441   -0.209169
 C   -3.241645    3.231392   -0.269753
 C   -3.693366    2.353429    0.901474
 C   -5.212087    2.198696    0.861442
 C    3.279170   -4.277311   -2.560838
 C    5.281082    3.015720   -2.711672
 C    3.051522    2.560638    1.738588
 C    1.199715    4.095954   -1.001084
 C   -1.534966    4.505118    1.082508
 C   -1.082071    0.852351   -2.036198
 C   -1.388082    0.634482   -3.486913
 C   -3.679999    3.291109   -2.611246
 C    7.697975   -0.043758    1.342896
 C    5.915316    0.130682    3.047705
 C    4.519334   -0.374104    3.362161
 C    5.303729   -2.305950    2.091782
 C    5.551568   -1.269506    0.999859
 C    0.682192   -2.790974    1.938348
 N    0.641756   -3.094492   -1.208960
 N    1.428184   -1.654909    2.440246
 N    4.445382   -1.812953    3.156642
 N    6.227632   -0.045426    1.579309
 O   -1.588550   -3.271555   -2.392370
 O   -4.103555   -2.917731   -2.585282
 O   -6.177135   -0.450035    0.880180
 O   -3.612928   -0.182900    3.290918
 O   -5.786541    1.556003    2.012824
 O   -3.570871    2.500061   -1.439802
 O   -0.849917    2.110948   -1.753849
 O   -1.059914   -0.061769   -1.208388
 O    1.105228    0.599525    0.482400
 O    5.392530    2.240022    0.156085
 O    2.481344   -2.303942   -0.065283
 O   -1.545379   -1.449917    2.634879
 H   -6.324739    0.230501    4.193068
 H   -6.667963   -1.316096    3.374370
 H   -7.672319    0.120370    3.034242
 H   -6.976400   -2.740447   -1.876770
 H   -6.468607   -1.227694   -2.681091
 H   -7.372560   -1.180015   -1.173079
 H    2.083445   -2.606319   -3.232816
 H    4.432393   -1.917296   -3.407744
 H    4.649434   -2.075609   -1.672161
 H    2.766553   -0.083453   -3.054151
 H    2.909444   -0.290656   -1.310570
 H    5.365160    0.327392   -1.480500
 H    5.153206    0.548767   -3.200752
 H    3.284588    2.306935   -2.473765
 H    4.015805    3.608754   -0.502462
 H    3.392197    0.836350    0.513558
 H    1.724768    1.466686   -1.284471
 H    0.737200    3.278204    0.942736
 H   -1.019013    1.743580    0.283713
 H   -1.632925    4.392672   -1.054168
 H   -3.846973    4.153084   -0.250433
 H   -3.188028    1.382867    0.808058
 H   -3.405132    2.796833    1.858234
 H   -5.534421    1.688944   -0.049493
 H   -5.682847    3.182990    0.874636
 H    2.464947   -5.009218   -2.552232
 H    3.974748   -4.529931   -1.755212
 H    3.806254   -4.378962   -3.512661
 H    5.250593    2.866190   -3.794160
 H    6.306586    2.792496   -2.392598
 H    5.083747    4.076211   -2.521009
 H    2.820400    3.627773    1.649823
 H    4.025934    2.488976    2.225596
 H    2.305940    2.100766    2.394002
 H    2.170537    4.475168   -0.675412
 H    1.291304    3.772903   -2.043211
 H    0.515397    4.947474   -0.980581
 H   -0.644459    5.133816    1.015678
 H   -1.416051    3.853791    1.955287
 H   -2.380113    5.172232    1.278111
 H   -2.450968    0.846588   -3.644173
 H   -0.818096    1.318318   -4.118025
 H   -1.183598   -0.399954   -3.766575
 H   -2.697324    3.598994   -2.988332
 H   -4.175456    2.676839   -3.366410
 H   -4.292215    4.183861   -2.432339
 H    8.128992   -0.955837    1.759392
 H    8.135762    0.826794    1.833883
 H    7.883742    0.002952    0.268880
 H    6.659757   -0.435556    3.612979
 H    6.034561    1.192073    3.273381
 H    4.304616   -0.132796    4.408527
 H    3.792475    0.188586    2.751491
 H    4.844484   -3.182270    1.628017
 H    6.267005   -2.645976    2.496662
 H    6.192898   -1.647398    0.200229
 H    4.602869   -0.945413    0.566217
 H    1.360232   -3.516636    1.492797
 H    0.203986   -3.290889    2.786633
 H    0.396606   -3.416422   -2.139164
 H    0.901959   -1.155222    3.148161
 H    1.651902   -0.998439    1.695975
 H    3.470528   -2.066955    3.002025
 H    5.848794    0.781730    1.077261
 H   -2.454582   -3.322365   -2.862691
 H   -4.960386   -2.925636   -3.044918
 H    0.342856    0.271842   -0.022065
 H    6.060303    2.873096   -0.135853
 H   -2.361976   -0.947770    3.006506
