37 
4knm_ligand_xtb.xyz
 C   -0.929583   -1.202277    1.153388
 C    1.122870   -1.181420   -0.101079
 C    0.468464   -1.672601   -1.212794
Cl    1.311536   -0.372620    2.420935
 C    0.437166   -0.967057    1.082811
 S    2.856836   -0.738912   -0.119240
 O    3.596149   -1.618605    0.731605
 N    3.269761   -1.070519   -1.721013
 O    2.978729    0.678705    0.052587
 C   -1.597613   -1.631425    0.013830
 C   -0.896855   -1.892022   -1.159832
 C   -3.096306   -1.697939    0.006454
 O   -3.739279   -2.677985    0.263643
 C   -3.719489   -0.375330   -0.387811
 S   -3.210799    0.945171    0.770382
 C   -1.695885    1.450988    0.034372
 N   -1.463370    1.092787   -1.216083
 C   -0.308324    1.491771   -1.746553
 C   -0.041704    1.099323   -3.163112
 C    0.598359    2.232808   -1.004227
 C    0.262945    2.535885    0.315004
 N   -0.902414    2.150696    0.821567
 C    1.202503    3.259423    1.211720
 H   -1.459125   -1.020220    2.074830
 H    1.030360   -1.850719   -2.114736
 H    3.843847   -1.897262   -1.779987
 H    3.736945   -0.281039   -2.137978
 H   -1.425033   -2.246651   -2.031101
 H   -4.805566   -0.438399   -0.354628
 H   -3.360380   -0.061387   -1.369067
 H    0.935153    0.626778   -3.239889
 H   -0.810754    0.415715   -3.510290
 H   -0.042726    1.985120   -3.796932
 H    1.544943    2.538538   -1.415223
 H    1.412268    4.253449    0.820826
 H    0.776873    3.338846    2.207181
 H    2.138582    2.703197    1.245824
