31 
4knn_ligand_dft.xyz
 O   -4.672701    0.388066    0.046562
 C    3.501821   -2.519768   -1.331674
 C    0.417986    1.050315    1.019186
 C   -1.480715    0.901642   -0.464339
Cl   -2.232175    1.417545   -1.943450
 C   -0.227672    1.421343   -0.158096
 C   -0.203556    0.159321    1.892923
 C   -1.444434   -0.373737    1.581798
 C   -2.093441   -0.007684    0.403219
 S   -3.703932   -0.692044    0.000116
 N   -4.013876   -1.692040    1.305522
 O   -3.548031   -1.546070   -1.163550
 C    1.747787    1.611613    1.433394
 O    2.021618    1.710099    2.608935
 C    2.752931    2.136225    0.405504
 S    2.934026    1.285374   -1.190510
 C    3.148145   -0.390871   -0.676293
 N    3.073842   -0.678704    0.619915
 C    3.222686   -1.965036    0.944114
 C    3.443462   -2.948393   -0.008009
 N    3.357561   -1.244322   -1.681092
 H    3.670043   -3.222110   -2.144772
 H    0.224401    2.118848   -0.852620
 H    0.299424   -0.108456    2.815288
 H   -1.929640   -1.075591    2.248676
 H   -4.833077   -1.366210    1.808323
 H   -4.110250   -2.652483    0.992194
 H    3.712403    2.183112    0.922908
 H    2.469578    3.160740    0.133264
 H    3.160163   -2.199841    2.003961
 H    3.562655   -3.990688    0.261374
