60 
4knr_ligand_xtb.xyz
 C   -5.690180   -4.266440    0.308096
 O   -6.457031   -3.097226    0.185439
 C   -5.813238   -1.903466    0.088149
 C   -4.452336   -1.726500    0.083203
 C   -3.884702   -0.441297   -0.020275
 C   -4.740029    0.684170   -0.113098
 C   -6.133834    0.487453   -0.109623
 C   -6.669218   -0.767658   -0.014937
 O   -8.003363   -1.000353   -0.010673
 N   -4.264702    1.943318   -0.205312
 C   -2.965413    2.092796   -0.208340
 N   -2.063825    1.110530   -0.131154
 C   -2.483681   -0.136648   -0.040863
 N   -1.573225   -1.144528    0.025385
 C   -0.182966   -1.107732    0.029547
 C    0.493542   -2.328610   -0.006595
 C    1.871411   -2.368724   -0.004964
 C    2.612803   -1.188975    0.036807
 C    1.939182    0.027805    0.081996
 C    0.560236    0.068831    0.078431
 N    4.007266   -1.288759    0.014736
 C    4.941539   -0.301991    0.146816
 O    4.691709    0.867102    0.355485
 C    6.344813   -0.803542    0.027406
 C    7.323064   -0.212852    0.821270
 C    8.638159   -0.629801    0.735789
 C    8.991630   -1.626762   -0.158814
 C    8.027680   -2.200897   -0.971068
 C    6.707989   -1.796067   -0.878336
 C   -2.433696    3.498316   -0.320702
 C   -0.943778    3.551786   -0.152667
 C   -0.380448    3.614573    1.115574
 C    0.993719    3.623658    1.277662
 C    1.825468    3.571305    0.171794
 C    1.272433    3.509986   -1.096016
 C   -0.102168    3.499725   -1.255969
 H   -5.049623   -4.423861   -0.566948
 H   -5.073510   -4.252018    1.213792
 H   -6.407863   -5.082111    0.377054
 H   -3.812383   -2.591811    0.165186
 H   -6.766993    1.359105   -0.184178
 H   -8.476782   -0.162065   -0.083827
 H   -1.959267   -2.077199    0.043736
 H   -0.064840   -3.254806   -0.039286
 H    2.378941   -3.323489   -0.037373
 H    2.497488    0.947057    0.122115
 H    0.048080    1.013515    0.107281
 H    4.358179   -2.232901   -0.070655
 H    7.031201    0.572194    1.502400
 H    9.390223   -0.174101    1.362374
 H   10.019503   -1.950115   -0.231363
 H    8.305692   -2.964502   -1.682710
 H    5.970981   -2.231356   -1.539530
 H   -2.937142    4.105623    0.434567
 H   -2.726015    3.884422   -1.300343
 H   -1.026198    3.651691    1.981819
 H    1.418224    3.669207    2.270101
 H    2.897908    3.570574    0.297565
 H    1.915487    3.465929   -1.963065
 H   -0.528278    3.446248   -2.247949
