109 
4kom_ligand_xtb.xyz
 C    4.428455   -2.713525   -0.821438
 C    4.835838   -1.324530   -0.261839
 C    5.312597   -1.393456    1.190542
 C    6.817084   -1.655746    1.214651
 C    7.543737   -0.454325    0.577374
 C    6.828794   -0.010067   -0.723396
 C    6.214811    1.409912   -0.639837
 C    7.204706    2.564494   -0.924728
 C    8.348836    2.786864    0.076246
 C    9.432956   -1.800386   -0.343804
 C   10.917343   -1.679380   -0.618492
 N    8.948404   -0.741243    0.360431
 O    3.549651   -2.858684   -1.627006
 O    5.176162   -3.689200   -0.352835
 O    7.201053   -1.806117    2.560573
 O    5.855139   -0.956295   -1.154950
 O    5.227921    1.573420   -1.637443
 O    7.799577    2.383241   -2.189006
 O    9.448169    1.952365   -0.181179
 O    8.770790   -2.757264   -0.682218
 C   -9.146043   -1.010210   -1.696602
 C   -8.060727    0.004908   -1.279730
 C   -7.224348   -0.625458   -0.155918
 C   -8.157565   -1.066827    0.987511
 C   -9.308602   -1.927976    0.442819
 C  -10.371874   -2.198684    1.515117
 O   -9.929381   -0.504854   -2.718094
 O   -7.333437    0.300185   -2.442697
 O   -6.312893    0.313909    0.425567
 O   -8.680320    0.055648    1.645956
 O   -9.986829   -1.297360   -0.622576
 O  -11.398700   -3.006296    1.014573
 C   -5.025411    0.304089   -0.079817
 C   -4.269379    1.481124    0.556371
 C   -2.823383    1.485029    0.038327
 C   -2.186853    0.108638    0.291360
 C   -3.087037   -1.021497   -0.235835
 C   -2.539872   -2.384655    0.209317
 C   -5.538543    3.190000   -0.765774
 C   -5.951821    4.642554   -0.694014
 N   -4.903469    2.763960    0.345328
 O   -2.125378    2.509733    0.700191
 O   -0.932159    0.029508   -0.370123
 O   -4.393805   -0.904451    0.292821
 O   -2.523903   -2.493967    1.607040
 O   -5.793850    2.482365   -1.723438
 C    0.175484   -0.016240    0.454641
 C    1.378549   -0.443850   -0.399018
 C    2.686522   -0.261626    0.399425
 C    2.752487    1.153606    1.018958
 C    1.478528    1.403604    1.836649
 C    1.426254    2.829483    2.404277
 O    1.153041   -1.780322   -0.731441
 O    3.784111   -0.404223   -0.497490
 O    2.854074    2.146917    0.043422
 O    0.338384    1.265030    1.017804
 O    0.291434    3.032337    3.195975
 H    4.808792   -2.193215    1.731244
 H    5.112852   -0.449830    1.701418
 H    7.038815   -2.559517    0.637322
 H    7.506423    0.360162    1.308906
 H    7.545981   -0.026122   -1.552905
 H    5.770640    1.564219    0.356318
 H    6.579896    3.471333   -0.930570
 H    8.020155    2.599025    1.099238
 H    8.663564    3.836189   -0.001091
 H   11.088707   -0.895238   -1.352858
 H   11.454726   -1.425167    0.291158
 H   11.287487   -2.620974   -1.012901
 H    9.533208    0.085707    0.402707
 H    4.976972   -4.534334   -0.792299
 H    8.120810   -2.090866    2.583422
 H    4.835663    0.701439   -1.814895
 H    7.080952    2.228837   -2.815834
 H    9.583976    1.986899   -1.139504
 H   -8.634482   -1.943295   -2.027788
 H   -8.563059    0.898860   -0.883155
 H   -6.667873   -1.484302   -0.545439
 H   -7.571739   -1.674329    1.698200
 H   -8.883785   -2.882225    0.084870
 H  -10.755762   -1.231079    1.858907
 H   -9.925600   -2.732077    2.356212
 H   -9.345335    0.034433   -3.270573
 H   -6.787381    1.093380   -2.292270
 H   -7.957553    0.691725    1.727467
 H  -11.699611   -2.596038    0.193123
 H   -5.007107    0.383333   -1.178574
 H   -4.253388    1.305588    1.638547
 H   -2.828875    1.670453   -1.047966
 H   -2.056589   -0.025188    1.373094
 H   -3.109127   -0.967426   -1.333958
 H   -1.508924   -2.486184   -0.135725
 H   -3.156032   -3.175988   -0.236552
 H   -6.465084    4.914929   -1.611555
 H   -6.619333    4.797218    0.150510
 H   -5.076338    5.275564   -0.570007
 H   -4.623466    3.465517    1.013764
 H   -1.177431    2.341932    0.564699
 H   -3.423166   -2.324855    1.916114
 H    0.045236   -0.761846    1.264764
 H    1.415345    0.199252   -1.288777
 H    2.721866   -1.019194    1.189169
 H    3.616960    1.200836    1.706926
 H    1.429410    0.670334    2.658427
 H    1.463498    3.529117    1.561226
 H    2.290096    2.995578    3.050435
 H    1.871524   -2.092429   -1.308317
 H    3.551209    1.913838   -0.594912
 H   -0.492229    2.876844    2.652434
