47 
4kot_ligand_dft.xyz
 C    0.457541   -2.431484    0.289309
 C   -0.965481   -2.166884    0.867701
 S    0.742275   -1.994435   -1.451186
 C    2.510393   -1.598845   -1.207489
 C    2.757135   -0.562205   -0.139233
 C    2.025242   -0.534024    0.986196
 N    0.985770   -1.432815    1.225641
 C   -0.262608   -1.142058    1.791640
 O   -0.585729   -0.310459    2.590356
 N   -1.866919   -1.514310   -0.042287
 C   -3.148398   -1.248851    0.383832
 O   -3.712284   -1.858927    1.266057
 C   -3.784610   -0.082411   -0.359961
 N   -4.918900   -0.139425   -0.954263
 O   -5.498167   -1.375337   -0.893624
 C   -6.712642   -1.357483   -1.623891
 C   -3.100875    1.229972   -0.348152
 N   -1.725239    1.278725   -0.189327
 C   -1.297911    2.507151   -0.192556
 N    0.014234    2.867844   -0.094069
 S   -2.558869    3.710506   -0.411108
 C   -3.724837    2.428896   -0.481414
 C    3.842838    0.427583   -0.434685
 O    5.009352   -0.329877   -0.796022
 C    6.050931    0.398714   -1.247996
 O    6.023915    1.600810   -1.340345
 C    7.214509   -0.488970   -1.603027
 C    2.181539    0.515977    2.043398
 O    2.350617   -0.007865    3.254666
 O    2.167847    1.707373    1.818761
 H    0.858408   -3.426682    0.493176
 H   -1.456785   -3.008311    1.355192
 H    2.867417   -1.227313   -2.171592
 H    3.066590   -2.518552   -0.998280
 H   -1.442917   -0.727517   -0.531100
 H   -7.135804   -2.355828   -1.503132
 H   -7.401065   -0.609139   -1.218258
 H   -6.529971   -1.153105   -2.684294
 H    0.207095    3.819379    0.180434
 H    0.627935    2.198928    0.360037
 H   -4.779960    2.619084   -0.604428
 H    4.074783    1.083715    0.405132
 H    3.558879    1.065732   -1.279694
 H    6.908149   -1.232303   -2.344269
 H    8.026482    0.120681   -1.998330
 H    7.554126   -1.029166   -0.714467
 H    2.338530    0.726911    3.889896
