45 
4kow_ligand_dft.xyz
 C   -1.911137   -1.341018    0.279827
 O   -2.346736   -1.512175    1.384934
 N   -0.641331   -1.554205   -0.246086
 C   -0.956382   -1.109575   -1.591109
 S    0.109980    0.229641   -2.207334
 C    1.695693   -0.248735   -1.448064
 C    1.684128   -0.967679   -0.125690
 C    0.600824   -1.570731    0.391321
 C    3.007042   -0.920555    0.601709
 C    0.630710   -2.279703    1.704705
 O    1.277013   -1.919189    2.663721
 O   -0.113138   -3.389235    1.692576
 C   -2.399061   -0.744657   -1.084523
 O   -3.336125   -1.434286   -1.815510
 C   -4.657959   -1.449656   -1.285470
 N   -2.590562    0.688881   -0.965479
 C   -3.249253    1.286580    0.097389
 O   -4.182789    0.783321    0.682446
 C   -2.652504    2.638530    0.499647
 C   -1.222026    2.441852    0.934578
 S    0.090587    3.315693    0.216603
 C    1.263022    2.420624    1.111763
 C    0.666967    1.504084    1.927419
 C   -0.754866    1.514408    1.823765
 O    4.106944   -1.000357   -0.312742
 C    4.741675    0.160804   -0.600066
 O    4.403858    1.257910   -0.204241
 N    5.787386   -0.079530   -1.432140
 H   -0.987345   -1.933084   -2.305815
 H    2.221771    0.701739   -1.310114
 H    2.270934   -0.837732   -2.168990
 H    3.077955    0.020387    1.153859
 H    3.129937   -1.746736    1.298389
 H   -0.109506   -3.739469    2.597722
 H   -5.213304   -2.151668   -1.909204
 H   -5.114426   -0.457718   -1.339719
 H   -4.662858   -1.782284   -0.243588
 H   -1.785238    1.216220   -1.288287
 H   -2.712095    3.340125   -0.340516
 H   -3.271185    3.032489    1.309173
 H    2.319866    2.610302    0.975782
 H    1.212540    0.822664    2.570580
 H   -1.406802    0.838900    2.367799
 H    6.423416    0.682180   -1.600978
 H    6.115337   -1.023009   -1.561129
