42 
4kox_ligand_dft.xyz
 S   -0.236108   -1.187243   -1.066666
 C   -2.042324   -1.138444   -0.815515
 C   -2.567730    0.002482    0.029553
 C   -3.885260   -0.293143    0.691478
 O   -4.709159   -0.936526   -0.295134
 C   -5.802598   -1.569675    0.177667
 O   -6.090740   -1.612245    1.347372
 C   -6.583619   -2.196512   -0.947624
 C   -1.915376    1.173234    0.162705
 C   -2.408353    2.298397    1.012223
 O   -3.106660    2.172371    1.991511
 O   -1.998036    3.486145    0.550375
 N   -0.717396    1.418816   -0.520784
 C   -0.128948    0.564374   -1.539502
 C    1.245911    1.239382   -1.239625
 C    0.513424    1.878112   -0.041329
 O    0.824563    2.460281    0.957514
 N    2.377990    0.433547   -0.942122
 C    3.455072    0.385232   -1.782105
 O    3.506393    1.005481   -2.827949
 C    4.595827   -0.543523   -1.355272
 C    4.551529   -1.060426    0.050866
 C    3.886970   -2.162508    0.516203
 C    3.996012   -2.331812    1.928328
 C    4.741195   -1.352763    2.513815
 S    5.317598   -0.213998    1.356049
 H   -2.300024   -2.085265   -0.331656
 H   -2.546322   -1.142216   -1.787088
 H   -4.386533    0.596134    1.069584
 H   -3.742356   -0.974672    1.537585
 H   -6.919396   -1.422264   -1.643614
 H   -5.948347   -2.888931   -1.507261
 H   -7.444326   -2.725295   -0.539301
 H   -2.301085    4.149479    1.190698
 H   -0.551855    0.720894   -2.534378
 H    1.524640    1.954876   -2.016665
 H    2.408336   -0.081874   -0.072945
 H    4.572778   -1.387334   -2.054357
 H    5.523333   -0.003170   -1.564024
 H    3.333093   -2.831268   -0.134427
 H    3.541441   -3.147802    2.477142
 H    4.987338   -1.236472    3.560202
