66 
4kqo_ligand_dft.xyz
 S   -1.956437   -1.573566    1.617489
 O   -1.903042   -2.941717   -2.707978
 O   -5.690399   -1.055698   -1.170831
 O   -5.994443    0.635993    0.290282
 O   -1.565986    0.351481   -2.102884
 O    2.452328    0.968899   -2.695887
 O    2.391487   -0.649152    0.753641
 O    4.578213   -1.947691    1.642272
 N   -3.129847   -1.306808   -0.772933
 N   -0.059354   -0.689502   -0.764517
 N    1.529479    1.543058   -0.695750
 N    3.637709    0.527188   -0.768019
 N    5.943239   -0.619866    0.381527
 C   -2.035258   -2.124706   -0.107176
 C   -3.734095   -1.083995    1.604125
 C   -3.854179   -0.434034    0.204632
 C   -0.702988   -1.981033   -0.861009
 C   -0.897007   -2.397131   -2.328272
 C   -4.656964   -2.296772    1.761518
 C   -3.974830   -0.056332    2.708770
 C   -5.297760   -0.198954   -0.214712
 C   -0.535579    0.387435   -1.416533
 C    0.190060    1.718114   -1.211321
 C   -0.664801    2.555812   -0.276109
 C    2.501448    1.018268   -1.486556
 C   -1.328747    3.681913   -0.757303
 C   -0.820162    2.181130    1.062222
 C    4.922704    0.572269   -1.479122
 C    6.044312    0.560214   -0.463041
 C    3.475077   -0.365629    0.263513
 C   -2.133403    4.436574    0.091371
 C   -1.613213    2.946372    1.912607
 C    4.741583   -1.055971    0.836102
 C    7.155814   -1.148493    1.008874
 C   -2.274293    4.072482    1.427161
 C    7.575375   -0.347664    2.238033
 H   -6.620536   -0.873131   -1.389410
 H   -2.669768   -0.687665   -1.494836
 H   -3.776882   -1.925764   -1.269773
 H    0.785479   -0.608365   -0.190568
 H    1.670126    1.563776    0.303844
 H   -2.349232   -3.166876   -0.174099
 H   -3.343248    0.533083    0.212695
 H   -0.007496   -2.707715   -0.422029
 H   -0.045048   -2.178631   -2.995937
 H   -5.704939   -1.976788    1.758800
 H   -4.461287   -2.791317    2.715382
 H   -4.527205   -3.040983    0.968179
 H   -3.811849   -0.511373    3.689661
 H   -5.007285    0.300516    2.662766
 H   -3.308595    0.803887    2.600752
 H    0.245758    2.187877   -2.195820
 H   -1.215013    3.971188   -1.797799
 H   -0.329889    1.290377    1.450929
 H    5.003711   -0.275401   -2.166857
 H    4.948623    1.489909   -2.067735
 H    7.000203    0.521025   -0.991915
 H    6.030223    1.482374    0.133960
 H   -2.643311    5.314610   -0.291297
 H   -1.708206    2.667618    2.957913
 H    7.943794   -1.146457    0.249249
 H    6.949833   -2.184787    1.280407
 H   -2.893463    4.667909    2.090238
 H    6.791116   -0.383097    2.999325
 H    8.486999   -0.772701    2.667588
 H    7.777971    0.699351    1.988845
