67 
4kqq_ligand_xtb.xyz
 S   -3.065168   -1.762674    0.607545
 O   -4.782908   -1.483163   -2.786001
 O    1.200323   -3.878575    1.207393
 O    1.382186   -2.341157   -0.423989
 O   -0.150961    0.127795   -1.165508
 O    1.501950    3.078136   -1.710262
 O    1.960288    0.147117    1.025191
 O    3.841307   -1.590864   -0.039964
 N   -1.082366   -2.278130   -1.091224
 N   -2.351188    0.595253   -1.175089
 N    0.576429    2.226030    0.186297
 N    2.787435    1.726172   -0.402100
 N    5.167263    0.227857   -0.310831
 C   -2.512121   -1.908671   -1.138555
 C   -1.504029   -2.504682    1.315528
 C   -0.786911   -3.107696    0.094625
 C   -2.743282   -0.589924   -1.905984
 C   -4.229225   -0.540268   -2.305630
 C   -0.710869   -1.393389    1.986291
 C   -1.869489   -3.594427    2.309656
 C    0.746165   -3.163780    0.366472
 C   -1.076384    0.906161   -0.928379
 C   -0.785860    2.268954   -0.293350
 C   -1.808588    2.590963    0.770893
 C    1.568790    2.404169   -0.714783
 C   -2.974096    3.258288    0.405986
 C   -1.638229    2.191157    2.089371
 C    3.954883    2.120840   -1.178704
 C    5.201474    1.671966   -0.432407
 C    2.819903    0.537022    0.256586
 C   -3.954695    3.519667    1.347162
 C   -2.619749    2.458920    3.028862
 C    4.010009   -0.373475   -0.051382
 C    6.391321   -0.535395   -0.480324
 C   -3.780144    3.117295    2.660526
 C    7.363901   -0.294445    0.667324
 O   -4.785600    0.634673   -2.064630
 H    2.360750   -2.193140   -0.182241
 H   -0.500422   -1.344792   -1.075161
 H   -0.786654   -2.765655   -1.941147
 H   -3.083161    1.244647   -0.912722
 H    0.771015    1.528283    0.903054
 H   -3.096958   -2.698310   -1.624641
 H   -1.153980   -4.126885   -0.069914
 H   -2.170485   -0.639951   -2.846557
 H    0.110203   -1.815488    2.561125
 H   -1.357601   -0.844563    2.666221
 H   -0.291426   -0.701300    1.262703
 H   -2.335863   -3.160612    3.189715
 H   -0.964086   -4.115864    2.614368
 H   -2.560046   -4.312011    1.872706
 H   -0.821804    3.021811   -1.092799
 H   -3.104196    3.600066   -0.611733
 H   -0.736441    1.685518    2.397080
 H    3.922653    3.205583   -1.294694
 H    3.917890    1.670867   -2.177938
 H    5.241345    2.144706    0.556237
 H    6.094623    1.953495   -0.991195
 H   -4.850087    4.046111    1.055321
 H   -2.473966    2.153555    4.053497
 H    6.106944   -1.588350   -0.518101
 H    6.847744   -0.254594   -1.433778
 H   -4.541503    3.325009    3.395754
 H    7.675604    0.746276    0.709137
 H    8.246403   -0.911092    0.526646
 H    6.904562   -0.562774    1.615275
 H   -5.720706    0.644740   -2.332838
