67 
4kqq_ligand_dft.xyz
 S   -3.207142   -2.266317    0.510673
 O   -4.801419   -1.650686   -2.614310
 O    1.270543   -3.271878    1.649987
 O    1.493863   -2.571099   -0.490836
 O   -0.183072    0.224314   -1.524952
 O    1.594463    3.283128   -1.445709
 O    1.955832   -0.058712    0.867907
 O    3.933999   -1.647706   -0.130178
 N   -0.995942   -2.314596   -0.999388
 N   -2.367582    0.453175   -1.039967
 N    0.548136    2.118021    0.224194
 N    2.816962    1.720313   -0.314487
 N    5.219020    0.210928   -0.395544
 C   -2.476115   -2.070193   -1.148701
 C   -1.579525   -2.444906    1.381591
 C   -0.680681   -3.039919    0.279856
 C   -2.744895   -0.703627   -1.817512
 C   -4.222332   -0.674721   -2.215676
 C   -1.069204   -1.102028    1.907475
 C   -1.759394   -3.439962    2.531299
 C    0.824405   -2.969213    0.575595
 C   -1.094575    0.892892   -1.025538
 C   -0.778412    2.239913   -0.337551
 C   -1.837293    2.675442    0.655954
 C    1.606203    2.443903   -0.573105
 C   -3.002035    3.285455    0.181068
 C   -1.699787    2.443392    2.024437
 C    4.001663    2.223093   -1.022727
 C    5.251525    1.670241   -0.369454
 C    2.841423    0.448279    0.200761
 C   -4.022150    3.640718    1.059348
 C   -2.716067    2.807025    2.902548
 C    4.071957   -0.424485   -0.132955
 C    6.465514   -0.536889   -0.578971
 C   -3.881170    3.399056    2.422549
 C    7.359992   -0.468308    0.654322
 O   -4.761502    0.537780   -2.086847
 H    2.440923   -2.326866   -0.250474
 H   -0.479705   -1.401584   -1.068444
 H   -0.636394   -2.851852   -1.792385
 H   -3.085801    0.987154   -0.565497
 H    0.716200    1.303778    0.808962
 H   -2.883899   -2.840359   -1.804848
 H   -0.957393   -4.087196    0.122702
 H   -2.176329   -0.676483   -2.758516
 H   -0.136855   -1.245674    2.460126
 H   -1.813557   -0.654784    2.570446
 H   -0.876985   -0.392825    1.100499
 H   -2.454856   -3.037417    3.273357
 H   -0.793555   -3.605964    3.014370
 H   -2.151615   -4.397394    2.176918
 H   -0.713083    2.980381   -1.143651
 H   -3.107503    3.498152   -0.880893
 H   -0.788228    2.003523    2.417233
 H    3.987239    3.311142   -0.960928
 H    3.955475    1.945323   -2.080732
 H    5.357378    2.042537    0.656839
 H    6.125829    1.998236   -0.936384
 H   -4.917403    4.121836    0.678748
 H   -2.592535    2.634149    3.966923
 H    6.189766   -1.567564   -0.803030
 H    6.971506   -0.120535   -1.456253
 H   -4.669677    3.684897    3.111054
 H    7.633161    0.563598    0.898474
 H    8.284285   -1.023006    0.471247
 H    6.858853   -0.911757    1.519353
 H   -5.691090    0.480658   -2.367805
