67 
4kqr_ligand_xtb.xyz
 S   -3.071030   -1.764658    0.604662
 O   -4.780390   -1.481832   -2.792252
 O    1.197551   -3.865601    1.221443
 O    1.381987   -2.343423   -0.423869
 O   -0.150530    0.128207   -1.170143
 O    1.505029    3.079546   -1.708293
 O    1.961012    0.143332    1.022414
 O    3.841886   -1.593498   -0.043901
 N   -1.082485   -2.277963   -1.089130
 N   -2.350704    0.594378   -1.175230
 N    0.577954    2.223222    0.185712
 N    2.789188    1.724475   -0.401936
 N    5.168557    0.225045   -0.312575
 C   -2.512405   -1.909293   -1.139910
 C   -1.507731   -2.497137    1.317560
 C   -0.788155   -3.103479    0.099931
 C   -2.742324   -0.590244   -1.907175
 C   -4.227884   -0.540198   -2.308074
 C   -0.718667   -1.379840    1.983158
 C   -1.870102   -3.583236    2.316804
 C    0.744649   -3.158044    0.373721
 C   -1.075703    0.906006   -0.930429
 C   -0.784249    2.268032   -0.293851
 C   -1.806970    2.589641    0.770645
 C    1.570890    2.403369   -0.714306
 C   -2.978754    3.244683    0.403130
 C   -1.630801    2.201173    2.091711
 C    3.957226    2.120490   -1.176953
 C    5.203475    1.669377   -0.431431
 C    2.821079    0.534287    0.254811
 C   -3.960109    3.504057    1.343997
 C   -2.612980    2.467439    3.030983
 C    4.011053   -0.376159   -0.053923
 C    6.392365   -0.538474   -0.482968
 C   -3.779838    3.112671    2.659909
 C    7.363237   -0.302964    0.667252
 O   -4.785446    0.633404   -2.063233
 H    2.360771   -2.194841   -0.183062
 H   -0.500815   -1.344726   -1.075763
 H   -0.785253   -2.768026   -1.937073
 H   -3.083026    1.242591   -0.910669
 H    0.772442    1.523208    0.900373
 H   -3.095629   -2.698911   -1.627868
 H   -1.154411   -4.123379   -0.061986
 H   -2.168576   -0.639860   -2.847171
 H    0.104164   -1.796221    2.559674
 H   -1.367225   -0.830160    2.660677
 H   -0.302053   -0.689546    1.256279
 H   -2.337942   -3.146693    3.194733
 H   -0.963138   -4.100370    2.624183
 H   -2.558400   -4.305006    1.883171
 H   -0.819522    3.021666   -1.092674
 H   -3.113094    3.579279   -0.616472
 H   -0.723983    1.706104    2.401793
 H    3.925647    3.205571   -1.290052
 H    3.920433    1.673093   -2.177363
 H    5.243613    2.140177    0.558144
 H    6.096791    1.951577   -0.989674
 H   -4.860708    4.020285    1.049928
 H   -2.462607    2.170857    4.057538
 H    6.107271   -1.591062   -0.525362
 H    6.850622   -0.254164   -1.434455
 H   -4.541764    3.318810    3.394918
 H    7.674285    0.737701    0.715054
 H    8.246275   -0.918392    0.524543
 H    6.902588   -0.576561    1.613039
 H   -5.720459    0.643404   -2.331768
