45 
4ks1_ligand_xtb.xyz
 C   -2.168172   -2.966112    1.993034
 C   -3.019402   -2.163012    1.017652
 C   -2.184397   -1.541405   -0.100872
 C   -3.049639   -0.905355   -1.198394
 C   -3.651020   -1.936526   -2.145432
 O   -1.354369   -0.536283    0.511302
 C   -0.107708   -0.307574   -0.089366
 C    0.972869   -1.296030    0.355417
 C    2.319379   -0.845406   -0.107418
 C    3.367434   -1.912975   -0.161548
 O    3.118612   -3.082549   -0.067721
 O    4.596907   -1.423782   -0.322168
 C    2.581756    0.399708   -0.495117
 C    1.576737    1.517362   -0.468677
 N    2.171200    2.733865    0.137013
 C    0.325359    1.117863    0.323408
 N   -0.830911    1.978601    0.112366
 C   -0.927592    3.299183    0.205853
 O    0.059321    4.055759    0.311509
 C   -2.305198    3.870908    0.163878
 H   -2.793194   -3.386852    2.775291
 H   -1.663949   -3.782578    1.481405
 H   -1.419667   -2.329004    2.456923
 H   -3.529893   -1.359454    1.550783
 H   -3.772708   -2.810348    0.571026
 H   -1.542790   -2.311282   -0.545806
 H   -3.846778   -0.324510   -0.729410
 H   -2.429646   -0.216058   -1.780898
 H   -4.312198   -2.615644   -1.615696
 H   -2.868865   -2.521689   -2.623410
 H   -4.227995   -1.438480   -2.919921
 H   -0.195792   -0.339765   -1.187044
 H    0.960883   -1.381356    1.445624
 H    0.782290   -2.296451   -0.036890
 H    5.246976   -2.145233   -0.358780
 H    3.567142    0.660331   -0.852342
 H    1.286270    1.779316   -1.494363
 H    2.598493    2.526101    1.040309
 H    2.876195    3.155760   -0.466517
 H    1.218805    3.479154    0.280511
 H    0.565663    1.099761    1.395853
 H   -1.684009    1.421128    0.131545
 H   -2.956701    3.302955   -0.493676
 H   -2.726167    3.849762    1.169077
 H   -2.260587    4.908246   -0.157130
