49 
4ks2_ligand_dft.xyz
 C   -5.562038   -0.166983   -0.248581
 C   -4.187998    0.104510   -0.857197
 C   -3.025560   -0.184981    0.089272
 C   -2.982174   -1.618387    0.632634
 C   -2.918172   -2.688718   -0.455332
 O   -1.843686    0.119203   -0.649317
 C   -0.706091    0.440641    0.126687
 C   -0.587059    1.933123    0.261032
 C    0.557744    2.606564    0.115763
 C    0.607526    4.085173    0.235592
 O   -0.575202    4.652262    0.548602
 O    1.610342    4.743179    0.065825
 C    1.866629    1.941827   -0.219464
 C    1.837402    0.424539   -0.010387
 N    3.008283   -0.153833   -0.635784
 C    3.673701   -1.288195   -0.188414
 N    3.550741   -1.933446    0.907751
 N    4.606236   -1.727885   -1.138288
 C    0.520628   -0.166545   -0.564719
 N    0.496270   -1.618616   -0.524499
 C    0.509684   -2.350583    0.621275
 O    0.457434   -1.831114    1.732446
 C    0.654433   -3.843303    0.440360
 H   -6.355566    0.171270   -0.921792
 H   -5.719394   -1.234831   -0.063083
 H   -5.686708    0.358909    0.705314
 H   -4.110499    1.155671   -1.157015
 H   -4.053766   -0.485891   -1.771005
 H   -3.101504    0.504657    0.946826
 H   -3.859607   -1.776681    1.271487
 H   -2.111998   -1.713850    1.291690
 H   -2.112009   -2.462319   -1.159299
 H   -2.727446   -3.674062   -0.017968
 H   -3.854482   -2.753001   -1.020732
 H   -0.781467   -0.000233    1.127667
 H   -1.508086    2.464797    0.483605
 H   -0.407595    5.606584    0.588899
 H    2.114765    2.162213   -1.268055
 H    2.677371    2.378915    0.369949
 H    1.884808    0.212359    1.061108
 H    3.042769   -0.035698   -1.640172
 H    2.773133   -1.607840    1.476598
 H    5.188659   -0.984268   -1.506401
 H    5.174251   -2.462948   -0.735053
 H    0.446686    0.108176   -1.624687
 H    0.583140   -2.110131   -1.398818
 H    1.724704   -4.072825    0.491886
 H    0.150840   -4.348996    1.265433
 H    0.255261   -4.203853   -0.512231
