58 
4ks3_ligand_xtb.xyz
 C    2.394022   -3.046761   -2.074187
 C    2.844893   -3.346252   -0.648198
 C    3.286424   -2.109026    0.153397
 C    4.113897   -2.537020    1.373340
 C    4.633781   -1.352588    2.177693
 O    2.157922   -1.379207    0.630799
 C    1.777367   -0.239138   -0.106109
 C    0.322456    0.077732    0.284434
 N   -0.535637   -1.087540    0.226326
 C   -0.931661   -1.707129   -0.911602
 C   -1.737787   -2.959170   -0.666308
 O   -0.695891   -1.270262   -2.022627
 C    2.643522    0.986467    0.216196
 C    2.000808    2.274569   -0.204620
 C    2.897283    3.453829   -0.180489
 O    2.297787    4.595321   -0.547023
 O    4.061963    3.412712    0.129929
 C    0.721421    2.382811   -0.563277
 C   -0.191578    1.204619   -0.632387
 N   -1.542761    1.527881   -0.262127
 C   -2.669565    1.086523   -0.862624
 N   -1.846558    2.135356    0.879823
 N   -3.117107    2.108426    1.033250
 C   -3.686045    1.466610   -0.010904
 C   -5.136643    1.145562   -0.089629
 C   -5.331573   -0.374228   -0.047138
 C   -4.856508   -0.963590    1.279373
 O   -4.635043   -2.352657    1.107440
 H    3.167317   -2.500727   -2.611576
 H    2.206610   -3.978017   -2.604572
 H    1.477824   -2.464101   -2.094513
 H    2.035407   -3.830807   -0.099123
 H    3.686652   -4.040753   -0.686468
 H    3.901828   -1.462401   -0.485504
 H    3.483969   -3.160475    2.009781
 H    4.954150   -3.140138    1.025989
 H    5.251645   -0.706630    1.557912
 H    5.232356   -1.701899    3.015447
 H    3.802598   -0.771368    2.566628
 H    1.813946   -0.445943   -1.183194
 H    0.304360    0.437652    1.317813
 H   -0.658661   -1.582990    1.093761
 H   -2.680046   -2.708662   -0.179217
 H   -1.950505   -3.440708   -1.616342
 H   -1.186962   -3.646376   -0.028417
 H    2.815550    1.020256    1.295878
 H    3.625335    0.907938   -0.254943
 H    2.933980    5.326482   -0.501919
 H    0.302006    3.339767   -0.833536
 H   -0.227590    0.821612   -1.661660
 H   -2.657698    0.565039   -1.795467
 H   -5.556478    1.536090   -1.018994
 H   -5.646190    1.617697    0.750982
 H   -6.381401   -0.625285   -0.201290
 H   -4.754940   -0.840872   -0.847824
 H   -3.920881   -0.475429    1.588613
 H   -5.606421   -0.784175    2.059331
 H   -4.534324   -2.763813    1.971601
