58 
4ks4_ligand_xtb.xyz
 C   -6.351270   -1.362738   -0.627398
 C   -4.966758   -1.015408   -1.157863
 C   -3.892943   -0.990844   -0.066202
 C   -3.684903   -2.333536    0.652619
 C   -3.397781   -3.484921   -0.303979
 O   -2.674044   -0.581880   -0.686917
 C   -1.865953    0.293130    0.067210
 C   -0.402980    0.058607   -0.348782
 N   -0.034398   -1.341781   -0.276212
 C    0.079924   -2.046673    0.874754
 C    0.364177   -3.515760    0.655211
 O    0.002955   -1.542326    1.978084
 C   -2.235932    1.756748   -0.205310
 C   -1.168810    2.714923    0.227191
 C   -1.581629    4.138008    0.268608
 O   -0.596351    4.974450    0.623118
 O   -2.694139    4.527356    0.015646
 C    0.069612    2.342076    0.547159
 C    0.508447    0.913531    0.549106
 N    1.873501    0.774895    0.113179
 C    2.907267    0.219402    0.784190
 N    2.260032    1.128194   -1.105715
 N    3.494769    0.827610   -1.247893
 C    3.955589    0.260039   -0.109948
 C    5.359462   -0.243777   -0.012278
 C    5.441462   -1.657609   -0.624368
 C    4.660846   -2.685901    0.182184
 O    6.254451    0.636638   -0.648035
 H   -7.087684   -1.265428   -1.421249
 H   -6.386699   -2.382968   -0.255126
 H   -6.629817   -0.691212    0.181854
 H   -4.667629   -1.720387   -1.932723
 H   -4.989882   -0.022816   -1.611985
 H   -4.184593   -0.244186    0.686465
 H   -4.564235   -2.555514    1.257756
 H   -2.838180   -2.213826    1.333767
 H   -2.630376   -3.189169   -1.015720
 H   -3.054442   -4.356478    0.249439
 H   -4.289570   -3.767215   -0.856988
 H   -1.956019    0.070484    1.139413
 H   -0.270359    0.376998   -1.386566
 H   -0.086013   -1.855134   -1.140591
 H    0.552567   -3.991049    1.613507
 H    1.232474   -3.640864    0.012165
 H   -0.492021   -3.991734    0.183253
 H   -3.175314    2.018311    0.286296
 H   -2.401169    1.872894   -1.280765
 H   -0.926923    5.886726    0.623506
 H    0.807930    3.074214    0.837682
 H    0.456110    0.515511    1.571924
 H    2.820376   -0.143300    1.785737
 H    5.668052   -0.285262    1.038834
 H    5.058213   -1.612470   -1.646959
 H    6.494817   -1.938835   -0.668305
 H    4.742337   -3.667492   -0.278662
 H    5.047635   -2.749297    1.196830
 H    3.607832   -2.415451    0.235676
 H    5.855298    0.892826   -1.489761
