19 
4kwg_ligand_xtb.xyz
Br   -2.379009   -1.190255    0.000136
 C   -0.993931    0.119303   -0.000159
 C   -1.299164    1.473926   -0.000058
 C   -0.302662    2.446977   -0.000146
 C   -0.683928    3.894573    0.000088
 C    1.032954    2.053697   -0.000267
 C    0.330096   -0.272469   -0.000301
 N    0.879352   -1.539979   -0.000329
 C    2.250447   -1.504971   -0.000158
 O    2.982625   -2.456214   -0.000044
 C    2.630997    0.003981    0.000127
 C    1.339076    0.703987   -0.000315
 O    3.745483    0.452310    0.000646
 H   -2.335872    1.776432    0.000151
 H   -1.281282    4.130128   -0.879383
 H   -1.281027    4.129848    0.879808
 H    0.199445    4.526294    0.000073
 H    1.828859    2.781912   -0.000322
 H    0.331579   -2.388621   -0.000457
