18 
4kww_ligand_xtb.xyz
 O   -2.097178    1.344266    0.474600
 O   -0.825450    2.683375   -0.726226
 C   -1.027494   -1.507584    0.006271
 O   -0.995279   -2.593524   -0.766547
 O   -2.007313   -1.263190    0.669369
 C   -0.958420    1.651196   -0.121046
 C    1.425656   -1.374970    0.110195
 C    0.214741   -0.681751    0.032477
 C    0.227490    0.720606    0.018840
 C    1.458420    1.374998    0.054956
 C    2.647973    0.679367    0.150434
 C    2.631374   -0.705308    0.186435
 H   -2.151480    0.421462    0.816181
 H   -0.175884   -2.675286   -1.274696
 H    1.420311   -2.456287    0.154272
 H    1.454125    2.453068    0.004168
 H    3.584467    1.213600    0.193473
 H    3.551775   -1.263304    0.265668
