72 
4kx8_ligand_xtb.xyz
 N    2.107046   -0.325807    0.808846
 C    2.284827   -1.677893    0.229048
 C    3.777286   -1.941104    0.034257
 C    4.550327   -2.173049    1.342726
 C    4.162792   -3.497745    1.994203
 C    6.049131   -2.151574    1.048647
 C    1.493080   -1.762357   -1.089808
 O    1.740700   -0.669652   -1.943825
 C   -0.024352   -1.816571   -0.791011
 O   -0.427480   -2.143374    0.309009
 N   -0.779220   -1.509675   -1.847790
 C   -2.239055   -1.403677   -1.837744
 C   -2.559488   -0.200182   -0.934899
 O   -2.644755    0.920207   -1.402340
 C   -2.929025   -2.725664   -1.469863
 C   -2.571936   -3.795467   -2.500699
 C   -4.440303   -2.517854   -1.420952
 N   -2.653787   -0.461744    0.381193
 C   -2.637702    0.641041    1.328492
 C   -1.222479    1.200004    1.217285
 O   -0.233770    0.603599    1.641197
 C   -3.043555    0.201951    2.745380
 C   -4.554305   -0.015032    2.796196
 C   -2.308895   -1.051556    3.217794
 N   -1.109731    2.330954    0.513167
 C    0.164547    2.900151    0.166857
 C    0.056014    4.426311    0.175768
 O    1.258297    4.990705    0.145526
 C    0.624475    2.434779   -1.240133
 C    2.122038    2.532566   -1.357932
 O    2.883399    1.784717   -0.774305
 O    2.524044    3.500185   -2.141203
 O   -0.981322    5.018675    0.188514
 H    1.113751   -0.115768    1.102186
 H    2.696120   -0.239984    1.640649
 H    2.399960    0.417557    0.120637
 H    1.841662   -2.409636    0.910494
 H    3.906306   -2.825628   -0.591501
 H    4.218924   -1.090225   -0.491966
 H    4.337481   -1.360932    2.049696
 H    4.362638   -4.325030    1.317887
 H    3.111893   -3.524754    2.270907
 H    4.747525   -3.652252    2.896547
 H    6.310293   -2.940364    0.347738
 H    6.349879   -1.197188    0.622462
 H    6.615604   -2.308739    1.961887
 H    1.744946   -2.714112   -1.581328
 H    2.631512   -0.736819   -2.306214
 H   -0.300184   -1.199117   -2.679898
 H   -2.537338   -1.119388   -2.851055
 H   -2.575517   -3.062327   -0.491960
 H   -3.056997   -4.733084   -2.244375
 H   -1.498184   -3.966481   -2.531088
 H   -2.906811   -3.498982   -3.492169
 H   -4.810672   -2.201633   -2.393263
 H   -4.934414   -3.448039   -1.154564
 H   -4.712347   -1.761631   -0.689460
 H   -2.301145   -1.346086    0.727948
 H   -3.345150    1.394834    0.967151
 H   -2.782541    1.031051    3.411887
 H   -4.850501   -0.334611    3.791204
 H   -5.089564    0.900789    2.558530
 H   -4.851028   -0.783445    2.086293
 H   -2.689739   -1.941113    2.721542
 H   -1.242328   -0.971148    3.032514
 H   -2.463193   -1.179053    4.285799
 H   -1.924133    2.772609    0.105813
 H    0.896503    2.586622    0.921198
 H    1.190753    5.960537    0.128684
 H    0.334251    1.390427   -1.370888
 H    0.145822    3.035268   -2.012367
 H    3.492372    3.578789   -2.187732
