47 
4kxb_ligand_xtb.xyz
 N    1.408390    0.298562   -0.878762
 C    1.446718   -0.833754    0.088793
 C    2.749173   -1.607125   -0.125774
 C    3.921061   -0.683026    0.091794
 C    4.421709   -0.477710    1.371444
 C    4.475127    0.021166   -0.973807
 C    5.463591    0.407822    1.581773
 C    5.519594    0.907126   -0.761901
 C    6.011485    1.104376    0.516627
 C    0.169721   -1.657394   -0.175904
 O    0.100483   -1.956275   -1.556873
 C   -0.992381   -0.740460    0.282789
 O   -0.993708   -0.292843    1.406423
 N   -1.875583   -0.439070   -0.682752
 C   -2.767300    0.695865   -0.549519
 C   -3.792045    0.522317    0.582348
 C   -4.725629   -0.674480    0.367735
 C   -5.547858   -0.889866    1.636517
 C   -5.653247   -0.466168   -0.826805
 C   -1.916409    1.944144   -0.342070
 O   -0.706842    1.962324   -0.489899
 O   -2.612917    3.003717   -0.028991
 H    1.234233   -0.112807   -1.806195
 H    0.621925    0.973901   -0.670989
 H    2.325317    0.772280   -0.875593
 H    1.399139   -0.436169    1.106622
 H    2.767876   -2.019265   -1.136899
 H    2.791445   -2.433761    0.582856
 H    4.001365   -1.023582    2.202752
 H    4.131822   -0.160422   -1.984562
 H    5.852210    0.550814    2.577725
 H    5.951285    1.435888   -1.597506
 H    6.827014    1.790480    0.680997
 H    0.177866   -2.551658    0.451117
 H   -0.003962   -2.901309   -1.697404
 H   -1.746383   -0.865274   -1.588848
 H   -3.300989    0.826367   -1.496079
 H   -4.381365    1.436770    0.649826
 H   -3.248530    0.391482    1.518263
 H   -4.116706   -1.568878    0.194249
 H   -4.899302   -1.063119    2.491477
 H   -6.201967   -1.750039    1.523434
 H   -6.163006   -0.017295    1.841490
 H   -5.105076   -0.415642   -1.765230
 H   -6.223923    0.451792   -0.707992
 H   -6.355032   -1.292583   -0.899746
 H   -2.060903    3.793202    0.107305
