50 
4kxl_ligand_xtb.xyz
 C   -5.054190    0.418549   -1.314663
 C   -6.420785    0.982002   -0.917439
 C   -6.455522    0.818905    0.599050
 C   -5.829621   -0.558488    0.801796
 C   -4.696259   -0.631310   -0.236661
 N   -3.422086   -0.337560    0.373216
 C   -2.309069   -1.051523    0.186238
 N   -2.340706   -2.171648   -0.549375
 C   -1.231671   -2.860231   -0.733229
 N   -0.015772   -2.604451   -0.278711
 C    0.022333   -1.493842    0.468600
 C   -1.072601   -0.669625    0.746933
 N   -0.658845    0.395097    1.513134
 C    0.619817    0.203753    1.697746
 N    1.092520   -0.916597    1.090740
 C    2.453807   -1.368639    0.911498
 O    3.373693   -0.448918    1.405552
 C    2.723676   -1.561310   -0.606054
 O    2.684493   -2.895883   -1.003194
 C    4.125799   -0.959332   -0.775259
 O    5.128458   -1.914589   -0.584707
 C    4.167583    0.084264    0.352263
 C    3.670247    1.470427   -0.070272
 O    2.339778    1.397768   -0.560601
 P    1.414499    2.671135   -0.248123
 O   -0.040954    2.158703   -0.571261
 O    1.733183    3.628938   -1.480198
 O    1.626746    3.284923    1.064230
 H   -5.065520   -0.018303   -2.310811
 H   -4.302209    1.209040   -1.306262
 H   -6.547348    2.016190   -1.232761
 H   -7.216595    0.386765   -1.366786
 H   -7.463339    0.883045    1.005286
 H   -5.844035    1.588271    1.073177
 H   -5.453665   -0.711492    1.812159
 H   -6.567573   -1.332259    0.590922
 H   -4.593754   -1.631092   -0.660970
 H   -3.333308    0.511622    0.910732
 H   -1.328110   -3.748740   -1.342963
 H    1.252368    0.853729    2.268182
 H    2.573941   -2.326484    1.444240
 H    2.006105   -0.951958   -1.171688
 H    1.756760   -3.188216   -0.902755
 H    4.236192   -0.483859   -1.759147
 H    4.757064   -2.770470   -0.845699
 H    5.186666    0.180243    0.738920
 H    3.687231    2.134743    0.799264
 H    4.323137    1.874042   -0.849482
 H   -0.431371    1.742337    0.216035
 H    1.519671    4.532800   -1.252625
