50 
4kxl_ligand_dft.xyz
 C   -5.617963    1.265174   -0.777305
 C   -6.223534    1.326813    0.646987
 C   -6.136967   -0.119823    1.205761
 C   -5.671988   -0.987390    0.024475
 C   -4.806550   -0.034318   -0.811715
 N   -3.502909    0.193320   -0.196210
 C   -2.482983   -0.678783   -0.242470
 N   -2.604400   -1.819433   -0.944040
 C   -1.559021   -2.649491   -1.004174
 N   -0.362299   -2.526055   -0.432204
 C   -0.278509   -1.389827    0.282529
 C   -1.260850   -0.423973    0.418410
 N   -0.805782    0.639280    1.174681
 C    0.423567    0.294352    1.497439
 N    0.798660   -0.915587    0.987990
 C    2.134978   -1.512092    0.949308
 O    3.042473   -0.649439    1.561790
 C    2.582485   -1.721935   -0.518141
 O    2.424306   -3.036616   -0.967647
 C    4.066566   -1.366383   -0.444711
 O    4.807100   -2.479535   -0.010576
 C    4.101386   -0.306486    0.657159
 C    3.951542    1.135980    0.206772
 O    2.715275    1.296856   -0.500529
 P    1.915502    2.680950   -0.349916
 O    0.471822    2.312265   -0.903401
 O    2.546373    3.544666   -1.545262
 O    1.977379    3.295965    0.989279
 H   -6.412632    1.190003   -1.526167
 H   -5.016187    2.142814   -1.035094
 H   -5.667356    2.022975    1.283595
 H   -7.253558    1.692699    0.616282
 H   -7.087236   -0.465060    1.621765
 H   -5.399236   -0.169427    2.013351
 H   -5.127038   -1.886266    0.322429
 H   -6.527664   -1.302852   -0.585181
 H   -4.636460   -0.409123   -1.823550
 H   -3.368125    1.008018    0.385362
 H   -1.709115   -3.545715   -1.600606
 H    1.109412    0.902712    2.069448
 H    2.101252   -2.469384    1.480328
 H    2.058990   -1.001144   -1.156627
 H    1.463418   -3.217657   -0.940003
 H    4.444820   -0.978070   -1.400460
 H    4.357768   -3.256159   -0.379204
 H    5.044665   -0.392357    1.205453
 H    3.957688    1.787632    1.085414
 H    4.778270    1.413045   -0.456447
 H   -0.102977    1.966543   -0.187380
 H    2.385086    4.487658   -1.406660
