50 
4kxm_ligand_dft.xyz
 O    1.782182    3.750280   -1.463699
 P    1.456649    2.756692   -0.246891
 O    1.526719    3.346283    1.103212
 O    0.066244    2.116314   -0.676470
 O    2.497101    1.566278   -0.525461
 C    3.800122    1.637546    0.067105
 C    4.265688    0.244666    0.454224
 O    3.376874   -0.316346    1.429539
 C    4.342165   -0.781259   -0.677312
 O    5.316258   -1.737848   -0.342790
 C    2.952100   -1.414840   -0.643507
 O    3.007225   -2.724692   -1.129313
 C    2.603748   -1.328233    0.862529
 N    1.186052   -1.007421    1.037579
 C    0.633487    0.083011    1.646174
 N   -0.663860    0.190790    1.449341
 C   -0.974452   -0.910819    0.674776
 C   -2.180540   -1.372309    0.101551
 N   -3.340024   -0.722935    0.296333
 N   -2.142068   -2.478864   -0.660371
 C   -0.966862   -3.082673   -0.857547
 N    0.230177   -2.754318   -0.374534
 C    0.159339   -1.656458    0.399478
 C   -4.623769   -1.114180   -0.270530
 C   -5.393558    0.105860   -0.686414
 C   -6.537924    0.565727   -0.168349
 C   -7.177450    1.816330   -0.714879
 C   -7.300831   -0.076837    0.960763
 H    1.431147    4.633435   -1.286841
 H   -0.360972    1.661271    0.080260
 H    4.495367    2.079908   -0.654869
 H    3.760883    2.263747    0.963087
 H    5.251032    0.337484    0.921542
 H    4.554757   -0.309860   -1.646673
 H    4.995272   -2.579157   -0.703258
 H    2.248487   -0.793470   -1.209178
 H    2.100841   -3.082088   -1.039890
 H    2.805176   -2.284206    1.357669
 H    1.241008    0.791491    2.190785
 H   -3.315226    0.079710    0.908823
 H   -0.995009   -3.960073   -1.498720
 H   -5.177539   -1.732770    0.443868
 H   -4.406361   -1.746638   -1.135331
 H   -4.931800    0.667805   -1.498003
 H   -7.273983    2.577760    0.069462
 H   -8.191624    1.607230   -1.078191
 H   -6.601144    2.244398   -1.539620
 H   -6.790179   -0.932834    1.406134
 H   -7.486550    0.656578    1.755060
 H   -8.283661   -0.416194    0.610296
