50 
4kxm_ligand_xtb.xyz
 O    3.186830    3.215238   -1.456652
 P    2.409950    2.466365   -0.285031
 O    2.637678    3.028318    1.047682
 O    0.922919    2.444547   -0.808398
 O    2.896283    0.949639   -0.476912
 C    4.098610    0.598158    0.190934
 C    4.038530   -0.852602    0.679949
 O    2.977382   -1.038222    1.609042
 C    3.796769   -1.874105   -0.442465
 O    4.377257   -3.101566   -0.109304
 C    2.264244   -1.957994   -0.477008
 O    1.826166   -3.217437   -0.880555
 C    1.875489   -1.617952    0.987580
 N    0.735271   -0.729701    0.978204
 C    0.583285    0.499451    1.538762
 N   -0.528243    1.092747    1.196635
 C   -1.168071    0.202741    0.366673
 C   -2.391848    0.224020   -0.334289
 N   -3.211329    1.278031   -0.297612
 N   -2.697746   -0.847213   -1.081633
 C   -1.854781   -1.859684   -1.146140
 N   -0.685935   -2.000077   -0.544350
 C   -0.377185   -0.940937    0.215348
 C   -4.525732    1.303193   -0.909555
 C   -5.609114    1.063977    0.104986
 C   -6.235697   -0.088982    0.311417
 C   -7.306000   -0.216118    1.352887
 C   -5.967833   -1.337814   -0.475340
 H    3.237270    4.151311   -1.268315
 H    0.311846    2.237248   -0.082821
 H    4.943516    0.722230   -0.492515
 H    4.226860    1.259488    1.053455
 H    4.968451   -1.084827    1.207663
 H    4.195486   -1.512630   -1.399847
 H    3.776151   -3.793098   -0.423709
 H    1.880547   -1.168185   -1.136281
 H    0.850087   -3.173094   -0.916127
 H    1.593888   -2.536521    1.529081
 H    1.316938    0.921449    2.195651
 H   -2.974816    2.006036    0.359726
 H   -2.162525   -2.685174   -1.774504
 H   -4.529329    0.537539   -1.683348
 H   -4.663072    2.286220   -1.370874
 H   -5.853256    1.918914    0.722205
 H   -7.001015   -0.931189    2.116535
 H   -8.223968   -0.588454    0.899771
 H   -7.512586    0.737126    1.832211
 H   -4.924366   -1.410534   -0.770842
 H   -6.227607   -2.213925    0.114141
 H   -6.581984   -1.348151   -1.376146
