47 
4kxn_ligand_dft.xyz
 C   -6.171135    0.268129   -1.302567
 C   -7.004056    1.315569   -0.791195
 C   -6.793266    1.338417    0.547510
 O   -5.900598    0.381933    0.905494
 C   -5.527589   -0.264997   -0.233245
 C   -4.532334   -1.358891   -0.073302
 N   -3.260231   -0.838219    0.403947
 C   -2.084375   -1.456877    0.201910
 N   -2.038842   -2.578757   -0.535832
 C   -0.853253   -3.157144   -0.751691
 N    0.345598   -2.786670   -0.306948
 C    0.266331   -1.674667    0.445456
 C   -0.878611   -0.949981    0.733069
 N   -0.577025    0.172485    1.479971
 C    0.726398    0.098110    1.649151
 N    1.290913   -0.990725    1.048172
 C    2.711494   -1.286529    0.853244
 O    3.473371   -0.252751    1.394892
 C    3.037147   -1.386106   -0.656845
 O    3.111670   -2.701132   -1.126439
 C    4.413734   -0.725573   -0.721414
 O    5.411670   -1.658524   -0.390651
 C    4.335191    0.313236    0.398221
 C    3.835512    1.691197    0.000833
 O    2.525777    1.585306   -0.571077
 P    1.464053    2.756263   -0.289370
 O    1.753297    3.744065   -1.519569
 O    0.082117    2.082015   -0.693798
 O    1.539568    3.358907    1.054683
 H   -6.062246   -0.043220   -2.331561
 H   -7.664292    1.961340   -1.351210
 H   -7.180838    1.942990    1.352459
 H   -4.364593   -1.843623   -1.036570
 H   -4.910815   -2.124774    0.617200
 H   -3.268510   -0.050064    1.035263
 H   -0.875169   -4.049398   -1.372126
 H    1.329158    0.831620    2.165384
 H    2.939012   -2.231969    1.357261
 H    2.312028   -0.786719   -1.219086
 H    2.216674   -3.078703   -1.013507
 H    4.601401   -0.262601   -1.699963
 H    5.102386   -2.510333   -0.736394
 H    5.325677    0.431095    0.848692
 H    3.796563    2.327927    0.889381
 H    4.510847    2.138514   -0.736754
 H    1.378262    4.619087   -1.351633
 H   -0.331325    1.636181    0.075447
