17 
4kz3_ligand_xtb.xyz
 C    0.991673   -1.188776    0.025266
 C   -0.176342   -0.410764    0.027229
 C    0.055018    0.937394    0.023893
 S    1.768450    1.267774    0.038079
 C    2.125128   -0.426498    0.039393
Cl    3.732938   -0.976239    0.057441
 C   -0.953747    2.012859    0.066356
 O   -0.561986    3.217655   -0.353649
 O   -2.065897    1.829827    0.484085
 S   -1.790775   -1.168812   -0.171735
 O   -1.593853   -2.583972   -0.225569
 O   -2.418380   -0.522786   -1.283779
 N   -2.500221   -0.813781    1.280270
 H    0.969840   -2.262338    0.009460
 H    0.345563    3.240284   -0.687931
 H   -3.210611   -1.480906    1.533470
 H   -2.835449    0.141020    1.283590
