29 
4kz4_ligand_xtb.xyz
 C    2.209870   -1.393688   -0.904805
 C    2.655513   -2.006807   -2.229055
 C   -1.929952   -0.263027    0.092569
 N    0.269386    0.249834    0.987972
 O   -0.819176   -2.230699    0.816090
 S    1.840100    0.772963    0.695576
 C   -0.839701    0.618119    0.262033
 O   -3.022174   -2.259576    0.881125
 C   -0.923157    1.905894   -0.275677
 O    1.868277    2.204155    0.654067
 C   -2.039573    2.307238   -0.976901
 O    2.644832    0.103854    1.665819
 C   -3.108021    1.438574   -1.160655
 C   -3.049196    0.170352   -0.624225
 C   -1.859946   -1.645600    0.621260
 C    2.192641    0.120158   -0.959887
 H    2.892241   -1.693678   -0.107901
 H    1.216468   -1.766835   -0.648790
 H    1.975502   -1.725799   -3.030183
 H    3.655186   -1.669070   -2.491850
 H    2.667265   -3.090394   -2.153002
 H    0.262151   -0.708514    1.321122
 H   -3.785946   -1.680805    0.753281
 H   -0.092184    2.574545   -0.124089
 H   -2.080299    3.304438   -1.387728
 H   -3.976622    1.750030   -1.719253
 H   -3.871927   -0.509052   -0.807795
 H    1.424908    0.519840   -1.617584
 H    3.161025    0.529881   -1.235989
