32 
4kz6_ligand_dft.xyz
 C   -0.923513    1.052186    1.952077
 C   -0.590460    1.371010    0.489467
 C   -1.628078    2.297158   -0.165313
 C   -2.930589    1.573142   -0.506507
 C   -2.633976    0.367997   -1.397035
 C   -1.601987   -0.561298   -0.759586
 N   -0.412291    0.161988   -0.326657
 C    0.803986   -0.406700   -0.613885
 O    0.897056   -1.429353   -1.277921
 C    2.054958    0.286936   -0.082007
 C    3.301320   -0.535912   -0.388448
 S    4.827147    0.190670    0.303940
 C   -2.214113   -1.406843    0.356582
 O   -3.398388   -1.575527    0.528830
 O   -1.281434   -2.004373    1.116493
 H   -1.916790    0.607289    2.064037
 H   -0.904403    1.974100    2.542487
 H   -0.194250    0.352703    2.370201
 H    0.361249    1.903928    0.479453
 H   -1.195226    2.704484   -1.087928
 H   -1.815046    3.142859    0.505810
 H   -3.615215    2.258428   -1.016693
 H   -3.441082    1.239182    0.404283
 H   -3.544606   -0.199979   -1.600817
 H   -2.227198    0.710853   -2.355778
 H   -1.244769   -1.288298   -1.496904
 H    2.145456    1.281859   -0.537007
 H    1.972468    0.445190    0.998945
 H    3.414472   -0.691181   -1.461931
 H    3.219081   -1.526015    0.064890
 H    4.838327    1.299289   -0.457590
 H   -1.763947   -2.551353    1.756817
