36 
4kzc_ligand_dft.xyz
 F    3.497267   -2.484756    0.989590
 C    4.303600   -1.626232    0.352368
 F    4.770389   -2.248921   -0.743577
 F    5.378080   -1.422523    1.154575
 C    3.613879   -0.339060    0.016333
 C    4.331367    0.745141   -0.541712
 N    5.669951    0.681814   -0.809207
 N    3.721367    1.889315   -0.873492
 C    2.412249    1.993474   -0.673470
 C    2.254270   -0.191549    0.228035
 C    1.607695    0.995742   -0.120087
 C    0.155298    1.193566    0.076618
 C   -0.724320    0.188377   -0.219096
 C   -0.358831    2.430920    0.573932
 C   -1.700141    2.616060    0.755543
 C   -2.595825    1.566442    0.453386
 N   -2.065110    0.370599   -0.025590
 C   -3.124121   -0.484488   -0.245912
 N   -3.917776    1.501802    0.545719
 C   -4.230136    0.251813    0.118788
 N   -5.570702   -0.117829    0.102523
 C   -6.047872   -1.337284   -0.298314
 O   -5.316881   -2.232285   -0.686093
 C   -7.553286   -1.496606   -0.229596
 H    6.242357    0.025262   -0.303372
 H    6.095872    1.567105   -1.039151
 H    1.966992    2.937570   -0.983372
 H    1.695554   -1.002724    0.683552
 H   -0.427314   -0.770015   -0.628485
 H    0.337457    3.223293    0.829509
 H   -2.109356    3.543445    1.138064
 H   -3.014619   -1.486463   -0.620404
 H   -6.205092    0.600849    0.418096
 H   -7.927546   -1.710451   -1.234413
 H   -7.783719   -2.361475    0.397817
 H   -8.074242   -0.620113    0.165056
