31 
4l10_ligand_xtb.xyz
 C   -6.234842    0.238906    0.239336
 O   -5.271138   -0.726417   -0.111236
 C   -3.959518   -0.388803   -0.063409
 C   -3.466172    0.858168    0.313416
 C   -2.104842    1.092634    0.322172
 C   -3.055798   -1.393540   -0.421450
 C   -1.702370   -1.154926   -0.404677
 C   -1.199975    0.097942   -0.039754
 C    0.245916    0.333003   -0.036528
 O    0.964880   -0.806316    0.067420
 C    2.319298   -0.737325    0.075584
 C    3.018163   -1.939940    0.190442
 C    4.395607   -1.928871    0.207777
 C    5.094921   -0.728824    0.110781
 C    4.407735    0.457964   -0.003514
 C    3.011687    0.472396   -0.021827
 C    2.263434    1.737730   -0.144169
 O    2.806374    2.827290   -0.238834
 C    0.824395    1.552794   -0.144161
 H   -6.119049    0.562113    1.278571
 H   -6.189518    1.110139   -0.421388
 H   -7.199135   -0.252397    0.121039
 H   -4.133777    1.652631    0.607100
 H   -1.745612    2.059644    0.637220
 H   -3.449027   -2.355444   -0.709538
 H   -1.016080   -1.938181   -0.686289
 H    2.460039   -2.860155    0.265766
 H    4.934775   -2.859949    0.297781
 H    6.174013   -0.733325    0.126173
 H    4.917956    1.406137   -0.081190
 H    0.218659    2.436483   -0.254164
