35 
4l19_ligand_xtb.xyz
 O   -4.286420    2.449281    0.083293
 C   -3.552692    1.486193    0.033207
 C   -3.881876    0.090942    0.000166
 C   -2.903483   -0.855374   -0.057777
 C   -3.476190   -2.236984   -0.102738
 C   -5.244053   -0.529708    0.003399
 C   -4.950586   -2.017110    0.279996
 N   -2.151610    1.671957    0.005199
 C   -1.254281    0.660828   -0.056820
 N   -1.576218   -0.594201   -0.091790
 S    0.429057    1.122818   -0.087273
 C    1.201299   -0.547304   -0.165883
 C    2.685004   -0.419365   -0.080985
 C    3.315667   -0.334297    1.155152
 C    4.687879   -0.202892    1.234575
 C    5.467667   -0.149161    0.084376
 C    6.953322    0.012195    0.183961
 C    4.833646   -0.229893   -1.148167
 C    3.459479   -0.359883   -1.231947
 H   -2.955497   -2.915117    0.572067
 H   -3.374722   -2.634380   -1.115615
 H   -5.718769   -0.386203   -0.970845
 H   -5.893603   -0.079980    0.753799
 H   -5.083665   -2.221683    1.342848
 H   -5.617691   -2.673610   -0.275040
 H   -1.824721    2.631195    0.031094
 H    0.875483   -0.989469   -1.105617
 H    0.781897   -1.106647    0.668461
 H    2.724477   -0.371727    2.058682
 H    5.164368   -0.140291    2.202378
 H    7.198452    1.038097    0.459764
 H    7.361163   -0.644322    0.950135
 H    7.435012   -0.210612   -0.764667
 H    5.420839   -0.189587   -2.054306
 H    2.983402   -0.418410   -2.200066
