42 
4l23_ligand_xtb.xyz
 N   -4.680547   -1.057115    0.038698
 C   -5.080141   -2.303256   -0.161786
 C   -4.224677   -3.391239   -0.321751
 C   -2.853963   -3.202457   -0.276254
 C   -2.409069   -1.905490   -0.067863
 C   -3.375859   -0.884696    0.082307
 O   -2.808946    0.325340    0.279120
 C   -1.452082    0.113621    0.260141
 C   -1.143128   -1.238216    0.049129
 N    0.097971   -1.712084   -0.016401
 C   -0.381072    1.013806    0.421298
 N   -0.502741    2.326570    0.718318
 C    0.669966    3.174253    0.752026
 C    0.737800    3.991995   -0.542800
 O   -0.443196    4.740007   -0.731002
 C   -1.579169    3.906880   -0.775547
 C   -1.716015    3.085968    0.515189
 N    0.851261    0.506115    0.334547
 C    1.046509   -0.796277    0.127085
 C    2.437548   -1.252670    0.043226
 C    2.725523   -2.614571    0.015620
 C    4.038777   -3.039456   -0.063994
 C    5.073719   -2.124689   -0.121087
 C    4.791706   -0.761164   -0.097785
 O    5.833828    0.112597   -0.160430
 C    3.477099   -0.329029   -0.014019
 H   -6.152763   -2.434124   -0.196291
 H   -4.638497   -4.374437   -0.480403
 H   -2.154767   -4.015326   -0.395751
 H    1.548776    2.541860    0.863071
 H    0.579379    3.850387    1.607849
 H    0.891880    3.309354   -1.392897
 H    1.552854    4.716270   -0.506598
 H   -1.510190    3.222350   -1.635829
 H   -2.437220    4.567247   -0.907554
 H   -1.834265    3.769133    1.363349
 H   -2.580897    2.429814    0.458976
 H    1.910332   -3.317836    0.058671
 H    4.262901   -4.095566   -0.082601
 H    6.102897   -2.440448   -0.185447
 H    5.500069    1.017487   -0.136374
 H    3.243578    0.726014    0.001365
