27 
4l2f_ligand_xtb.xyz
 C    0.822400    1.571750   -0.133981
 C   -0.602274    1.848267   -0.159301
 O   -1.076363    2.965840   -0.266240
 C   -1.429757    0.628674   -0.045876
 C   -2.822408    0.710350   -0.057859
 C   -3.577763   -0.436888    0.045613
Cl   -5.301090   -0.342528    0.031402
 C   -2.966125   -1.684783    0.162941
 C   -1.593127   -1.776593    0.175656
 C   -0.815140   -0.621218    0.070517
 O    0.530225   -0.773391    0.088767
 C    1.319169    0.319064   -0.009700
 C    2.751751   -0.002328    0.007132
 C    3.697794    0.931440    0.428717
 C    5.041748    0.610656    0.426890
 C    5.461523   -0.641655    0.007663
 C    4.527846   -1.578409   -0.403610
 C    3.182157   -1.264663   -0.401728
 H    1.485358    2.414107   -0.238620
 H   -3.273849    1.686221   -0.149540
 H   -3.573152   -2.572494    0.243060
 H   -1.099803   -2.731287    0.266808
 H    3.379217    1.900987    0.777991
 H    5.765934    1.339884    0.757915
 H    6.512828   -0.887316    0.005782
 H    4.849749   -2.556832   -0.727711
 H    2.454593   -1.991872   -0.728180
