43 
4l2x_ligand_dft.xyz
 O   -2.124043   -3.061063    0.867930
 P   -3.381606   -2.446600    0.409794
 O   -3.727076   -2.759046   -1.122684
 O   -4.695085   -2.772533    1.262289
 C   -3.254750   -0.600970    0.568138
 P   -4.615789    0.160657   -0.411371
 O   -5.022003    1.489621    0.360907
 O   -4.010476    0.569036   -1.834596
 O   -5.710778   -0.839920   -0.541944
 N   -1.895142   -0.234163    0.243186
 C   -1.418240    1.030320    0.201426
 N   -2.286739    2.055614    0.182411
 C   -1.786030    3.310140    0.109303
 N   -0.524626    3.667685    0.052611
 C    0.332365    2.631527    0.068965
 S    2.055817    2.819818   -0.000280
 C   -0.024710    1.284088    0.138014
 C    1.106652    0.408167    0.147974
 C    2.289773    1.081006    0.082257
 C    3.642952    0.508155    0.066288
 C    3.870693   -0.735393   -0.536499
 C    5.136011   -1.302360   -0.536802
 C    4.725954    1.169885    0.653922
 C    5.991906    0.599978    0.642846
 C    6.220361   -0.644765    0.052498
 C    7.597150   -1.232356    0.062862
 C    7.819737   -2.724600    0.100354
 C    8.072432   -2.156871   -1.030957
 H   -4.586481   -2.373864   -1.380526
 H   -5.464304   -2.304179    0.879765
 H   -3.483941   -0.381174    1.622054
 H   -4.176799    1.970953    0.533122
 H   -3.370187    1.295133   -1.758652
 H   -1.229439   -0.989305    0.365936
 H   -2.525806    4.106511    0.096422
 H    1.056791   -0.671602    0.231872
 H    3.051142   -1.252200   -1.027554
 H    5.287588   -2.267386   -1.012100
 H    4.576619    2.128742    1.143374
 H    6.818658    1.129336    1.109903
 H    8.330910   -0.584992    0.551834
 H    7.744619   -3.608619    0.713652
 H    8.366197   -2.213713   -2.067180
