52 
4l3p_ligand_xtb.xyz
 N    2.550609    3.949779    0.055784
 C    1.467928    3.136773    0.067106
 C    1.583664    1.738088    0.001387
 O    2.715719    0.997781    0.002385
 N    0.257294    3.678963    0.102791
 C   -0.819177    2.901078    0.058519
 C   -0.821705    1.517943   -0.019994
 C    0.453667    0.909500   -0.038848
 C    0.966735   -0.414993   -0.052674
 C    2.333492   -0.303069   -0.027818
 C    3.373307   -1.308501   -0.026153
 C    3.078555   -2.669124   -0.052005
 C    4.085240   -3.626524   -0.050691
 C    5.414313   -3.260521   -0.024381
 C    4.724116   -0.941766    0.001965
 S    5.373954    0.667253    0.038987
 C    6.989325    0.040950    0.053131
 C    7.044032   -1.305072    0.031781
 C    5.749690   -1.906783    0.002360
 C   -2.058441    0.765254   -0.090153
 C   -3.290923    1.109493    0.431655
 N   -4.154371    0.123310    0.095596
 N   -3.556079   -0.834465   -0.623897
 C   -2.298077   -0.466498   -0.739442
 C   -5.558998    0.001880    0.362713
 C   -6.317209    0.040580   -0.975746
 C   -7.784724   -0.312340   -0.807515
 N   -7.890136   -1.658129   -0.183610
 C   -7.286674   -1.663851    1.175601
 C   -5.806342   -1.344372    1.062778
 H    3.460810    3.551949    0.204447
 H    2.401572    4.925629    0.240741
 H   -1.755074    3.444244    0.074200
 H    0.402046   -1.323470   -0.060540
 H    2.047254   -2.983446   -0.073073
 H    3.817470   -4.672074   -0.071337
 H    6.195752   -4.004710   -0.024218
 H    7.806668    0.735004    0.076689
 H    7.956849   -1.872970    0.035680
 H   -3.597950    1.953199    1.014423
 H   -1.611548   -1.069187   -1.297474
 H   -5.865121    0.834814    1.003368
 H   -5.825835   -0.660609   -1.654292
 H   -6.232105    1.034158   -1.415454
 H   -8.289783   -0.321076   -1.774754
 H   -8.286295    0.406906   -0.156827
 H   -7.364491   -2.322096   -0.768065
 H   -8.868750   -1.961581   -0.144480
 H   -7.432441   -2.644407    1.631558
 H   -7.801726   -0.915710    1.781663
 H   -5.364118   -1.324793    2.058593
 H   -5.284168   -2.113025    0.488171
