52 
4l3p_ligand_dft.xyz
 N    2.556980    3.979248   -0.024891
 C    1.456993    3.178738   -0.128576
 C    1.555949    1.782776   -0.204748
 O    2.709128    1.063047   -0.226518
 N    0.245997    3.731551   -0.116780
 C   -0.834366    2.935257   -0.164529
 C   -0.830669    1.548019   -0.223187
 C    0.450518    0.948523   -0.249473
 C    0.988025   -0.381824   -0.285788
 C    2.346406   -0.249767   -0.275718
 C    3.427134   -1.230788   -0.298316
 C    3.158890   -2.532325   -0.718669
 C    4.149158   -3.517989   -0.729373
 C    5.437326   -3.221900   -0.322935
 C    4.743105   -0.928741    0.104207
 S    5.382469    0.593197    0.681607
 C    6.955792   -0.113237    0.907573
 C    7.013016   -1.418160    0.565911
 C    5.747060   -1.921685    0.098385
 C   -2.073199    0.773576   -0.259313
 C   -3.257716    1.045893    0.394986
 N   -4.138559    0.070857    0.047168
 N   -3.600688   -0.831666   -0.796916
 C   -2.357135   -0.411944   -0.982589
 C   -5.516993   -0.088550    0.439371
 C   -6.424542    0.007322   -0.797489
 C   -7.878848   -0.289458   -0.469733
 N   -7.979484   -1.643281    0.192473
 C   -7.165363   -1.724233    1.462250
 C   -5.705562   -1.438141    1.149067
 H    3.451104    3.612265   -0.311892
 H    2.399381    4.963772   -0.178934
 H   -1.786716    3.463545   -0.174504
 H    0.441436   -1.313067   -0.279010
 H    2.159018   -2.779767   -1.061584
 H    3.901424   -4.519288   -1.066241
 H    6.209872   -3.984902   -0.329217
 H    7.761014    0.503874    1.283874
 H    7.908319   -2.024546    0.635041
 H   -3.523285    1.837071    1.082005
 H   -1.699242   -0.958222   -1.644928
 H   -5.750615    0.727953    1.132126
 H   -6.049521   -0.689278   -1.556319
 H   -6.364748    1.009720   -1.230422
 H   -8.508310   -0.314210   -1.361439
 H   -8.301522    0.425780    0.241506
 H   -7.644060   -2.358078   -0.462432
 H   -8.959343   -1.866156    0.388950
 H   -7.311532   -2.721870    1.880929
 H   -7.598491   -0.987658    2.144852
 H   -5.141551   -1.452175    2.085808
 H   -5.284748   -2.225423    0.513000
