45 
4l4m_ligand_dft.xyz
 C   -2.358296   -2.276515    0.985518
 C   -1.116877   -2.832418    1.278360
 C   -0.083857   -2.803561    0.341957
 C    1.277141   -3.379897    0.674455
 C    5.333502    0.506234    1.650936
 C    6.543779    2.395937    0.548067
 C   -4.129121    1.151226    1.142130
 C   -3.431097    3.406143    0.558196
 C   -3.417854    1.660035   -1.134388
 C   -0.306025   -2.218416   -0.910067
 C   -1.539318   -1.660916   -1.215591
 C   -2.552398   -1.691365   -0.259435
 N    2.297317   -2.359519    0.858297
 C    3.054533   -1.921655   -0.194684
 O    2.971093   -2.410969   -1.312018
 C    4.001070   -0.800040    0.108172
 C    4.483424   -0.528696    1.427452
 N    5.719470    1.300812    0.601843
 C    6.565818    2.764305   -0.778362
 N    5.797477    1.952604   -1.549290
 C    5.286959    1.064764   -0.708138
 C    4.414892   -0.020902   -0.939439
 S   -4.129993   -0.945173   -0.632786
 O   -4.315712   -0.980153   -2.078830
 O   -5.116655   -1.500765    0.287152
 C   -3.878592    0.770993   -0.171049
 C   -3.896102    2.476332    1.476881
 C   -3.204170    2.972474   -0.739840
 F   -2.765774    3.856077   -1.640225
 F   -4.128676    2.878304    2.730062
 H   -3.172657   -2.310393    1.701530
 H   -0.956282   -3.300934    2.246074
 H    1.624438   -4.024567   -0.135631
 H    1.222261   -3.980877    1.587557
 H    5.749680    0.750350    2.620484
 H    7.021933    2.797893    1.427562
 H   -4.515245    0.450357    1.872577
 H   -3.259723    4.437138    0.842131
 H   -3.254578    1.351288   -2.160049
 H    0.497180   -2.210639   -1.640797
 H   -1.727017   -1.225283   -2.191402
 H    2.191398   -1.745505    1.652231
 H    4.222067   -1.170898    2.260739
 H    7.111687    3.592395   -1.210303
 H    4.080665   -0.223539   -1.949832
