34 
4l50_ligand_dft.xyz
 O   -0.044977   -2.954876   -0.274845
 P    1.077721   -2.067603    0.059341
 O    2.543941   -2.655837   -0.216148
 O    1.267256   -1.585646    1.567732
 O    1.002259   -0.705743   -0.797863
 C    1.986044    0.325778   -0.680623
 C    1.273125    1.651764   -0.907866
 O    2.197143    2.714429   -0.999323
 C    0.275489    2.012853    0.220350
 O    1.056212    2.214435    1.362431
 O   -0.432149    3.159567   -0.144378
 C   -0.785426    0.927997    0.507022
 O   -0.722271    0.360603    1.588194
 C   -1.832840    0.656643   -0.526799
 C   -2.761107   -0.523646   -0.219931
 C   -3.490408   -0.946565   -1.496782
 C   -3.756043   -0.185183    0.893069
 H    2.474273   -3.509547   -0.663547
 H    0.507483   -1.045278    1.858051
 H    2.754013    0.182004   -1.444777
 H    2.450655    0.311920    0.310808
 H    0.741325    1.619332   -1.862533
 H    2.579677    2.815506   -0.113417
 H    0.627623    1.728904    2.087205
 H    0.228143    3.775427   -0.499345
 H   -2.394731    1.591293   -0.665677
 H   -1.302582    0.494698   -1.474161
 H   -2.137698   -1.365322    0.103672
 H   -2.781847   -1.269224   -2.267047
 H   -4.167768   -1.782372   -1.293884
 H   -4.088703   -0.120848   -1.902832
 H   -3.245039    0.101235    1.816120
 H   -4.391958   -1.048797    1.114681
 H   -4.411003    0.641805    0.589544
