25 
4l51_ligand_xtb.xyz
 C    1.124022    1.095647    0.493689
 O    0.416558    0.360695   -0.498042
 C    2.481967    0.386272    0.594736
 O    3.338514    0.794480   -0.438149
 C    2.105708   -1.099222    0.374808
 O    3.062771   -1.793459   -0.351322
 C    0.731418   -1.012083   -0.350115
 C   -0.398692   -1.689460    0.432689
 O   -1.638997   -1.401373   -0.161749
 P   -2.242511    0.086004    0.024823
 O   -3.797350   -0.204076   -0.013354
 O   -2.131601    0.821670   -1.371216
 O   -1.778957    0.782373    1.231801
 O    1.287442    2.399159    0.068462
 H    0.578253    1.043649    1.447742
 H    2.956471    0.556907    1.568358
 H    3.072241    1.688540   -0.693783
 H    1.983518   -1.614038    1.333113
 H    3.525207   -1.144624   -0.906819
 H    0.791692   -1.440718   -1.356069
 H   -0.279174   -2.774001    0.421920
 H   -0.395448   -1.316371    1.462626
 H   -4.142951   -0.246498    0.876721
 H   -1.212955    0.959720   -1.607999
 H    0.427240    2.834693    0.075536
