25 
4l51_ligand_dft.xyz
 C    1.816150    1.273575    0.629360
 O    0.550049    0.669897    0.422743
 C    2.869076    0.151376    0.480055
 O    3.547387    0.212286   -0.752679
 C    2.012955   -1.129767    0.454670
 O    2.614454   -2.186054   -0.224433
 C    0.720217   -0.616572   -0.192034
 C   -0.488986   -1.482830    0.078318
 O   -1.636636   -1.026038   -0.634649
 P   -2.596248    0.080674    0.049973
 O   -3.862650    0.061070   -0.922563
 O   -1.953581    1.481686   -0.356927
 O   -2.869197   -0.171727    1.476594
 O    2.096631    2.246906   -0.330862
 H    1.791543    1.708107    1.633275
 H    3.591213    0.165512    1.303043
 H    3.398321    1.092000   -1.130249
 H    1.796300   -1.462915    1.476259
 H    3.108621   -1.776481   -0.953046
 H    0.860938   -0.496313   -1.274189
 H   -0.273748   -2.490587   -0.285146
 H   -0.700187   -1.523268    1.152786
 H   -4.600915   -0.380742   -0.483005
 H   -1.008752    1.471083   -0.099591
 H    1.512262    3.004591   -0.209730
