54 
4l52_ligand_dft.xyz
 O    7.910696   -2.761262   -0.608051
 C    7.940277   -1.708019    0.009026
 C    8.688932   -1.594396    1.326070
 N    7.320666   -0.575288   -0.463422
 C    7.109687    0.642128    0.300876
 C    5.652947    0.754328    0.761372
 C    4.707242    0.643983   -0.438651
 C    4.996482   -0.619815   -1.254491
 C    6.475513   -0.678707   -1.643771
 N    3.317031    0.688593   -0.008584
 C    2.359224    1.562611   -0.393206
 C    1.189732    1.198374    0.249670
 C    1.570343    0.066428    1.006926
 N    2.852013   -0.235753    0.846120
 C   -0.122614    1.844496    0.168311
 C   -0.274933    3.222523    0.102027
 N   -1.441557    3.890220    0.019588
 C   -2.581339    3.209766    0.000165
 N   -3.767140    3.890035   -0.140167
 C   -2.525845    1.812384    0.073187
 C   -1.331559    1.113303    0.153442
 O   -3.588342    0.958828    0.059842
 C   -3.067856   -0.302241    0.123485
 C   -1.707567   -0.272710    0.178171
 C   -4.035732   -1.392989    0.115400
 C   -5.417718   -1.165644   -0.040379
 S   -6.343752    0.271477   -0.249854
 N   -7.819712   -0.629040   -0.327130
 N   -7.644276   -1.870271   -0.211320
 C   -6.318367   -2.243948   -0.047538
 C   -5.881852   -3.564849    0.097739
 C   -4.527297   -3.785562    0.251706
 C   -3.623153   -2.714484    0.261618
 H    8.009400   -1.375320    2.156770
 H    9.169081   -2.555318    1.509054
 H    9.454022   -0.812015    1.295694
 H    7.364759    1.498971   -0.339450
 H    7.783243    0.676509    1.156766
 H    5.489493    1.706343    1.278333
 H    5.421947   -0.053296    1.464165
 H    4.846346    1.522782   -1.081509
 H    4.365836   -0.634888   -2.150163
 H    4.742043   -1.497059   -0.650488
 H    6.712371   -1.617485   -2.142488
 H    6.723391    0.149180   -2.323180
 H    2.564469    2.356244   -1.097588
 H    0.961077   -0.520658    1.681584
 H    0.610496    3.854379    0.133922
 H   -3.698259    4.879735    0.048836
 H   -4.600429    3.443517    0.212656
 H   -1.044246   -1.124178    0.210744
 H   -6.603972   -4.373388    0.087037
 H   -4.150409   -4.795939    0.368979
 H   -2.565919   -2.923526    0.391145
