33 
4l6q_ligand_dft.xyz
 F   -3.859630  -35.139622  -41.633905
 C   -4.564640  -35.314954  -42.759035
 C   -4.909961  -36.591021  -43.162246
 C   -5.638744  -36.770606  -44.339903
 C   -6.046374  -38.161315  -44.779678
 N   -5.069479  -39.162548  -44.366596
 C   -6.004352  -35.651573  -45.086987
 C   -5.667380  -34.369049  -44.662799
 C   -4.941770  -34.189529  -43.493280
 O   -4.536922  -32.933229  -43.125982
 C   -5.003035  -32.393573  -41.949187
 C   -4.295921  -31.301628  -41.456688
 C   -6.145320  -32.867138  -41.297587
 C   -6.585983  -32.253232  -40.128706
 C   -5.878698  -31.165219  -39.634337
 C   -6.150110  -30.339682  -38.400112
 O   -5.127321  -29.347244  -38.351728
 B   -4.268988  -29.485707  -39.420655
 C   -4.741622  -30.686172  -40.292235
 O   -3.206151  -28.663138  -39.609691
 H   -4.599017  -37.448215  -42.575130
 H   -6.243028  -38.141388  -45.865073
 H   -6.999097  -38.418360  -44.298819
 H   -5.409810  -40.093361  -44.586042
 H   -4.202360  -39.032783  -44.880591
 H   -6.560601  -35.778038  -46.011987
 H   -5.946071  -33.491542  -45.236781
 H   -3.414096  -30.957771  -41.987585
 H   -6.687911  -33.713584  -41.705563
 H   -7.472903  -32.630387  -39.626174
 H   -7.124637  -29.838653  -38.434605
 H   -3.150494  -28.002149  -38.909652
 H   -6.107575  -30.933590  -37.479661
