33 
4l6q_ligand_xtb.xyz
 F   -2.800956  -36.326156  -42.015815
 C   -3.940675  -36.084277  -42.695483
 C   -4.461526  -37.072732  -43.502352
 C   -5.633056  -36.841617  -44.211609
 C   -6.207182  -37.924201  -45.087181
 N   -5.147810  -38.739093  -45.661402
 C   -6.253599  -35.606295  -44.092707
 C   -5.728058  -34.617517  -43.281265
 C   -4.559702  -34.839236  -42.559929
 O   -3.939531  -33.893191  -41.798775
 C   -4.673773  -32.926405  -41.157133
 C   -4.093946  -31.667126  -41.043470
 C   -5.907553  -33.197220  -40.567543
 C   -6.582252  -32.208673  -39.871754
 C   -6.007644  -30.956726  -39.770949
 C   -6.537794  -29.736162  -39.076155
 O   -5.575899  -28.716384  -39.257666
 B   -4.499288  -29.169567  -39.987979
 C   -4.763536  -30.675573  -40.347130
 O   -3.452026  -28.392966  -40.300416
 H   -3.958610  -38.022293  -43.585200
 H   -6.867275  -37.461614  -45.841248
 H   -6.827312  -38.586439  -44.470766
 H   -5.540524  -39.479442  -46.231514
 H   -4.550349  -38.170227  -46.252236
 H   -7.159720  -35.405253  -44.645110
 H   -6.214304  -33.655825  -43.211586
 H   -3.131845  -31.481672  -41.493173
 H   -6.329393  -34.188795  -40.646877
 H   -7.536442  -32.422793  -39.413452
 H   -7.491530  -29.400948  -39.500792
 H   -3.509855  -27.496584  -39.968816
 H   -6.677037  -29.902997  -38.001516
