47 
4l7l_ligand_dft.xyz
 C   -1.132800    2.087588    0.779054
 C    0.241008    2.202837    0.594300
 C    0.797883    1.982901   -0.663681
 C   -0.028095    1.650197   -1.733177
 C   -1.404068    1.549318   -1.543922
 C   -1.974925    1.766453   -0.287265
 C   -3.458926    1.585771   -0.079974
 C   -3.814310    0.197758    0.502225
 C   -5.314408   -0.056442    0.473501
 O   -5.712408   -0.094282   -0.886510
 N   -3.128661   -0.857464   -0.222853
 C   -1.977212   -1.411660    0.231149
 O   -1.621932   -1.326175    1.403202
 C   -1.172441   -2.152928   -0.827443
 C    0.098651   -2.812490   -0.283773
 C    1.218012   -1.837918   -0.012995
 N    2.157268   -1.698251   -0.888986
 C    3.157256   -0.781661   -0.594552
 C    4.163445   -0.557680   -1.549619
 C    5.169053    0.356557   -1.299389
 C    5.207388    1.068769   -0.090225
 C    4.228020    0.856558    0.861059
 C    3.202425   -0.064153    0.614583
 C    2.124779   -0.242950    1.593480
 O    2.023772    0.342577    2.659003
 N    1.169570   -1.159268    1.175543
 H   -1.556871    2.241422    1.768340
 H    0.881279    2.436071    1.438664
 H    1.870589    2.066940   -0.807575
 H    0.399542    1.475327   -2.716131
 H   -2.047944    1.302323   -2.386018
 H   -3.848805    2.349909    0.603348
 H   -3.987683    1.706970   -1.031689
 H   -3.462863    0.130073    1.534934
 H   -5.524820   -1.011069    0.974883
 H   -5.831486    0.747250    1.019269
 H   -6.644138   -0.333852   -0.926811
 H   -3.337964   -0.923417   -1.209195
 H   -0.911371   -1.440802   -1.619794
 H   -1.814849   -2.916376   -1.283089
 H   -0.139057   -3.369436    0.628165
 H    0.477957   -3.513841   -1.029245
 H    4.120028   -1.115981   -2.479031
 H    5.939074    0.525292   -2.046828
 H    6.003162    1.783712    0.094021
 H    4.221840    1.391376    1.805474
 H    0.307273   -1.224922    1.716815
