73 
4l8m_ligand_dft.xyz
 O   -6.350396   -1.376409   -0.959840
 O    3.450725    0.670386    1.463609
 F   -6.566829    2.670971    1.764264
 C  -11.135706   -2.181228    0.290726
 C  -10.896272   -0.813225    0.384668
 C  -10.088956   -3.053318   -0.000312
 C   -9.609420   -0.317481    0.204016
 C   -8.804890   -2.559532   -0.190650
 C   -3.258128    2.688434    0.286261
 C   -0.518935    1.068389    0.452740
 C   -4.351593    3.075068    1.055973
 C    6.754567    0.234551   -2.073519
 C    5.595658   -0.396218   -2.519244
 C    0.801199    0.876013    0.765581
 C   -4.487352    0.733224   -0.465163
 C   -0.005670    0.518231   -1.849439
 C    5.478646    1.221574   -0.275273
 C    4.887066   -2.016491    2.359556
 C    5.985871   -2.866897    0.478371
 C    8.604195    0.683734    0.359863
 C    5.903058   -0.885483    2.635817
 C    7.243999   -2.150599    1.018332
 C    7.938355    0.196585    1.652815
 C    3.152402   -1.005794   -2.257632
 N   -6.815610    0.449438    0.332567
 N   -2.244294    1.100217   -1.271586
 O    4.817029   -2.249898    0.968122
 O    7.823258    1.594162   -0.386578
 O    2.101053   -0.103225   -2.548733
 C   -7.144317   -0.733582   -0.292868
 C    3.166580    0.560934    0.267503
 C   -3.329461    1.512303   -0.457238
 C   -0.947192    0.916616   -0.888313
 C   -5.492731    2.302450    1.036241
 C    6.687419    1.037548   -0.937561
 C   -8.554029   -1.190605   -0.075104
 C    4.391336   -0.274855   -1.824511
 C   -5.599118    1.131128    0.277576
 C    1.322626    0.316539   -1.517042
 C    1.782462    0.530433   -0.193783
 C    4.337396    0.529444   -0.682607
 N    6.819829   -0.787218    1.449482
 H  -12.140267   -2.566719    0.435171
 H  -11.713445   -0.129045    0.589972
 H  -10.275558   -4.119468   -0.082262
 H   -9.450774    0.757259    0.241155
 H   -7.980063   -3.221741   -0.431386
 H   -2.366261    3.304488    0.252841
 H   -1.230925    1.330291    1.225454
 H   -4.336117    3.981435    1.650441
 H    7.696389    0.117829   -2.600583
 H    5.634943   -1.010721   -3.414513
 H    1.137968    1.015625    1.786874
 H   -4.535535   -0.185988   -1.032691
 H   -0.304420    0.333482   -2.876369
 H    5.438977    1.851375    0.608232
 H    3.895252   -1.696707    2.675823
 H    5.158582   -2.938075    2.891800
 H    6.021567   -3.930087    0.749233
 H    5.934471   -2.776745   -0.608813
 H    8.924495   -0.159908   -0.266684
 H    9.501120    1.233834    0.652285
 H    6.516310   -1.068141    3.522151
 H    5.391707    0.075480    2.708976
 H    8.012320   -2.063947    0.249699
 H    7.677163   -2.641616    1.893833
 H    7.510005    1.051292    2.182218
 H    8.674607   -0.285236    2.302367
 H    3.330673   -1.557404   -3.183300
 H    2.832746   -1.716242   -1.483013
 H   -7.494842    0.848865    0.962841
 H   -2.485923    0.791395   -2.201871
 H    6.219082   -0.408144    0.701191
