82 
4lbo_ligand_xtb.xyz
 C   -6.850196    1.319362    0.153857
 C   -5.473090    1.045914   -0.454837
 C   -4.876555   -0.219550    0.185536
 C   -5.889155   -1.374959    0.095545
 C   -5.404909   -2.616203    0.855046
 C   -7.733708    0.068778    0.014859
 O   -8.973225    0.255081    0.600709
 O   -7.503639    2.386387   -0.484734
 O   -4.678844    2.188355   -0.247442
 O   -3.696765   -0.619534   -0.499424
 O   -7.130395   -1.013043    0.665015
 O   -6.294178   -3.683642    0.700716
 C   -2.496473   -0.374528    0.133318
 C   -1.422943   -1.231556   -0.549572
 C   -0.026961   -0.845881   -0.032683
 C    0.195027    0.672514   -0.134040
 C   -0.965099    1.400012    0.555520
 C   -0.871953    2.921745    0.367385
 O   -1.706074   -2.569409   -0.257882
 O    0.867791   -1.587237   -0.861302
 O    0.271783    1.082404   -1.468594
 O   -2.208981    1.001103    0.015302
 O   -1.775531    3.606829    1.187601
 C    2.755215   -2.733307   -1.497803
 C    2.242452   -1.579232   -0.602206
 C    2.644811   -1.852341    0.846695
 C    4.171464   -1.828010    0.988535
 C    4.731517   -0.485412    0.466589
 C    4.146906   -0.134635   -0.914868
 C    4.411543    1.313380   -1.385368
 C    3.461332    2.405698   -0.853729
 C    3.467011    2.610459    0.665803
 C    7.015096   -0.363221    1.375084
 C    8.452357   -0.148902    0.978869
 N    6.177562   -0.548304    0.331201
 O    3.549267   -2.629805   -2.388894
 O    2.182063   -3.876627   -1.150173
 O    4.454821   -2.031177    2.341905
 O    2.745437   -0.318742   -1.010372
 O    5.745408    1.661928   -1.108736
 O    3.920034    3.592060   -1.473602
 O    2.680410    3.759895    0.912906
 O    6.632690   -0.400911    2.532265
 H   -6.724045    1.536132    1.227280
 H   -5.586294    0.860569   -1.535789
 H   -4.654548   -0.012487    1.240937
 H   -6.022280   -1.629826   -0.967624
 H   -4.439311   -2.933919    0.456623
 H   -5.296931   -2.352160    1.917211
 H   -7.844727   -0.162030   -1.067368
 H   -9.230226    1.172543    0.439849
 H   -6.857745    3.097484   -0.582249
 H   -3.757571    1.930861   -0.420435
 H   -7.175679   -3.353445    0.919037
 H   -2.540192   -0.651395    1.207129
 H   -1.470233   -1.033944   -1.628828
 H    0.057951   -1.171941    1.012329
 H    1.123065    0.932351    0.397653
 H   -0.943860    1.157311    1.631142
 H    0.125942    3.263624    0.648877
 H   -1.037015    3.138901   -0.693667
 H   -1.017595   -3.110298   -0.665136
 H    0.914710    0.506114   -1.907824
 H   -2.675019    3.356187    0.940754
 H    2.262475   -2.819198    1.172062
 H    2.239412   -1.075063    1.496252
 H    4.613691   -2.641382    0.383514
 H    4.488715    0.277711    1.214466
 H    4.641861   -0.799299   -1.637372
 H    4.252074    1.316776   -2.476274
 H    2.437073    2.189777   -1.179351
 H    3.031898    1.739719    1.168944
 H    4.497012    2.761649    1.015619
 H    8.810821   -1.000970    0.406311
 H    9.060385   -0.032570    1.871003
 H    8.531616    0.743688    0.362528
 H    6.539527   -0.389314   -0.596184
 H    2.478875   -4.602104   -1.726550
 H    5.242245   -1.505713    2.596961
 H    5.810665    2.604461   -1.325205
 H    3.423128    4.319436   -1.077047
 H    2.688463    3.957803    1.854686
