23 
4led_ligand_dft.xyz
 O    1.373874    1.979747   -0.537890
 C    0.676301    0.914807    0.092869
 C    1.353783   -0.444495   -0.100733
 C    2.731480   -0.518939    0.529982
 C   -0.711220    0.888853   -0.529676
 O   -1.397526    2.099524   -0.273333
 C   -1.534748   -0.237892    0.089147
 O   -1.813996    0.048607    1.439750
 C   -0.755434   -1.553298    0.041547
 O    0.557042   -1.444219    0.528604
 O   -0.781665   -1.983389   -1.294692
 H    2.117463    2.229866    0.021480
 H    0.566343    1.099032    1.170793
 H    1.426622   -0.645158   -1.179052
 H    2.671709   -0.308328    1.603271
 H    3.152884   -1.519456    0.401315
 H    3.410070    0.198353    0.057169
 H   -0.609341    0.718299   -1.610819
 H   -0.758785    2.804522   -0.449210
 H   -2.462155   -0.370588   -0.485138
 H   -2.057969    0.985826    1.452943
 H   -1.232090   -2.276844    0.712725
 H   -0.287545   -2.811893   -1.333810
