26 
4len_ligand_dft.xyz
 C    3.983680   -1.712972    0.097545
 C    2.911765   -2.617022    0.016992
 C    1.607859   -2.164209   -0.052951
 C    2.439512    0.105547    0.039398
 C    0.212608    1.279730   -0.074605
 C    0.082799   -0.085545   -0.115587
 B   -0.862325    2.440146   -0.172873
 C    1.353964   -0.782450   -0.053532
 S    1.891194    1.757047    0.039804
 C    3.759479   -0.347825    0.111993
 C   -1.178482   -0.826692   -0.214798
 C   -2.347026   -0.491129    0.349976
 C   -3.576678   -1.331474    0.281442
 O   -0.693191    3.612658    0.497721
 O   -1.973602    2.349857   -0.950391
 O   -4.404796   -1.327731    1.152942
 O   -3.720138   -2.133848   -0.799609
 H    5.000108   -2.089462    0.154970
 H    3.111100   -3.683898    0.015863
 H    0.788188   -2.875416   -0.095217
 H    4.585768    0.352342    0.181222
 H   -1.111458   -1.766747   -0.764907
 H   -2.438437    0.373338    0.999291
 H    0.055239    3.606126    1.102472
 H   -2.028933    1.506510   -1.410403
 H   -3.072128   -1.899529   -1.476346
