61 
4lh5_ligand_dft.xyz
 C   -0.857062    0.842367    0.198673
 C   -1.627793   -0.324177    0.175007
 C   -3.003808   -0.210913   -0.092480
 N   -3.577884    0.963008   -0.344934
 C   -2.839418    2.078669   -0.331705
 C   -1.471659    2.081442   -0.050919
 C    0.607428    0.790760    0.478625
 C    1.091656    0.474246    1.753106
 C    2.454830    0.396193    1.988932
 C    3.361969    0.635886    0.954855
 C    2.905066    0.953942   -0.330287
 C    1.528709    1.030121   -0.538144
 C   -0.676035    3.372223   -0.016721
 C   -1.559517    4.616927    0.069842
 C   -2.692394    4.535859   -0.951240
 C   -3.600987    3.353815   -0.620563
 C   -3.925846   -1.403877   -0.091288
 C   -0.990670   -1.690482    0.376184
 C   -1.556928   -2.418115    1.597958
 O   -1.996463   -3.538488    1.624367
 O   -1.474677   -1.643122    2.700365
 O   -1.158099   -2.469324   -0.775292
 C   -0.031093   -3.199492   -1.287848
 C   -0.632450   -3.985670   -2.449960
 C    1.039828   -2.229240   -1.797609
 C    0.547197   -4.156296   -0.242685
 O    4.679794    0.510007    1.268331
 C    5.614538    0.991094    0.311037
 C    5.245193    0.567166   -1.102008
 C    3.885615    1.165699   -1.461130
 H    0.387850    0.268879    2.554155
 H    2.844545    0.147959    2.970701
 H    1.164051    1.251489   -1.539339
 H   -0.058231    3.438707   -0.923313
 H    0.030877    3.345071    0.819699
 H   -1.988580    4.698339    1.077651
 H   -0.948913    5.512177   -0.090278
 H   -3.274042    5.463936   -0.966571
 H   -2.265322    4.409428   -1.955564
 H   -4.207920    3.592944    0.263895
 H   -4.311314    3.150493   -1.428041
 H   -4.851049   -1.133682   -0.603298
 H   -4.183047   -1.688548    0.936785
 H   -3.471199   -2.272788   -0.570714
 H    0.068994   -1.534776    0.604161
 H   -1.827426   -2.175107    3.431522
 H    0.134693   -4.588405   -2.946587
 H   -1.069390   -3.299863   -3.182185
 H   -1.420931   -4.649869   -2.084441
 H    0.591366   -1.501837   -2.481818
 H    1.521753   -1.681143   -0.981726
 H    1.822147   -2.778575   -2.332506
 H    0.992245   -3.616938    0.601211
 H    1.339022   -4.763259   -0.694194
 H   -0.234133   -4.815243    0.142879
 H    5.664239    2.087830    0.378353
 H    6.578381    0.582860    0.621736
 H    6.018871    0.897871   -1.802275
 H    5.202055   -0.527328   -1.145093
 H    3.493661    0.716925   -2.380457
 H    3.999286    2.239942   -1.659777
