20 
4lh6_ligand_dft.xyz
 C    1.090232    1.291795    0.029858
 C   -0.345673    1.235941    0.000306
 C   -0.837302   -0.074095   -0.028074
 N   -2.604340    2.070403   -0.036592
 C   -1.292069    2.293019   -0.008269
 C   -2.709004   -1.723639   -0.018770
 C    1.621556    0.048979    0.009402
 C   -2.224447   -0.321584   -0.022414
 C   -3.035142    0.803546   -0.038546
 N   -0.892938    3.601166    0.045561
 O   -1.936734   -2.654034   -0.211535
 N   -4.045501   -1.932220    0.185481
 S    0.447203   -1.243208   -0.051725
Br    3.442315   -0.378160    0.031641
 H    1.686013    2.194645    0.079135
 H   -4.117334    0.698522   -0.086753
 H    0.022939    3.842052   -0.298607
 H   -1.622319    4.270564   -0.153314
 H   -4.315415   -2.897952    0.302067
 H   -4.605755   -1.247857    0.667802
