55 
4li7_ligand_dft.xyz
 C    3.387720   -0.198191   -0.271805
 C    4.729821   -0.644005   -0.272572
 C    3.145131    1.170162   -0.174584
 C    2.174910   -1.056211   -0.376298
 C    5.770619    0.279452   -0.179320
 O    4.954273   -1.972957   -0.364045
 C    4.173931    2.102714   -0.079919
 N    2.310753   -2.400444   -0.413451
 O    1.048465   -0.530003   -0.415278
 C    5.496355    1.637433   -0.083848
 C    6.294193   -2.462049   -0.389091
 C    3.859603    3.497275    0.019118
 C    1.210052   -3.281705   -0.767299
Cl    6.811190    2.746220    0.031399
 N    3.569986    4.615752    0.099262
 C    0.158803   -3.464138    0.331289
 N   -0.755491   -2.281707    0.438658
 C   -1.268445   -2.056202    1.828239
 C   -1.879658   -2.329769   -0.550308
 C   -2.056973   -0.757368    1.896537
 C   -2.669160   -1.029054   -0.519941
 C   -3.209092   -0.732968    0.890936
 C   -3.891584    0.642480    0.897188
 C   -5.243104    0.791128    0.295329
 O   -3.290330    1.595082    1.355259
 C   -5.761462    2.088787    0.180073
 C   -6.011406   -0.290377   -0.154254
 C   -7.011635    2.308285   -0.373311
 C   -7.266555   -0.087786   -0.710079
 C   -7.745468    1.212004   -0.811222
 F   -8.948474    1.411988   -1.345189
 H    2.115690    1.508883   -0.177508
 H    6.804507   -0.038514   -0.178975
 H    3.254755   -2.766441   -0.421505
 H    6.834648   -2.065382   -1.253536
 H    6.816329   -2.208720    0.538298
 H    6.208939   -3.544103   -0.476526
 H    1.638645   -4.263725   -0.976810
 H    0.741249   -2.932476   -1.695117
 H    0.653799   -3.593706    1.296120
 H   -0.456778   -4.346370    0.135211
 H   -0.155791   -1.456798    0.166933
 H   -0.399219   -2.021663    2.489258
 H   -1.874784   -2.929304    2.093553
 H   -2.503361   -3.190268   -0.284396
 H   -1.445612   -2.503726   -1.537235
 H   -1.394215    0.093303    1.706752
 H   -2.432668   -0.633974    2.916116
 H   -3.481539   -1.102756   -1.248718
 H   -2.022746   -0.203877   -0.844480
 H   -3.937778   -1.508507    1.160208
 H   -5.161833    2.920098    0.534639
 H   -5.647619   -1.309792   -0.068851
 H   -7.426403    3.305108   -0.470327
 H   -7.877754   -0.912467   -1.058124
