18 
4lil_ligand_dft.xyz
 P    2.054514   -0.563661    0.096476
 O    1.949666   -0.288631    1.548123
 O    1.598785   -1.954381   -0.473507
 O    1.148620    0.518775   -0.730665
 O    3.513678   -0.381933   -0.481466
 P   -0.040601    1.498966   -0.225611
 O   -0.094495    1.289581    1.356152
 O    0.021504    2.845816   -0.774477
 O   -1.379931    0.703300   -0.700672
 P   -1.969548   -0.647445   -0.025969
 O   -3.328316   -0.880342   -0.800152
 O   -2.484082   -0.199584    1.397141
 O   -1.013912   -1.779077   -0.099427
 H    0.617091   -2.076974   -0.361152
 H    3.636435   -0.778567   -1.355352
 H    0.710620    0.796510    1.700676
 H   -3.258179   -1.609260   -1.431910
 H   -1.823579    0.362192    1.845904
