18 
4lil_ligand_xtb.xyz
 P    1.519511   -0.824174    0.020368
 O    0.809248   -0.850983    1.298081
 O    1.431737   -2.021574   -0.974462
 O    1.079410    0.482147   -0.843806
 O    3.069249   -0.625048    0.207959
 P    0.223523    1.635095   -0.126105
 O    0.953437    1.916490    1.229920
 O   -0.041680    2.763549   -0.982698
 O   -1.110027    0.874811    0.366626
 P   -1.729117   -0.546900   -0.018923
 O   -3.207668   -0.139224   -0.423519
 O   -1.944510   -1.298670    1.327998
 O   -1.029043   -1.300231   -1.056821
 H    0.492249   -2.139755   -1.205926
 H    3.572241   -0.746313   -0.598072
 H    1.083711    1.100057    1.735384
 H   -3.281765    0.154478   -1.330498
 H   -2.156419   -0.738923    2.074808
