42 
4lj5_ligand_xtb.xyz
 P    0.460596   -2.072890   -0.903050
 O    0.980943   -3.002159   -2.067550
 O    1.103314   -2.721405    0.352832
 O    0.626458   -0.638175   -1.124637
 P   -2.102224   -1.886959    0.201805
 O   -3.431486   -2.717305   -0.061990
 O   -1.644555   -1.917914    1.586518
 O   -1.108234   -2.506201   -0.870461
 O   -2.427570   -0.467168   -0.423349
 C   -3.315223    0.360257    0.324310
 C   -2.744839    1.768093    0.514329
 O   -1.661473    1.743763    1.436951
 C   -2.235872    2.417740   -0.783292
 O   -2.598136    3.769453   -0.815540
 C   -0.712379    2.243056   -0.689966
 O   -0.056273    3.318901   -1.291372
 C   -0.476259    2.174818    0.839761
 N    0.603921    1.264591    1.130160
 C    0.577954    0.111806    1.842713
 N    1.681240   -0.582103    1.752829
 C    2.498484    0.150246    0.923926
 C    3.771773   -0.058984    0.369310
 N    4.537742   -1.125448    0.664161
 N    4.252987    0.861711   -0.471281
 C    3.516873    1.916471   -0.766548
 N    2.305299    2.219272   -0.331857
 C    1.822029    1.307237    0.514924
 H    0.912214   -2.558841   -2.912379
 H    1.320218   -2.043359    1.056351
 H   -3.472300   -3.488141    0.503675
 H   -4.263073    0.417414   -0.217022
 H   -3.479489   -0.077766    1.312393
 H   -3.533854    2.397746    0.945403
 H   -2.639795    1.897855   -1.661330
 H   -1.844027    4.247800   -1.194337
 H   -0.417687    1.283189   -1.130364
 H    0.904475    3.167893   -1.168131
 H   -0.198579    3.175064    1.219785
 H   -0.278381   -0.189873    2.410552
 H    5.380796   -1.261053    0.134365
 H    4.127857   -1.894011    1.164002
 H    3.958580    2.618917   -1.460391
