42 
4lj8_ligand_xtb.xyz
 P    3.224128   -0.932985    0.356750
 O    3.653263   -1.681114    1.687072
 O    3.938377   -1.371006   -0.845075
 O    3.243098    0.569105    0.703543
 P    0.960977   -0.966475   -1.147850
 O    1.631192   -1.982070   -2.151041
 O    1.048663    0.449332   -1.463193
 O    1.647744   -1.364255    0.272583
 O   -0.527924   -1.451260   -0.988980
 C   -0.950951   -2.663053   -0.375360
 C   -2.242966   -2.389104    0.410112
 O   -2.002672   -1.514118    1.505124
 C   -3.331468   -1.703666   -0.431676
 O   -4.596636   -2.025951    0.068475
 C   -2.998202   -0.216623   -0.235182
 O   -4.130367    0.590867   -0.329739
 C   -2.358434   -0.202696    1.178894
 N   -1.197801    0.659804    1.184230
 C    0.013335    0.415954    1.742342
 N    0.911548    1.313457    1.445819
 C    0.271357    2.212459    0.629494
 C    0.691695    3.318883   -0.131097
 N    1.964020    3.750755   -0.161690
 N   -0.236028    3.984322   -0.825084
 C   -1.481787    3.553311   -0.829541
 N   -1.982183    2.478852   -0.239970
 C   -1.063399    1.820331    0.471993
 H    4.094482   -2.507114    1.495205
 H    2.371871    0.921339    1.122240
 H    2.596635   -1.876387   -2.086903
 H   -1.133522   -3.409907   -1.152277
 H   -0.180781   -3.020318    0.310826
 H   -2.617085   -3.327855    0.829445
 H   -3.253920   -1.988287   -1.489329
 H   -5.150488   -1.237913   -0.032911
 H   -2.239585    0.073469   -0.969480
 H   -3.805093    1.507739   -0.383388
 H   -3.083239    0.167474    1.922929
 H    0.184018   -0.434553    2.371684
 H    2.188746    4.431166   -0.869130
 H    2.683404    3.110250    0.132008
 H   -2.181900    4.141468   -1.407584
