41 
4ljh_ligand_xtb.xyz
 C   -3.246489    2.630913    1.125738
 N   -2.744609    1.378498    0.638023
 C   -1.419911    1.018946    0.579860
 C   -3.495747    0.348813    0.155148
 C   -4.874630    0.226750    0.011127
 C   -5.362597   -0.948958   -0.513893
 C   -4.508822   -1.990393   -0.892892
 C   -3.144630   -1.881910   -0.755526
 C   -2.623067   -0.702376   -0.224469
 C   -1.305933   -0.238467    0.061057
 O   -0.177457   -0.999740   -0.162971
 C    1.005467   -0.490816    0.342542
 C    2.087282   -1.563206    0.161138
 C    3.403134   -1.029270    0.732950
 C    3.754825    0.304229    0.051694
 C    2.556519    1.261548    0.133502
 C    2.770662    2.524365   -0.711091
 O    1.761666   -2.754636    0.832483
 O    4.459976   -1.925544    0.494396
 O    4.102895    0.087273   -1.287254
 O    1.365151    0.672735   -0.351558
 O    1.644327    3.356355   -0.665186
 H   -3.844306    3.129249    0.358814
 H   -2.410058    3.274558    1.390969
 H   -3.871643    2.480004    2.010237
 H   -0.659909    1.702518    0.904374
 H   -5.539494    1.026598    0.300569
 H   -6.428159   -1.073275   -0.638215
 H   -4.936880   -2.894093   -1.300742
 H   -2.483724   -2.682091   -1.050782
 H    0.895835   -0.255489    1.425980
 H    2.202377   -1.739060   -0.919460
 H    3.273477   -0.872536    1.815751
 H    4.602075    0.759381    0.591053
 H    2.409759    1.536093    1.193065
 H    3.608830    3.098189   -0.313538
 H    2.994857    2.211550   -1.736881
 H    0.855703   -2.985664    0.592580
 H    4.149874   -2.804015    0.746986
 H    4.670307   -0.697261   -1.298070
 H    0.894509    2.823305   -0.959428
