88 
4lkj_ligand_xtb.xyz
 C   -3.914438   -0.193555    2.585706
 C   -3.034302   -0.520893    1.350965
 C   -3.072584   -2.002514    0.968333
 C   -4.433699   -2.380308    0.391298
 C   -4.779201   -1.406052   -0.751377
 C   -4.709214    0.038629   -0.219763
 C   -5.092155    1.052125   -1.315744
 C   -4.543633    2.461534   -1.046984
 C   -3.108544    2.656906   -1.551507
 C   -7.242903   -1.643532   -0.647424
 C   -8.464287   -1.765721   -1.533775
 N   -6.073594   -1.699270   -1.337108
 O   -4.008525   -1.208251    3.431880
 O   -4.411146    0.880103    2.774425
 O   -4.353045   -3.706002   -0.076842
 O   -3.407421    0.305339    0.269040
 O   -4.705847    0.568250   -2.584627
 O   -5.409576    3.364227   -1.705907
 O   -2.651594    3.893666   -1.049088
 O   -7.303428   -1.544176    0.559947
 C    1.606267   -0.248709    0.112535
 C    0.460060   -0.714969    1.033981
 C   -0.789091    0.135403    0.782315
 C   -0.424602    1.628614    0.859627
 C    0.722300    1.922086   -0.113587
 C    1.138358    3.391951   -0.070936
 O    0.158242   -2.055198    0.765486
 O   -1.760152   -0.119380    1.789629
 O   -0.015463    1.966224    2.159846
 O    1.851704    1.136981    0.205750
 O    0.225241    4.120819   -0.866984
 C    6.775618   -1.509607   -0.037388
 C    6.301717   -0.034843   -0.124318
 C    4.928912    0.090585    0.539205
 C    3.919177   -0.755468   -0.256668
 C    4.533776   -2.138104   -0.580960
 C    4.750208   -2.329504   -2.100023
 C    8.519128    0.989944    0.165948
 C    9.252866    2.103188    0.873339
 N    7.226140    0.867101    0.528865
 O    7.484192   -1.884481   -1.178994
 O    4.587509    1.450811    0.592055
 O    2.733537   -0.944390    0.514691
 O    5.708832   -2.379893    0.171610
 O    5.437592   -3.506861   -2.381997
 O    9.050555    0.248144   -0.643004
 H   -2.296338   -2.197787    0.227201
 H   -2.855785   -2.607818    1.846476
 H   -5.204416   -2.296814    1.169628
 H   -4.031593   -1.517854   -1.541413
 H   -5.432857    0.149744    0.598037
 H   -6.190089    1.145652   -1.290054
 H   -4.555368    2.642032    0.036069
 H   -3.104324    2.675340   -2.651845
 H   -2.495398    1.820698   -1.210574
 H   -9.343853   -1.912182   -0.914038
 H   -8.586959   -0.849573   -2.108094
 H   -8.358394   -2.599519   -2.223163
 H   -6.116308   -1.596644   -2.339022
 H   -4.539208   -0.958097    4.208102
 H   -5.228571   -3.975066   -0.375385
 H   -4.897809    1.272759   -3.215292
 H   -5.026275    4.243076   -1.596139
 H   -1.684281    3.926015   -1.095920
 H    1.341043   -0.491972   -0.939910
 H    0.783036   -0.575281    2.074376
 H   -1.193676   -0.107604   -0.203425
 H   -1.306196    2.222444    0.582243
 H    0.386722    1.684539   -1.136821
 H    2.156036    3.478387   -0.471818
 H    1.126836    3.731294    0.968786
 H    0.944538   -2.583807    0.948537
 H   -0.667405    1.581396    2.760915
 H    0.384245    5.062067   -0.735845
 H    7.405415   -1.629412    0.860790
 H    6.213601    0.241357   -1.186132
 H    4.981622   -0.329244    1.557301
 H    3.668427   -0.224834   -1.183550
 H    3.851993   -2.915505   -0.221793
 H    3.774217   -2.406191   -2.586466
 H    5.283874   -1.459934   -2.510303
 H   10.293099    2.102036    0.561922
 H    8.803407    3.061645    0.623857
 H    9.196947    1.961283    1.949844
 H    6.789135    1.581251    1.092222
 H    8.239192   -1.262051   -1.253134
 H    3.624327    1.516732    0.697557
 H    6.311539   -3.427969   -1.968134
