45 
4lko_ligand_xtb.xyz
 C    1.549357   -0.410442    0.197858
 C    0.736719    0.790540   -0.116432
 N   -3.226454    2.841205    0.424790
 C   -2.538216    2.478843   -0.852822
 C   -0.620245    0.939404   -0.358748
 C   -1.077453    2.243894   -0.587529
 C   -0.577305    4.730102   -0.786323
 C   -0.162983    3.310367   -0.555691
 N    1.133447    3.139313   -0.323872
 C    1.562386    1.914849   -0.112560
 C    2.961112    1.479139    0.169414
 N    2.818373    0.052053    0.355897
 C    3.936956   -0.801824    0.655182
 C    4.886052   -0.957992   -0.553606
 O    5.753958   -2.046804   -0.434390
 C    6.797270   -1.880665    0.498428
 C   -1.482142   -0.261441   -0.378622
 C   -2.317127   -0.595804    0.681445
Cl   -2.394021    0.444413    2.091921
 C   -3.058165   -1.760787    0.698327
 C   -2.968029   -2.626759   -0.384800
Cl   -3.884513   -4.077521   -0.379646
 C   -2.137346   -2.322449   -1.456152
 C   -1.400513   -1.155618   -1.443288
 O    1.170297   -1.553810    0.318720
 H   -4.236840    2.947896    0.297510
 H   -3.032139    2.059502    1.124724
 H   -2.836782    3.715103    0.793444
 H   -2.682335    3.283146   -1.575254
 H   -2.996366    1.565013   -1.234818
 H   -1.101866    4.843520   -1.732834
 H   -1.212921    5.104093    0.015539
 H    0.319236    5.342045   -0.814207
 H    3.366420    1.962884    1.065224
 H    3.625370    1.716595   -0.668515
 H    3.530709   -1.785715    0.904963
 H    4.476644   -0.400844    1.518761
 H    5.454831   -0.026677   -0.707007
 H    4.286625   -1.163140   -1.445456
 H    7.347441   -0.950454    0.314511
 H    6.429852   -1.883548    1.529779
 H    7.464949   -2.727513    0.357045
 H   -3.686482   -2.007591    1.539397
 H   -2.056344   -3.006973   -2.284495
 H   -0.738502   -0.927728   -2.263812
