54 
4lkt_ligand_xtb.xyz
 C   -5.715276    2.027305    0.416369
 C   -4.371417    1.333223    0.304401
 C   -4.417357    0.159609   -0.670550
 C   -3.067739   -0.545484   -0.777955
 C   -3.131912   -1.726773   -1.742422
 C   -1.780280   -2.392404   -2.008176
 C   -1.150604   -3.059500   -0.777022
 C   -0.093233   -2.195495   -0.090330
 C    0.489785   -2.890691    1.138916
 C    1.458457   -2.011142    1.929392
 C    2.760633   -1.712799    1.176437
 C    3.687628   -0.901079    2.029424
 C    3.768883    0.420572    2.062686
 C    2.981303    1.396043    1.244756
 C    3.894188    2.242895    0.351301
 C    4.584096    1.399460   -0.717384
 C    5.528744    2.228495   -1.583456
 C    6.221805    1.377470   -2.640331
 O   -6.704635    1.700913   -0.167236
 O   -5.728795    3.085445    1.255287
 H   -4.080138    0.983905    1.300401
 H   -3.628445    2.066976   -0.024645
 H   -4.724272    0.527044   -1.651045
 H   -5.179199   -0.546791   -0.337313
 H   -2.769788   -0.896097    0.211721
 H   -2.313751    0.164633   -1.127364
 H   -3.535393   -1.375843   -2.695464
 H   -3.826997   -2.471922   -1.349073
 H   -1.087353   -1.651910   -2.413624
 H   -1.934853   -3.147574   -2.781752
 H   -0.674886   -3.995636   -1.078295
 H   -1.934970   -3.314603   -0.061295
 H   -0.527882   -1.241713    0.212613
 H    0.703342   -1.985388   -0.806514
 H    1.000474   -3.805846    0.829917
 H   -0.332214   -3.180911    1.798872
 H    1.706983   -2.512788    2.867934
 H    0.970883   -1.066355    2.181756
 H    2.537393   -1.182821    0.251284
 H    3.243558   -2.657236    0.915857
 H    4.313324   -1.477125    2.699529
 H    4.480729    0.883788    2.735401
 H    2.442691    2.061555    1.926720
 H    2.243882    0.882974    0.627808
 H    4.650910    2.731523    0.969755
 H    3.302746    3.025689   -0.130114
 H    3.827698    0.934258   -1.354575
 H    5.145105    0.597508   -0.232137
 H    6.281532    2.698890   -0.946591
 H    4.964649    3.026784   -2.072163
 H    6.806387    0.589457   -2.170386
 H    5.489329    0.913183   -3.297305
 H    6.889289    1.985866   -3.246270
 H   -4.869549    3.247443    1.665615
