75 
4ll3_ligand_xtb.xyz
 N   -6.990525    2.260135   -0.930532
 C   -6.101675    1.220101   -0.993424
 C   -6.081481    0.241504    0.008194
 C   -5.139204   -0.764196   -0.018790
 C   -4.209254   -0.806385   -1.042271
 C   -4.212161    0.150552   -2.041539
 C   -5.154154    1.157361   -2.021930
 S   -2.980481   -2.099047   -1.037045
 O   -3.601096   -3.368039   -0.803922
 O   -2.183694   -1.955112   -2.231737
 N   -1.992644   -1.764868    0.255138
 C   -2.168338   -2.488542    1.490836
 C   -0.847991   -3.089915    1.992615
 C   -0.323269   -4.104110    0.981360
 C   -1.059180   -3.738144    3.357914
 C   -1.467102   -0.420669    0.303459
 C   -0.092411   -0.301208   -0.380444
 O   -0.196337   -0.186183   -1.775481
 C    0.693880    0.924493    0.126885
 N    2.032819    0.846077   -0.412271
 C    3.131514    0.956987    0.353066
 O    3.140227    1.168348    1.540698
 O    4.252555    0.807281   -0.403980
 C    5.475878    0.943583    0.296024
 C    5.857235   -0.299630    1.121089
 O    7.259674   -0.204113    1.259254
 C    7.777289    0.255092    0.051547
 O    8.110968   -0.815131   -0.802327
 C    7.760895   -0.463662   -2.123469
 C    6.482699    0.370537   -2.007225
 C    6.668559    1.081339   -0.662309
 C    0.046187    2.260560   -0.283059
 C   -1.022354    2.826572    1.914098
 C   -2.125353    3.133904    2.689776
 C   -3.377342    3.241617    2.107123
 C   -3.517225    3.052933    0.743367
 C   -2.411844    2.744479   -0.030494
 C   -1.154207    2.616090    0.545828
 H   -7.791639    2.153902   -0.331466
 H   -7.138195    2.799010   -1.767210
 H   -6.812468    0.282931    0.801857
 H   -5.121186   -1.531216    0.739062
 H   -3.476418    0.082964   -2.827188
 H   -5.166977    1.906794   -2.799555
 H   -2.600766   -1.831774    2.258808
 H   -2.870555   -3.294566    1.272636
 H   -0.118927   -2.278549    2.096462
 H   -0.260367   -3.652185   -0.005553
 H   -0.998560   -4.954210    0.918221
 H    0.662468   -4.460819    1.270939
 H   -1.800427   -4.530987    3.289257
 H   -1.402963   -3.005924    4.085321
 H   -0.127973   -4.167525    3.718430
 H   -2.165109    0.255706   -0.199423
 H   -1.385281   -0.109043    1.347015
 H    0.490540   -1.201721   -0.122264
 H   -0.822138   -0.868295   -2.092729
 H    0.797197    0.873560    1.214964
 H    2.119292    0.654977   -1.397748
 H    5.410161    1.810972    0.963875
 H    5.573150   -1.208315    0.573688
 H    5.415557   -0.309294    2.115851
 H    8.681402    0.835195    0.288795
 H    7.633143   -1.388240   -2.686737
 H    8.569781    0.127763   -2.578064
 H    6.367370    1.067055   -2.833580
 H    5.608329   -0.276658   -1.967471
 H    6.962179    2.121906   -0.792318
 H   -0.221977    2.198350   -1.337887
 H    0.805284    3.037420   -0.160472
 H   -0.046293    2.753544    2.371591
 H   -2.007954    3.293265    3.751672
 H   -4.238901    3.480633    2.712881
 H   -4.488569    3.144366    0.280730
 H   -2.527991    2.600474   -1.095427
