41 
4lm5_ligand_dft.xyz
 C    3.719204   -2.220589    0.255442
 C    4.529322   -1.206707   -0.214699
 C    3.972229   -0.046189   -0.772044
 C    2.597279    0.083992   -0.811015
 C    1.744522   -0.913150   -0.297291
 C    2.320208   -2.105935    0.198440
 O    1.603744   -3.137457    0.645201
 C    0.291223   -0.696385   -0.247326
 N   -0.120968    0.611145   -0.282822
 C   -1.418606    0.885498   -0.232250
 C   -2.391988   -0.168695   -0.123749
 C   -1.861918   -1.476709   -0.036458
 N   -0.513809   -1.718676   -0.104625
 C   -2.740034   -2.569429    0.108797
 C   -4.098228   -2.359534    0.155982
 C   -4.629709   -1.058222    0.054591
 C   -3.790154    0.021627   -0.084594
 N   -1.775061    2.190622   -0.250389
 C   -0.919436    3.277572   -0.707870
 C   -0.128544    4.029199    0.389212
 C    1.325994    3.605684    0.576452
 N    1.438511    2.231086    1.146949
 H    4.134807   -3.135776    0.662666
 H    5.607734   -1.323857   -0.175254
 H    4.611556    0.718815   -1.200214
 H    2.148649    0.950548   -1.291333
 H    0.656985   -2.966820    0.435629
 H   -2.315932   -3.565645    0.171391
 H   -4.770772   -3.204176    0.264112
 H   -5.703744   -0.910359    0.080473
 H   -4.227342    1.011923   -0.174080
 H   -2.758687    2.396363   -0.181740
 H   -1.576647    3.993102   -1.206702
 H   -0.238928    2.885579   -1.471536
 H   -0.671236    3.973699    1.340469
 H   -0.095639    5.090183    0.121500
 H    1.852473    4.295247    1.239651
 H    1.850790    3.584726   -0.382332
 H    2.397986    1.873342    1.120379
 H    1.110229    2.192593    2.113982
 H    0.828858    1.548754    0.537828
