33 
4ln7_ligand_xtb.xyz
 O    4.569715    1.207404    0.078480
 C    3.416048    0.525638    0.025162
 C    3.434563   -0.885550   -0.021636
 O    4.623525   -1.533015   -0.030302
 C    2.211371   -1.525825   -0.037182
 C    1.018860   -0.796338   -0.027321
 C   -0.262790   -1.515416    0.045255
 C   -1.208682   -1.175864    1.011125
 C   -2.400461   -1.867284    1.104400
 C   -2.640462   -2.905208    0.221409
 F   -3.803571   -3.583849    0.306532
 C   -1.720152   -3.269341   -0.743921
 C   -0.529327   -2.571313   -0.822749
 C    1.113930    0.596939   -0.027783
 C   -0.055421    1.487629   -0.093464
 C   -0.070937    2.650453    0.673783
 C   -1.151153    3.510526    0.633751
 C   -2.214974    3.200860   -0.194186
 F   -3.277579    4.032210   -0.235990
 C   -2.217106    2.067210   -0.987288
 C   -1.131848    1.213921   -0.934644
 N    2.297883    1.213110    0.017472
 H    4.357483    2.151280    0.098829
 H    4.479314   -2.487636   -0.049665
 H    2.173462   -2.607787   -0.030755
 H   -1.000738   -0.369829    1.697876
 H   -3.138228   -1.615613    1.849522
 H   -1.939729   -4.084118   -1.415633
 H    0.194273   -2.835689   -1.579959
 H    0.774748    2.867123    1.307180
 H   -1.178926    4.409104    1.229523
 H   -3.056664    1.867105   -1.634020
 H   -1.114499    0.337701   -1.563781
