45 
4loo_ligand_xtb.xyz
 C    2.967132   -0.577558   -1.193798
 C    4.406816   -0.104943   -1.103585
 N    5.233266   -1.146423   -0.427758
 C    4.743370   -1.432206    0.948717
 C    3.311225   -1.942161    0.879454
 C    2.425436   -0.886561    0.211028
 C   -2.986411    0.280823   -0.730739
 C   -4.331118    0.575218   -0.841215
 C   -5.254660   -0.303444   -0.300218
 C   -4.867757   -1.472726    0.331906
 C   -3.520847   -1.758298    0.433332
 C   -2.567827   -0.879111   -0.079975
 F   -6.563431   -0.014496   -0.400637
 C   -0.857587    1.733992    1.057069
 C    0.088998    1.015451    0.322766
 N    1.150548    1.623477   -0.222670
 C    1.246331    2.943326   -0.048133
 N    0.399997    3.703191    0.642013
 C   -0.637432    3.094976    1.188159
 N    2.344150    3.562888   -0.562423
 N    1.046313   -1.284368    0.139660
 C    0.527545   -2.535584    0.036951
 N   -0.768050   -2.529843   -0.021902
 C   -1.158165   -1.226138    0.036222
 C   -0.034792   -0.418815    0.150184
 H    2.880040   -1.458358   -1.832902
 H    2.351251    0.220033   -1.612840
 H    4.461286    0.811535   -0.512783
 H    4.819417    0.085867   -2.095470
 H    6.216054   -0.854246   -0.398548
 H    5.173100   -2.012329   -0.979148
 H    4.793050   -0.507739    1.527414
 H    5.395157   -2.173580    1.414263
 H    2.952549   -2.150835    1.887372
 H    3.280715   -2.876568    0.316191
 H    2.459245    0.041587    0.794422
 H   -2.257724    0.947032   -1.167727
 H   -4.671236    1.466763   -1.343422
 H   -5.615998   -2.139161    0.730159
 H   -3.186559   -2.665153    0.911491
 H   -1.703625    1.245225    1.506115
 H   -1.311288    3.727927    1.748750
 H    2.779346    3.142539   -1.366105
 H    2.294178    4.569426   -0.555232
 H    1.116815   -3.429405    0.016547
