45 
4loq_ligand_dft.xyz
 C    3.313160   -2.116903   -0.715477
 C    4.676088   -1.437903   -0.923304
 N    4.888145   -0.329966    0.099214
 C    4.301460   -0.675626    1.446013
 C    2.775697   -0.739832    1.313654
 C    2.364608   -1.070503   -0.135788
 C   -3.074336    0.326456   -0.807848
 C   -4.407978    0.713059   -0.788987
 C   -5.314706   -0.060587   -0.078432
 C   -4.928464   -1.207033    0.601771
 C   -3.591491   -1.579367    0.576453
 C   -2.647605   -0.811305   -0.114424
 F   -6.599766    0.305712   -0.056193
 C   -0.642313    1.760829    0.843020
 C    0.151291    0.966130    0.011584
 N    1.225788    1.483455   -0.607241
 C    1.521226    2.763038   -0.359455
 N    0.842446    3.598725    0.426755
 C   -0.242183    3.079488    1.007099
 N    2.689702    3.232273   -0.937524
 N    0.958057   -1.396961   -0.220753
 C    0.384648   -2.629450   -0.196336
 N   -0.920682   -2.574615   -0.153341
 C   -1.239933   -1.239636   -0.123661
 C   -0.086680   -0.473868   -0.143993
 H    3.411789   -2.984019   -0.053882
 H    2.957385   -2.478187   -1.683563
 H    4.748882   -0.963715   -1.903769
 H    5.507660   -2.134246   -0.804761
 H    4.456910    0.543539   -0.227826
 H    5.888678   -0.134396    0.185389
 H    4.634155    0.082528    2.156412
 H    4.743699   -1.634249    1.725787
 H    2.326962    0.212043    1.609929
 H    2.393988   -1.510554    1.989557
 H    2.457129   -0.162336   -0.736248
 H   -2.362846    0.908190   -1.386101
 H   -4.754322    1.587856   -1.327571
 H   -5.670512   -1.790071    1.135405
 H   -3.268272   -2.478100    1.091124
 H   -1.510638    1.362313    1.351394
 H   -0.805600    3.752170    1.648868
 H    2.845642    2.877777   -1.872381
 H    2.770771    4.240563   -0.885033
 H    0.967328   -3.540808   -0.228096
