44 
4lp0_ligand_xtb.xyz
 C    8.352214    0.809953   -0.621519
 C    7.480109    0.602305    0.611621
 O    4.712580    1.040046    0.507388
 N    4.344854   -1.163275   -0.019296
 C    2.971726   -1.209281   -0.129764
 C    2.141894   -0.100078    0.034200
 C    0.770827   -0.275081   -0.097179
 C    0.265707   -1.561845   -0.370478
 C    1.195924   -2.581173   -0.537723
 C   -1.175639   -1.821734   -0.455421
 C   -2.012672   -1.575764    0.627442
 C   -3.382169   -1.750489    0.481444
 C   -3.853969   -2.232910   -0.739832
 C   -4.279167   -1.445019    1.635196
 C   -0.120184    0.861733    0.002307
 N   -1.324173    0.890799   -0.464057
 C   -1.935398    2.067081   -0.225584
 C   -3.337124    2.250727   -0.708308
 N    6.457996   -0.396454    0.385513
 C    5.142903   -0.072534    0.302424
 N    2.499166   -2.419319   -0.425478
 N   -3.059849   -2.517249   -1.752734
 C   -1.764549   -2.302991   -1.624254
 O   -3.956069   -1.634084    2.775254
 O   -5.480082   -0.937934    1.322639
 C   -1.187616    2.995798    0.442788
 S    0.359631    2.358828    0.788561
 F   -3.404041    2.461088   -2.032167
 F   -4.108147    1.176918   -0.461261
 F   -3.938420    3.296967   -0.126142
 H    8.865032   -0.111755   -0.890045
 H    7.744034    1.129978   -1.463824
 H    9.098119    1.573591   -0.421376
 H    6.956221    1.524723    0.868837
 H    8.096895    0.294007    1.462165
 H    4.776563   -2.065305   -0.169049
 H    2.570605    0.866917    0.240606
 H    0.868610   -3.587683   -0.761914
 H   -1.618573   -1.234512    1.573808
 H   -4.906102   -2.431852   -0.905680
 H    6.770004   -1.319219    0.129122
 H   -1.163272   -2.514703   -2.498408
 H   -5.559466   -0.723594    0.382955
 H   -1.471604    3.985491    0.737921
