150 
4lp6_ligand_dft.xyz
 C    0.613888   -7.806667   -1.693070
 C   -0.380920   -6.725776   -2.057876
 O    0.358335   -5.536756   -2.317261
 C   -0.308676   -4.405572   -2.579613
 C   -1.682003   -4.297764   -2.653691
 C   -2.244664   -3.018166   -2.867957
 C   -3.742862   -2.851631   -2.995834
 O   -4.401981   -3.924237   -3.489038
 O   -4.338333   -1.856181   -2.691522
 N   -1.544299   -1.916375   -2.965601
 C   -0.191670   -2.020100   -2.932071
 C    0.496314   -3.244473   -2.777947
 C    1.909620   -3.271199   -2.796159
 C    2.595671   -2.097830   -2.982319
 C    1.933793   -0.858312   -3.105006
 C    0.557839   -0.804206   -3.042070
 N   -0.204948    0.353844   -3.026357
 C    0.215573    1.647742   -2.959419
 O    1.365172    2.028390   -3.123477
 C   -0.910250    2.604052   -2.648534
 C   -0.691346    3.978764   -2.794175
 C   -1.726087    4.834246   -2.488975
 O   -1.506906    6.156699   -2.608064
 N   -2.033632    2.072657   -2.209102
 C   -3.055927    2.903556   -1.904743
 C   -2.981014    4.309057   -2.058446
 C   -4.117039    5.099854   -1.754227
 C   -5.258873    4.502020   -1.290775
 C   -5.333968    3.109556   -1.076827
 C   -4.244307    2.317489   -1.355166
 N   -4.153449    0.958961   -1.073301
 C   -4.996093    0.198469   -0.329300
 O   -6.131737    0.500215    0.009652
 C   -4.378383   -1.114730    0.095769
 C   -5.224653   -2.153265    0.510334
 C   -4.662128   -3.362093    0.846648
 O   -5.485017   -4.358055    1.229404
 N   -3.066680   -1.202793    0.066106
 C   -2.501759   -2.382671    0.401587
 C   -3.244946   -3.528303    0.770349
 C   -2.556904   -4.738863    1.048083
 C   -1.187515   -4.781574    0.970269
 C   -0.426090   -3.641402    0.633333
 C   -1.068848   -2.451736    0.373942
 N   -0.447895   -1.241812    0.116057
 C    0.863405   -0.926153    0.194813
 O    1.774975   -1.751201    0.276704
 C    1.101467    0.557761    0.195858
 C    2.389256    1.060973   -0.044014
 C    2.554646    2.433407   -0.058550
 O    3.704581    3.075128   -0.280590
 C    4.830089    2.360435   -0.801547
 C    4.648517    2.039785   -2.283819
 C    5.834772    1.221300   -2.795540
 C    4.444764    3.315195   -3.100733
 N    0.042990    1.297555    0.439485
 C    0.196399    2.642310    0.469416
 C    1.428546    3.277204    0.198372
 C    1.501564    4.688366    0.187453
 C    0.371390    5.416569    0.467605
 C   -0.861524    4.804538    0.777078
 C   -0.960896    3.428520    0.785406
 N   -2.098725    2.697632    1.076037
 C   -3.292494    3.153935    1.617275
 O   -3.590982    4.335314    1.726840
 N   -4.095445    2.128786    2.017216
 C   -5.370113    2.359817    2.661526
 C   -5.866621    1.080746    3.332863
 C   -4.948640    0.521761    4.443027
 C   -4.135432   -0.708380    4.048771
 O   -3.167261   -0.454497    3.024561
 C   -1.869701   -0.225088    3.439839
 C   -0.973831   -1.292364    3.442940
 C   -1.443777    1.055022    3.776944
 C   -0.102141    1.263903    4.087356
 C    0.798513    0.207386    4.075431
 C    0.366412   -1.083601    3.758072
 C    1.346963   -2.241260    3.764935
 N    2.562407   -1.959078    3.028135
 C    3.696445   -1.553643    3.648519
 O    3.810091   -1.486484    4.867127
 C    4.845097   -1.160244    2.748673
 C    4.880753   -1.404605    1.372648
 C    5.968322   -0.985084    0.616121
 C    7.022624   -0.327281    1.242683
 S    8.372537    0.353317    0.304082
 O    7.957795    1.624686   -0.273714
 O    9.565687    0.269682    1.131060
 N    8.497216   -0.705887   -0.986671
 C    7.013804   -0.096102    2.615362
 C    5.921510   -0.517722    3.361093
 H    1.319061   -7.973970   -2.511593
 H    1.178336   -7.521089   -0.800952
 H    0.088304   -8.744127   -1.488971
 H   -1.083680   -6.541542   -1.235344
 H   -0.955946   -6.999769   -2.952430
 H   -2.323052   -5.149935   -2.463687
 H   -3.771981   -4.557265   -3.859124
 H    2.426966   -4.214884   -2.672654
 H    3.680946   -2.108270   -3.018373
 H    2.491988    0.057794   -3.234588
 H   -1.201527    0.203448   -2.885674
 H    0.275883    4.352430   -3.104527
 H   -2.238348    6.649190   -2.216739
 H   -4.109177    6.177629   -1.895140
 H   -6.127233    5.109709   -1.058664
 H   -6.229762    2.658776   -0.672347
 H   -3.266996    0.531871   -1.323857
 H   -6.296763   -2.004300    0.537507
 H   -4.976566   -5.126681    1.512334
 H   -3.093813   -5.645323    1.317753
 H   -0.665004   -5.709632    1.183970
 H    0.652869   -3.690150    0.578799
 H   -1.082633   -0.448930    0.047098
 H    3.194975    0.366042   -0.238189
 H    5.013523    1.461689   -0.202350
 H    5.678276    3.030288   -0.646589
 H    3.738060    1.439858   -2.384786
 H    6.770310    1.782076   -2.689963
 H    5.946696    0.282548   -2.240283
 H    5.697559    0.974866   -3.853951
 H    3.573351    3.869729   -2.743660
 H    5.326796    3.965072   -3.036233
 H    4.273248    3.071324   -4.153898
 H    2.444968    5.170537   -0.037528
 H    0.418975    6.501370    0.455931
 H   -1.737180    5.394664    1.011889
 H   -1.948218    1.697654    1.014297
 H   -3.729877    1.184076    2.052830
 H   -6.107946    2.688252    1.920599
 H   -5.262915    3.166222    3.397236
 H   -6.033333    0.323927    2.555835
 H   -6.852629    1.303880    3.753514
 H   -5.559635    0.216333    5.301559
 H   -4.271993    1.301113    4.815461
 H   -4.799881   -1.475574    3.636059
 H   -3.622847   -1.127964    4.922486
 H   -1.335885   -2.280871    3.173366
 H   -2.148021    1.878495    3.773614
 H    0.238474    2.264540    4.334565
 H    1.840826    0.376334    4.327608
 H    0.872541   -3.129576    3.333493
 H    1.644747   -2.477127    4.790111
 H    2.457026   -1.836723    2.026287
 H    4.069002   -1.916052    0.866780
 H    6.009340   -1.188013   -0.448140
 H    8.598651   -0.176609   -1.847378
 H    9.260855   -1.361222   -0.850393
 H    7.854712    0.398685    3.089216
 H    5.881685   -0.359174    4.433048
