10 
4lpf_ligand_xtb.xyz
 N    9.940574   19.073846   21.757170
 N   10.368285   18.031363   22.503739
 C   11.245624   18.588240   23.320050
 N   11.403637   19.926159   23.123242
 C   10.573499   20.191317   22.146971
 N   11.888171   17.922910   24.317016
 H    9.243843   18.931072   21.044830
 H   10.414401   21.155168   21.708971
 H   12.725022   18.371569   24.650959
 H   11.929944   16.923356   24.209052
