37 
4lqy_ligand_xtb.xyz
 P   -1.155170   -2.467441   -0.364350
 O    0.358700   -2.450889   -0.807037
 O   -1.454402   -3.029382    0.954029
 O   -1.872564   -3.211048   -1.575931
 O   -1.620935   -0.947737   -0.579111
 C   -2.852880   -0.587083    0.027144
 C   -2.800181    0.858875    0.530155
 O   -1.791972    1.020700    1.521067
 C   -2.478616    1.884537   -0.568219
 O   -3.065454    3.115887   -0.262445
 C   -0.945433    1.952343   -0.509188
 O   -0.473621    3.211924   -0.872369
 C   -0.649520    1.594528    0.972654
 N    0.480903    0.694380    1.024782
 C    0.586312   -0.542871    1.578736
 N    1.715415   -1.139279    1.310941
 C    2.420213   -0.243256    0.541506
 C    3.690325   -0.250377   -0.064273
 N    4.541042   -1.282914    0.026545
 N    4.056666    0.823655   -0.770930
 C    3.224960    1.841685   -0.887050
 N    2.014100    1.975009   -0.371699
 C    1.646142    0.909125    0.347496
 H    0.931045   -2.269087   -0.045202
 H   -1.944860   -4.146043   -1.388614
 H   -3.661880   -0.695467   -0.700757
 H   -3.034413   -1.252845    0.876488
 H   -3.755486    1.102173    1.004962
 H   -2.821409    1.533494   -1.550844
 H   -2.441084    3.803499   -0.537696
 H   -0.529868    1.165282   -1.152538
 H    0.501858    3.164648   -0.844332
 H   -0.391117    2.505019    1.538838
 H   -0.195073   -0.968305    2.176006
 H    5.446441   -1.205349   -0.400839
 H    4.300569   -2.075678    0.592925
 H    3.579995    2.673630   -1.480017
