34 
4lrr_ligand_xtb.xyz
 O   -3.269263   -2.854943    1.593388
 N   -3.471856   -2.286464    0.544524
 O   -4.127890   -2.726929   -0.372061
 C   -2.877424   -0.977296    0.369573
 C   -2.074868   -0.456255    1.375772
 C   -1.487261    0.781274    1.199214
 C   -3.131532   -0.264528   -0.795351
 C   -2.549808    0.975827   -0.961412
 C   -1.704253    1.490194    0.020000
 C   -1.104667    2.844319   -0.211705
 O   -1.731509    3.755098   -0.673342
 O    0.183547    3.029824    0.145441
 C    1.039157    1.975081    0.390980
 C    1.209197    0.924037   -0.552312
 C    0.645177    0.724610   -1.830927
 C    0.964692   -0.396607   -2.566095
 C    1.855709   -1.389143   -2.117537
 C    2.441601   -1.203738   -0.889543
 C    1.779920    1.993131    1.554951
 C    2.701728    0.989166    1.912841
 C    2.846091   -0.058677    1.045489
 C    2.109528   -0.062624   -0.149126
 O    3.629951   -1.175365    1.096977
 C    3.435228   -1.925008   -0.054316
 O    4.011792   -2.952571   -0.248419
 H   -1.920721   -1.027241    2.278522
 H   -0.876891    1.198000    1.985202
 H   -3.780335   -0.690067   -1.545513
 H   -2.741338    1.559011   -1.848954
 H   -0.020950    1.463792   -2.250690
 H    0.517355   -0.518272   -3.541271
 H    2.074409   -2.249433   -2.729504
 H    1.636891    2.826535    2.225926
 H    3.252258    1.059416    2.835763
