90 
4lte_ligand_dft.xyz
 C    2.800244    2.660353   -0.907391
 C    2.158015    1.354603   -0.491159
 O    2.222784    0.349705   -1.198133
 C    4.265179    2.454368   -1.311141
 C    5.154622    1.836420   -0.218152
 C    5.181372    2.638117    1.093234
 C    6.593196    1.645758   -0.729802
 C    5.911454    3.976767    0.952252
 C    7.354182    2.969687   -0.872404
 C    7.339105    3.767464    0.435583
 C   -4.034316    0.998640    1.127925
 C   -5.468395    1.123659    0.732118
 C   -6.941098    1.626742   -1.195815
 C   -1.678389    0.871658    0.576605
 C   -2.997682    1.102900    0.198241
 C   -5.601513    4.013321   -1.728853
 C   -6.680262    3.624220   -2.518519
 O   -6.338458    0.494501    1.325061
 O    3.416112   -0.081005    1.901615
 C   -5.178451    3.200710   -0.682304
 C   -5.847369    2.003618   -0.410668
 N    1.472497    1.348094    0.682366
 C   -7.346995    2.428785   -2.253950
 C   -1.360956    0.535945    1.893335
 C   -2.404928    0.443430    2.822670
 C   -3.721063    0.658282    2.448807
 C    0.047830    0.218169    2.360245
 C    1.088991    0.073732    1.252560
 C    2.367995   -0.678583    1.693175
 N   -0.206965   -2.907800   -1.287439
 C    1.248325   -2.864337   -1.314774
 C    1.867969   -4.139502   -0.714133
 C    3.393047   -4.125603   -0.554810
 C    4.003643   -3.022199    0.324935
 C    3.410501   -2.872475    1.738920
 N    2.232514   -2.020514    1.762503
 C    1.635046   -2.707774   -2.786616
 O    1.063706   -3.362772   -3.647175
 N    2.658191   -1.854153   -3.029082
 C   -0.931176   -2.776585   -0.161252
 O   -0.421154   -2.693178    0.962568
 C   -2.401090   -2.640232   -0.345512
 C   -3.189484   -2.519069    0.720594
 C   -4.609819   -2.110162    0.574857
 O   -5.203895   -1.990201    1.766451
 O   -5.141264   -1.840516   -0.480756
 H    2.237398    3.036779   -1.769662
 H    2.710733    3.411837   -0.115898
 H    4.285225    1.793723   -2.185828
 H    4.660570    3.421230   -1.642248
 H    4.743056    0.848484    0.018331
 H    4.166127    2.782180    1.479889
 H    5.691643    2.027638    1.849019
 H    6.583357    1.110692   -1.688051
 H    7.132528    1.005151   -0.018857
 H    5.933500    4.495076    1.918110
 H    5.365185    4.633997    0.260699
 H    8.387848    2.772060   -1.179711
 H    6.906988    3.575590   -1.671959
 H    7.911759    3.216695    1.195459
 H    7.842124    4.731956    0.298702
 H   -7.447615    0.694109   -0.971253
 H   -0.898543    0.947052   -0.173400
 H   -3.221891    1.328304   -0.839448
 H   -5.090209    4.950313   -1.926965
 H   -7.003784    4.254678   -3.341574
 H   -4.340084    3.504782   -0.062562
 H    1.674353    2.093517    1.333401
 H   -8.185370    2.124879   -2.873150
 H   -2.179074    0.175554    3.851959
 H   -4.524069    0.549285    3.170000
 H    0.010197   -0.732953    2.901436
 H    0.380878    0.970344    3.089061
 H    0.639016   -0.509455    0.448854
 H   -0.654562   -3.099954   -2.175467
 H    1.578926   -1.985128   -0.758840
 H    1.391440   -4.309510    0.256843
 H    1.579201   -4.980130   -1.355494
 H    3.678059   -5.099726   -0.136610
 H    3.862863   -4.069695   -1.544111
 H    5.075069   -3.235624    0.420229
 H    3.936235   -2.047052   -0.172463
 H    4.151823   -2.419961    2.400712
 H    3.138931   -3.847569    2.157710
 H    1.332242   -2.414098    1.491261
 H    2.813772   -1.079762   -2.388991
 H    2.868217   -1.691697   -4.004263
 H   -2.814873   -2.539101   -1.345904
 H   -2.779111   -2.596217    1.721735
 H   -5.972746   -1.394899    1.651012
