22 
4luv_ligand_dft.xyz
 O    1.936423    0.336119    0.031807
 C    3.089293   -0.392574   -0.022036
 C    0.900289   -0.531338   -0.098719
 C    2.800925   -1.711417   -0.184181
 C    1.383357   -1.803693   -0.236084
 C    4.371941    0.320440    0.103431
 C   -0.448064    0.029877   -0.078896
 C   -2.838704   -0.306075    0.046231
 C   -1.551115   -0.821620    0.040145
 C   -3.029802    1.070036   -0.058601
 O    4.279531    1.651808    0.282066
 C   -0.659355    1.408718   -0.182750
 C   -1.946350    1.927192   -0.170662
Cl   -4.209686   -1.358849    0.194169
 O    5.432837   -0.245031    0.050402
 F   -4.263594    1.570190   -0.049524
 H    3.526591   -2.507217   -0.259295
 H    0.797066   -2.700283   -0.374398
 H   -1.417387   -1.893136    0.140295
 H    3.348148    1.916313    0.308728
 H    0.186245    2.079733   -0.280010
 H   -2.128467    2.992862   -0.251947
