21 
4lv2_ligand_xtb.xyz
 B    4.204281    0.082073    0.002769
 O    5.082469   -0.949889   -0.019164
 O    4.566647    1.388156    0.026628
 C    2.680917   -0.252991    0.000579
 C    2.069138   -1.539828   -0.004345
 N    0.765589   -1.463341   -0.004065
 N    0.477012   -0.149221   -0.000093
 C   -0.823372    0.298740   -0.001641
 C   -1.886703   -0.608658    0.004844
 C   -3.146676   -0.035635    0.000956
Cl   -4.548448   -1.018993    0.008838
 N   -3.344634    1.273177   -0.008738
 C   -2.264856    2.030511   -0.013692
 N   -1.015405    1.617685   -0.010350
 C    1.609349    0.606745    0.003066
 H    6.015258   -0.732604   -0.017912
 H    5.504633    1.582932    0.028177
 H    2.562339   -2.490841   -0.007691
 H   -1.710266   -1.669489    0.012345
 H   -2.424816    3.100043   -0.021476
 H    1.557413    1.674946    0.006856
