40 
4lv3_ligand_xtb.xyz
 B   -0.238961    3.199353   -0.000111
 O   -1.482718    3.749604   -0.005795
 O    0.896725    3.946597    0.005397
 C   -0.110644    1.631537    0.000019
 C    1.142930    1.018367   -0.001597
 C    1.271764   -0.360010   -0.001938
 C    2.621482   -1.064997   -0.000732
 C    2.732705   -1.938141    1.257137
 C    3.796637   -0.083836   -0.002134
 C    2.733427   -1.943320   -1.254808
 C    0.108950   -1.128916   -0.001983
 C   -1.155744   -0.560353   -0.000533
 C   -2.433689   -1.387644    0.000411
 C   -3.238299   -1.055343    1.264445
 C   -2.170783   -2.896156   -0.014131
 C   -3.256422   -1.035089   -1.246523
 C   -1.243879    0.826878    0.001200
 H   -1.532472    4.706323   -0.006484
 H    0.789217    4.898531    0.004433
 H    2.005003    1.663442   -0.002448
 H    3.701675   -2.432838    1.286193
 H    2.631180   -1.323634    2.149174
 H    1.960852   -2.702378    1.280801
 H    3.776485    0.549618    0.881174
 H    4.733296   -0.638639    0.000861
 H    3.778668    0.544390   -0.889208
 H    3.701614   -2.439726   -1.280477
 H    1.960232   -2.706207   -1.276267
 H    2.634156   -1.332328   -2.149494
 H    0.204522   -2.202011   -0.003297
 H   -2.657257   -1.295469    2.152544
 H   -3.493913   -0.000329    1.300885
 H   -4.160178   -1.633395    1.287054
 H   -1.621329   -3.189789   -0.905703
 H   -1.614957   -3.205871    0.867949
 H   -3.120059   -3.428697   -0.015284
 H   -3.534958    0.014646   -1.249814
 H   -2.679246   -1.237147   -2.146516
 H   -4.166455   -1.631303   -1.278229
 H   -2.203937    1.318581    0.002889
