21 
4lv4_ligand_xtb.xyz
 O   -3.918682   -0.440117    0.014218
 C   -2.931144    0.243865    0.001703
 O   -2.953238    1.573810   -0.011572
 C   -1.536511   -0.315087   -0.000494
 N   -0.584403    0.588115   -0.002260
 C    0.694651    0.189090   -0.001821
 C    1.054422   -1.187962   -0.003284
 C    2.415340   -1.548083   -0.001985
 C    3.379249   -0.578267    0.001953
 C    3.036525    0.780344    0.003840
 C    1.720934    1.177341    0.001359
 O    1.337969    2.472389    0.002875
 C    0.002896   -2.130949   -0.004025
 C   -1.295860   -1.701396   -0.000867
 H   -2.024198    1.890594   -0.016905
 H    2.680387   -2.594415   -0.003239
 H    4.423985   -0.850009    0.004323
 H    3.819686    1.526753    0.007326
 H    2.112718    3.048851    0.007245
 H    0.243688   -3.184569   -0.006238
 H   -2.136848   -2.376036    0.000859
