56 
4lwc_ligand_dft.xyz
 C    4.251876    4.370670    1.349364
 C    3.116377    3.538978    1.313925
 C    3.557369    2.353424    0.765090
 N    4.895647    2.527915    0.521419
 N    5.324412    3.761592    0.872026
 C    5.848200    1.598306    0.033592
 C    2.787111    1.147281    0.417147
 C    6.828168    2.036918   -0.853133
 C    7.765264    1.136553   -1.335062
 C    7.726211   -0.202171   -0.951439
 C    6.745874   -0.631556   -0.054736
 C    5.816658    0.271999    0.449621
Cl    6.658591   -2.284410    0.470619
Cl    8.905714   -1.298736   -1.601037
 C    1.902960    0.599440    1.353398
 C    1.151017   -0.524524    1.041897
 C    1.267171   -1.127688   -0.213043
 C    2.142213   -0.578211   -1.148098
 C    2.894284    0.549753   -0.841122
 C    0.440576   -2.349786   -0.545930
 N   -0.986386   -2.060301   -0.526761
 C   -1.849082   -2.412095    0.437304
 C   -3.232190   -1.872336    0.242879
 C   -4.297783   -2.773459    0.138092
 C   -5.597349   -2.338846   -0.045520
 C   -5.882261   -0.969428   -0.108021
 C   -4.834848   -0.056675    0.018258
 C   -3.531351   -0.507406    0.185836
 S   -1.502164   -3.385117    1.737865
 C   -7.254023   -0.506497   -0.292098
 C   -8.451348   -1.156920   -0.415848
 C   -9.447308   -0.155678   -0.573994
 C   -8.794303    1.036681   -0.536136
 O   -7.456890    0.834236   -0.364803
 C   -9.284979    2.422180   -0.646580
 O  -10.449238    2.680929   -0.805434
 O   -8.344475    3.380497   -0.558858
Cl   -2.281408    0.703219    0.377445
 H    4.331887    5.389518    1.702700
 H    2.102365    3.772666    1.602477
 H    6.853162    3.079415   -1.146684
 H    8.534049    1.464671   -2.025489
 H    5.075917   -0.068839    1.162395
 H    1.821441    1.052348    2.336997
 H    0.472069   -0.945189    1.778523
 H    2.238586   -1.032449   -2.131128
 H    3.564706    0.970580   -1.584188
 H    0.610780   -3.150456    0.177684
 H    0.697836   -2.728569   -1.540259
 H   -1.319085   -1.421001   -1.236590
 H   -4.082425   -3.834109    0.210929
 H   -6.394815   -3.069007   -0.133158
 H   -5.028106    1.008843   -0.004643
 H   -8.606264   -2.225542   -0.394029
 H  -10.511823   -0.284102   -0.699509
 H   -7.472831    2.978664   -0.429216
