41 
4lwe_ligand_xtb.xyz
 C    4.237778   -0.192058    0.182225
 C    4.010692   -1.516616    0.520657
 C    2.752545   -2.096350    0.386768
 C    1.670089   -1.312552   -0.064604
 C    1.908224    0.010277   -0.435239
 C    3.164024    0.556556   -0.313328
 O    2.631108   -3.390198    0.710682
 O    5.467926    0.331705    0.322025
Cl    3.445219    2.214370   -0.777121
 C    0.329871   -1.870392   -0.140605
 N    0.143151   -3.172430   -0.198846
 O   -1.196008   -3.405950   -0.275414
 C   -1.833524   -2.218956   -0.262927
 C   -0.929909   -1.188290   -0.178614
 C   -1.207612    0.246937   -0.134189
 N   -3.208087   -2.277854   -0.342614
 C   -4.085622   -1.392728    0.252270
 C   -5.525807   -1.766436   -0.002116
 O   -3.724207   -0.439123    0.889076
 C   -1.947064    0.855874   -1.144674
 C   -2.197112    2.209072   -1.107517
 C   -1.720979    2.989093   -0.052480
 C   -0.990027    2.382337    0.963609
 C   -0.738382    1.024183    0.916898
 O   -2.018408    4.315671   -0.115267
 C   -1.570183    5.154440    0.921391
 H    4.828274   -2.116487    0.883646
 H    1.104795    0.609025   -0.831156
 H    1.726331   -3.697556    0.496893
 H    5.446914    1.256550    0.025661
 H   -3.568254   -3.160089   -0.680443
 H   -5.753977   -2.720705    0.468604
 H   -6.170314   -1.000437    0.418186
 H   -5.710973   -1.849368   -1.070591
 H   -2.318143    0.262474   -1.968134
 H   -2.766078    2.692472   -1.885876
 H   -0.615700    2.953243    1.798417
 H   -0.172299    0.560188    1.711074
 H   -1.991885    4.860086    1.887706
 H   -0.477239    5.162185    0.988357
 H   -1.920917    6.152938    0.664972
