65 
4lwh_ligand_xtb.xyz
 C   -3.312865    0.330693    0.246102
 C   -2.964349   -0.841438   -0.417154
 C   -3.534683   -2.064293   -0.120860
 C   -4.516305   -2.104442    0.878009
 C   -4.883596   -0.941655    1.543928
 C   -4.294032    0.279240    1.244484
 O   -4.597004    1.407204    1.919550
 O   -5.086233   -3.295911    1.181947
 C   -3.135464   -3.320354   -0.856932
 C   -2.665833    1.587084   -0.105545
 C   -1.630583   -3.573036   -0.739267
 C   -3.558656   -3.238839   -2.324384
 N   -3.310033    2.714443   -0.241645
 O   -2.419418    3.670015   -0.607863
 C   -1.205833    3.114849   -0.719326
 C   -1.277624    1.772021   -0.417307
 C   -0.207990    0.789432   -0.477616
 C    0.675830    0.789487   -1.557525
 C    1.666838   -0.165940   -1.654797
 C    1.800536   -1.143482   -0.673739
 C    0.928843   -1.137130    0.413374
 C   -0.066018   -0.185287    0.510711
 C    2.875129   -2.190215   -0.768522
 N    4.037715   -1.830120    0.104322
 N   -0.127664    3.893400   -1.069002
 C    1.132876    3.812104   -0.511281
 O    2.100623    4.246098   -1.091564
 C    1.193603    3.220822    0.853395
 C    2.301490    2.260800    1.197545
 C    2.471741    3.466414    1.630279
 C    4.769407   -0.637841   -0.392028
 C    5.881217   -0.280454    0.598633
 O    6.764668   -1.359094    0.759720
 C    6.110093   -2.498992    1.247218
 C    4.997434   -2.944751    0.289856
 H   -2.234147   -0.783210   -1.209441
 H   -5.646485   -0.987009    2.312638
 H   -5.337358    1.255990    2.520048
 H   -5.770865   -3.179129    1.851871
 H   -3.661315   -4.157792   -0.392227
 H   -1.377342   -4.522449   -1.205308
 H   -1.063085   -2.785845   -1.232259
 H   -1.335341   -3.610102    0.307373
 H   -3.053517   -2.417974   -2.828273
 H   -3.312744   -4.164838   -2.838535
 H   -4.630885   -3.078205   -2.398234
 H    0.571795    1.529310   -2.334976
 H    2.324636   -0.165169   -2.511437
 H    1.013278   -1.896981    1.178389
 H   -0.745820   -0.197278    1.347456
 H    3.237989   -2.290442   -1.792624
 H    2.492755   -3.156765   -0.431959
 H    3.651145   -1.591901    1.028000
 H   -0.259657    4.575518   -1.805736
 H    0.249210    3.160928    1.383889
 H    2.591222    1.247273    1.085737
 H    3.024607    4.222101    2.127330
 H    4.076424    0.195416   -0.518818
 H    5.209374   -0.889290   -1.359326
 H    5.445622    0.013745    1.566872
 H    6.472985    0.550861    0.213998
 H    5.688313   -2.306640    2.246674
 H    6.867824   -3.279190    1.329765
 H    5.424372   -3.193295   -0.683962
 H    4.478544   -3.816994    0.689508
