50 
4lwt_ligand_dft.xyz
 C    0.632412    0.761045    1.349082
 C   -0.356264   -1.300071    1.613291
 C   -0.545253   -0.903010    0.131776
 C    0.096115    0.467010    0.093442
 N    0.343984   -0.287718    2.225288
 C    1.314789    1.935808    1.609091
 C    0.212966    1.386961   -0.930442
 C    0.891824    2.586985   -0.704809
 C    1.435025    2.835903    0.549718
 C    3.946642   -1.117902   -0.932670
Cl    5.002643   -0.097168   -1.883708
 C    2.587133   -1.130887   -1.214675
 C    1.729366   -1.937701   -0.465700
 C    0.241896   -1.927432   -0.733065
 C   -2.038801   -0.844885   -0.278167
 C    2.262803   -2.727083    0.555856
 C    3.626862   -2.703355    0.827780
 C    4.483381   -1.897090    0.085296
 C   -2.824311    0.126002    0.618721
 N   -4.197180    0.247003    0.156043
 C   -4.926964   -1.012220    0.203291
 C   -4.235612   -2.053395   -0.680398
 C   -2.754074   -2.205961   -0.311977
 O   -0.719997   -2.326766    2.151886
Cl    2.289653    4.334998    0.826923
 C   -4.482758    1.262985   -0.725694
 O   -3.662655    2.126933   -0.999363
 C   -5.877538    1.289144   -1.326302
 H    0.634759   -0.344759    3.189281
 H    1.738144    2.158766    2.581654
 H   -0.225430    1.193197   -1.905095
 H    0.992286    3.323043   -1.493489
 H    2.197078   -0.504360   -2.009932
 H    0.049287   -1.696680   -1.787545
 H   -0.166563   -2.922033   -0.532875
 H   -2.058735   -0.416347   -1.291178
 H    1.601883   -3.355810    1.145743
 H    4.030687   -3.322396    1.623090
 H    5.548583   -1.873121    0.286970
 H   -2.376927    1.119325    0.609624
 H   -2.844565   -0.249026    1.650721
 H   -5.963961   -0.860959   -0.098908
 H   -4.941097   -1.355819    1.245831
 H   -4.326935   -1.737412   -1.728657
 H   -4.744950   -3.019198   -0.587403
 H   -2.658540   -2.681913    0.670864
 H   -2.277936   -2.874620   -1.036434
 H   -6.021562    0.462977   -2.031426
 H   -6.656124    1.222087   -0.560355
 H   -5.982679    2.230515   -1.865305
