87 
4lxd_ligand_dft.xyz
 C   -8.967604    0.765281   -1.536599
 C   -8.271703    1.241921    0.716693
 C   -0.177880    0.933136    1.072464
 C    0.592368   -1.268430    0.483834
Cl   -8.068461    4.659955   -1.352534
 C   -1.456519    0.597932    0.654178
 C   -0.688693   -1.612177    0.070341
 C    6.965276   -0.307452    0.811157
 C    5.960338    0.267396    1.546777
 C   -8.778146    2.098420   -1.884592
 C   -8.072884    2.575653    0.380693
 C    5.772316    2.046678   -0.074087
 C   -8.701739    0.316111   -0.239596
 C    0.861660    0.004202    0.981229
 C   -1.724312   -0.678724    0.152083
 C    7.428332    0.255100   -0.412119
 C    6.780621    1.458313   -0.832055
 C    5.362587    1.456403    1.102682
 C   -8.321886    2.995245   -0.923567
 C   -8.893900   -1.110760    0.138839
 C   -8.158642   -2.116143   -0.365836
 C    2.262125    0.284450    1.440783
 C   -9.967560   -1.398040    1.164077
 C   -8.393654   -3.550559    0.075592
 C   10.229643   -1.192489    0.345840
 C    9.846694   -2.121045   -1.941935
 C   -4.049588   -0.980071    0.800347
 C   -3.240543   -2.103132   -1.146735
 C   -5.446757   -0.864595    0.216533
 C   -4.610898   -2.017757   -1.802621
 C  -10.286222   -2.887099    1.242827
 C   11.071870   -2.436990    0.624325
 C   10.715975   -3.304691   -1.516467
 C    9.166732   -1.509797   -0.715357
 C   -7.076103   -1.920367   -1.383608
 N   -3.057107   -0.974266   -0.261980
 N   -5.691483   -1.982414   -0.759765
 N    8.405623   -0.338989   -1.120310
 N    2.633644    1.611766    1.423585
 N    7.129932    2.145467   -2.062205
 O    6.494195    3.139820   -2.371425
 O    3.012895   -0.603525    1.791657
 O    8.048307    1.698075   -2.753723
 O    4.003700    3.626252    1.695147
 O    4.211293    1.776228    3.425420
 O   -9.089908   -3.644820    1.280583
 O   11.672531   -2.930505   -0.552233
 S    4.098860    2.223885    2.056390
 H   -9.346799    0.069465   -2.280458
 H   -8.085210    0.921493    1.738557
 H   -0.004826    1.920656    1.489794
 H    1.398449   -1.993270    0.442389
 H   -2.251120    1.336797    0.700544
 H   -0.868062   -2.616432   -0.299350
 H    7.422340   -1.217374    1.177469
 H    5.625577   -0.187884    2.471261
 H   -8.992112    2.442367   -2.890527
 H   -7.735156    3.288804    1.124630
 H    5.334703    2.974908   -0.421374
 H  -10.868536   -0.827368    0.912664
 H   -9.631173   -1.028495    2.141636
 H   -7.442556   -4.077734    0.238419
 H   -8.916077   -4.096375   -0.731412
 H   10.877261   -0.393322   -0.032691
 H    9.768062   -0.833177    1.272489
 H    9.098114   -2.443355   -2.674247
 H   10.485849   -1.367101   -2.419105
 H   -3.975560   -1.891035    1.424822
 H   -3.892382   -0.128212    1.464017
 H   -2.489715   -2.074758   -1.940335
 H   -3.141243   -3.078427   -0.631483
 H   -5.572712    0.067873   -0.338538
 H   -6.217087   -0.935083    0.985151
 H   -4.801557   -2.879591   -2.446302
 H   -4.707453   -1.097318   -2.382984
 H  -10.897969   -3.193037    0.380628
 H  -10.834366   -3.128613    2.154402
 H   10.443965   -3.220295    1.084877
 H   11.886515   -2.209215    1.315118
 H   11.273055   -3.700627   -2.368392
 H   10.076037   -4.113440   -1.121848
 H    8.469629   -2.258954   -0.314923
 H   -7.128834   -0.953433   -1.884997
 H   -7.092832   -2.711117   -2.141466
 H   -5.632082   -2.857813   -0.228313
 H    8.701391    0.157900   -1.951228
 H    2.090352    2.312536    0.936544
