87 
4lxd_ligand_xtb.xyz
 C   -7.849063    2.592555   -0.751062
 C   -6.907709    2.125817    1.405132
 C    0.207216   -2.463019    0.662189
 C    0.501507   -1.903150   -1.647628
Cl   -5.661414    5.745258    0.310801
 C   -1.157723   -2.284592    0.529220
 C   -0.857049   -1.723220   -1.784060
 C    7.000014   -0.537281   -0.460870
 C    6.430940   -1.774979   -0.340635
 C   -7.234726    3.830531   -0.756416
 C   -6.280766    3.357061    1.402759
 C    4.989676   -0.969294    1.399305
 C   -7.687717    1.721728    0.324626
 C    1.052322   -2.287871   -0.426840
 C   -1.709640   -1.920776   -0.696654
 C    6.581782    0.561047    0.334245
 C    5.530788    0.312681    1.267305
 C    5.432584   -1.989862    0.606763
 C   -6.441914    4.209692    0.318757
 C   -8.369334    0.410132    0.333930
 C   -8.118500   -0.556063   -0.556502
 C    2.533104   -2.449982   -0.363435
 C   -9.371364    0.207570    1.435626
 C   -8.869949   -1.869502   -0.495238
 C    9.567555    1.822121   -0.139080
 C    8.113545    3.680926   -0.922881
 C   -3.947317   -1.516586    0.278984
 C   -3.779234   -2.341914   -1.948872
 C   -5.123131   -0.628964   -0.133486
 C   -4.940841   -1.457914   -2.401849
 C  -10.186837   -1.072642    1.237849
 C   10.642393    2.368570   -1.083569
 C    9.280656    4.113877   -1.816416
 C    8.181569    2.169052   -0.701588
 C   -7.076992   -0.452491   -1.633901
 N   -3.086395   -1.692943   -0.863094
 N   -5.861251   -1.241561   -1.262743
 N    7.124801    1.774140    0.201985
 N    3.017701   -3.235394    0.631381
 N    4.955206    1.327463    2.073336
 O    3.962469    1.051912    2.719400
 O    3.276954   -1.901148   -1.148166
 O    5.462044    2.445257    2.081315
 O    4.802152   -4.089766    2.100450
 O    5.076618   -4.441343   -0.316227
 O   -9.369742   -2.131524    0.784870
 O   10.522045    3.757969   -1.261280
 S    4.697218   -3.593670    0.764432
 H   -8.487129    2.309067   -1.575521
 H   -6.782592    1.472198    2.255686
 H    0.601566   -2.723550    1.632554
 H    1.167049   -1.741037   -2.480955
 H   -1.785248   -2.444742    1.391765
 H   -1.255244   -1.405540   -2.735610
 H    7.784526   -0.387122   -1.182766
 H    6.733132   -2.601749   -0.962319
 H   -7.374393    4.504766   -1.585818
 H   -5.675532    3.661740    2.241049
 H    4.215180   -1.133978    2.132155
 H  -10.036232    1.070790    1.487828
 H   -8.827628    0.161806    2.383280
 H   -8.226584   -2.721832   -0.741490
 H   -9.691062   -1.849068   -1.234280
 H    9.680718    2.289518    0.840257
 H    9.684535    0.744301   -0.025862
 H    7.168392    3.959053   -1.389609
 H    8.195566    4.190873    0.038630
 H   -4.327439   -2.474040    0.676229
 H   -3.398691   -1.005713    1.070047
 H   -3.097957   -2.503358   -2.782603
 H   -4.172407   -3.327962   -1.641075
 H   -4.754556    0.345476   -0.459146
 H   -5.812323   -0.488861    0.699846
 H   -5.482725   -1.928837   -3.223729
 H   -4.566526   -0.485084   -2.725596
 H  -10.995653   -0.895691    0.516075
 H  -10.620310   -1.409098    2.179571
 H   10.571933    1.857030   -2.057247
 H   11.638819    2.205211   -0.670116
 H    9.301663    5.199412   -1.924093
 H    9.169274    3.658538   -2.813701
 H    8.040398    1.664350   -1.665379
 H   -6.771080    0.582838   -1.788759
 H   -7.465832   -0.859584   -2.570696
 H   -6.185783   -2.163862   -0.941559
 H    6.789387    2.483678    0.851504
 H    2.413512   -3.732932    1.263723
