39 
4lxz_ligand_xtb.xyz
 O   -6.582481   -1.213094    1.280480
 O   -4.939652   -2.194931   -0.515299
 N   -5.770002   -0.393646    0.488274
 C   -4.916168   -0.986256   -0.368078
 C   -3.993571   -0.031649   -1.087437
 C   -2.793131    0.313233   -0.198933
 C   -1.811460    1.239117   -0.912690
 C   -0.633142    1.606335   -0.014657
 C    0.375624    2.501170   -0.731601
 C    1.537383    2.891165    0.188420
 C    2.244217    1.663522    0.746424
 O    2.190002    1.351108    1.913980
 N    2.918918    0.970835   -0.214307
 C    3.616836   -0.237445   -0.112200
 C    3.741787   -0.940825    1.081646
 C    4.438625   -2.135366    1.102762
 C    5.014974   -2.641087   -0.049888
 C    4.892024   -1.941059   -1.238565
 C    4.198076   -0.747370   -1.271804
 H   -6.366187   -2.110559    0.950050
 H   -5.748706    0.558729    0.809582
 H   -4.533213    0.877191   -1.358810
 H   -3.645513   -0.522679   -1.996636
 H   -2.281507   -0.609004    0.082745
 H   -3.139278    0.794237    0.719027
 H   -2.329644    2.150094   -1.222901
 H   -1.441798    0.745453   -1.814271
 H   -0.134958    0.693491    0.318142
 H   -0.999096    2.120607    0.876172
 H   -0.122915    3.410786   -1.075025
 H    0.751140    1.980185   -1.616435
 H    1.156201    3.461465    1.036163
 H    2.253854    3.512076   -0.354120
 H    2.902722    1.360058   -1.147068
 H    3.294735   -0.549416    1.979659
 H    4.530272   -2.675644    2.033128
 H    5.556654   -3.574428   -0.024284
 H    5.336744   -2.325594   -2.144591
 H    4.102688   -0.202948   -2.201976
