31 
4lzs_ligand_dft.xyz
 C   12.768318   38.509504   77.640337
 C   11.766273   37.629250   77.101987
 C   10.566693   38.012631   77.663463
 C   12.126094   39.399483   78.505706
 C   14.223170   38.587732   77.414810
 C    9.220866   37.442269   77.494690
 C   12.646381   40.544476   79.308215
 C   14.907763   37.598333   76.493750
 C   11.724884   37.015276   74.660757
 C   11.898586   36.515461   76.100321
 N   10.815329   39.070042   78.523790
 N    8.356373   37.680243   78.543669
 O   14.891230   39.445887   77.974970
 O    8.872350   36.832239   76.493651
 C    7.029444   37.093017   78.504363
 H   13.119227   41.288309   78.662235
 H   11.837351   41.021643   79.872262
 H   13.418280   40.209412   80.005266
 H   15.953641   37.892510   76.392796
 H   14.859875   36.588425   76.916171
 H   14.436055   37.567657   75.507211
 H   11.867502   36.196986   73.947403
 H   10.713867   37.411494   74.534248
 H   12.438972   37.810528   74.418884
 H   11.120904   35.773048   76.297706
 H   12.860210   36.009440   76.213441
 H   10.095170   39.633093   78.951175
 H    8.778692   37.765918   79.457485
 H    6.421568   37.534527   79.297345
 H    6.574206   37.315017   77.538281
 H    7.051725   36.003152   78.625611
