31 
4lzs_ligand_xtb.xyz
 C   12.761314   38.503080   77.602620
 C   11.761894   37.625428   77.080124
 C   10.565425   37.985099   77.672223
 C   12.115106   39.374487   78.483291
 C   14.202598   38.601480   77.374143
 C    9.236933   37.389775   77.503136
 C   12.658013   40.495952   79.283511
 C   14.884155   37.534465   76.552377
 C   11.746242   37.155727   74.643757
 C   11.872595   36.554996   76.046610
 N   10.814413   39.035366   78.530489
 N    8.377081   37.620205   78.541657
 O   14.851442   39.513205   77.854194
 O    8.899638   36.761793   76.516326
 C    7.048096   37.059021   78.555605
 H   13.049731   41.269666   78.625118
 H   11.888664   40.921090   79.926064
 H   13.494997   40.153679   79.889395
 H   15.947514   37.758548   76.503125
 H   14.745443   36.561596   77.018464
 H   14.476736   37.505853   75.546372
 H   11.900230   36.387462   73.890151
 H   10.748997   37.568499   74.518634
 H   12.471932   37.951859   74.488876
 H   11.048862   35.854231   76.186749
 H   12.809601   36.009717   76.141753
 H   10.110935   39.558308   79.027750
 H    8.740244   37.940893   79.424291
 H    6.315748   37.830021   78.800897
 H    6.850724   36.672874   77.557047
 H    6.965696   36.242620   79.277253
