72 
4m0f_ligand_xtb.xyz
 C    2.262947    0.476889    2.552380
 C    2.253861    0.861920    1.069214
 C    3.094857    2.120831    0.843270
 C    4.587803    1.821199    0.906920
 C    5.008187    0.797809   -0.162963
 C    4.215792   -0.543526    0.021146
 C    2.675486   -0.251318    0.061044
 C    1.815581   -1.493663    0.341054
 C    0.377750   -1.059886    0.359788
 C    0.030851    0.253353    0.522532
 C   -1.340651    0.632263    0.437856
 C   -2.278380   -0.324205    0.217844
 O   -1.941156   -1.618704    0.098585
 C   -0.634205   -2.059222    0.147176
 O   -0.437457   -3.245522    0.019211
 C   -3.718877   -0.073590    0.117606
 C   -4.611313   -1.120969    0.318148
 C   -5.981235   -0.917155    0.218478
 C   -6.483434    0.347440   -0.132656
 C   -5.588143    1.418594   -0.274944
 C   -4.219517    1.194277   -0.148327
 O   -5.914126    2.706427   -0.559664
 C   -7.239308    3.173450   -0.417505
 O   -7.842242    0.509659   -0.385086
 C   -8.211765    0.067629   -1.677901
 O   -6.759254   -2.013175    0.442555
 C   -8.017883   -1.851943    1.069056
 O    0.903503    1.242043    0.765466
 O    2.270804    0.269245   -1.205027
 C    4.564072   -1.354111   -1.235700
 O    3.738108   -1.835964   -1.983035
 C    6.002661   -1.514640   -1.438144
 C    6.893287   -0.667520   -0.926793
 C    6.559656    0.590125   -0.182189
 C    7.234401    0.586278    1.198868
 C    7.222411    1.729708   -0.983695
 C    4.667604   -1.426055    1.192109
 O    4.702934    1.305403   -1.448338
 H    3.267924    0.406305    2.951170
 H    1.740264    1.264219    3.093618
 H    1.738709   -0.456022    2.733251
 H    2.834018    2.533869   -0.131575
 H    2.829587    2.862449    1.598113
 H    5.131698    2.747958    0.723598
 H    4.855630    1.457212    1.896743
 H    1.945703   -2.235970   -0.450273
 H    2.073113   -1.978170    1.283227
 H   -1.596038    1.667763    0.563854
 H   -4.255196   -2.109712    0.554418
 H   -3.569989    2.038083   -0.306773
 H   -7.157749    4.260669   -0.400827
 H   -7.692321    2.824461    0.512092
 H   -7.869713    2.876436   -1.258940
 H   -7.959637   -0.986164   -1.832947
 H   -7.716506    0.660943   -2.455173
 H   -9.290234    0.202601   -1.747026
 H   -8.214282   -2.796979    1.576544
 H   -7.997466   -1.041851    1.800947
 H   -8.816956   -1.661672    0.348943
 H    2.350733   -0.461587   -1.841233
 H    6.300160   -2.339256   -2.069663
 H    7.948619   -0.822849   -1.111231
 H    7.238762    1.589906    1.614964
 H    6.755315   -0.078748    1.907552
 H    8.268947    0.268035    1.085477
 H    6.873440    1.724530   -2.010848
 H    6.978136    2.692525   -0.545243
 H    8.302438    1.604968   -0.971404
 H    5.715008   -1.688940    1.085786
 H    4.107022   -2.357484    1.186595
 H    4.518003   -0.940924    2.149811
 H    3.738965    1.234328   -1.572919
