35 
4m0y_ligand_xtb.xyz
 C   -4.346034    2.035488    0.899833
 C   -2.997376    2.229528    1.231419
 C   -2.049863    1.316865    0.857824
 C   -2.405613    0.161201    0.130254
 C   -3.781236   -0.065506   -0.152195
 C   -4.728781    0.906121    0.233924
 C   -4.179055   -1.258414   -0.790693
 C   -3.259207   -2.211262   -1.127586
 C   -1.899320   -1.987934   -0.888605
 C   -1.472382   -0.820455   -0.301538
 N   -0.090458   -0.635627   -0.137823
 C    0.628686    0.490809   -0.395328
 C    1.948591    0.171605   -0.160876
 C    1.927538   -1.190409    0.232160
 N    0.678712   -1.651756    0.224277
 C    3.105956   -1.981166    0.587989
 O    4.236859   -1.511110    0.563437
 N    2.842240   -3.256452    0.935657
 N    3.099226    0.919941   -0.256425
 C    3.130428    2.264274   -0.524759
 O    2.144628    2.929025   -0.758630
 N    4.389677    2.792157   -0.471776
 H   -5.077760    2.774777    1.190112
 H   -2.708628    3.107002    1.790188
 H   -1.021166    1.473453    1.142330
 H   -5.768745    0.731679   -0.002003
 H   -5.228719   -1.408815   -0.996558
 H   -3.568157   -3.132424   -1.597926
 H   -1.165087   -2.724700   -1.175484
 H    0.194961    1.397492   -0.757857
 H    3.592648   -3.870251    1.202734
 H    1.889443   -3.574651    0.947954
 H    3.934449    0.395027   -0.008383
 H    4.502599    3.742249   -0.777735
 H    5.202497    2.203526   -0.444141
