42 
4m12_ligand_dft.xyz
 N    0.501227   -0.863851    0.408457
 N    0.607447    0.235474    1.155642
 C    1.834001    0.697592    0.911230
 C    2.527642   -0.128735   -0.000903
 C    1.635343   -1.133836   -0.307381
 N    3.818985    0.115256   -0.440010
 C    4.507293   -0.731393   -1.276638
 N    5.800738   -0.325697   -1.537304
 O    4.033795   -1.763496   -1.724255
 C    2.361926    1.919512    1.547322
 N    1.503379    2.560870    2.375037
 O    3.503672    2.317012    1.315372
 C   -0.676651   -1.665038    0.432542
 C   -0.547399   -3.002669    0.714537
 C   -1.678153   -3.843620    0.713735
 C   -2.916052   -3.320125    0.442877
 C   -1.941948   -1.084682    0.127734
 C   -3.074419   -1.944676    0.146590
 C   -4.348966   -1.389715   -0.155854
 C   -4.489337   -0.070012   -0.468907
 C   -3.351218    0.779828   -0.501043
 C   -2.102428    0.285084   -0.209754
 O   -3.616022    2.064910   -0.830783
 C   -2.532089    2.979238   -0.887460
 C   -3.095122    4.332999   -1.268256
 H    1.714783   -1.978402   -0.969898
 H    4.253539    0.917846    0.005462
 H    6.232159   -0.824473   -2.300477
 H    6.029978    0.655566   -1.481189
 H    1.843542    3.345216    2.908138
 H    0.617913    2.137033    2.607990
 H    0.434011   -3.402271    0.949963
 H   -1.560213   -4.898341    0.938998
 H   -3.796209   -3.957643    0.446754
 H   -5.219073   -2.040394   -0.137717
 H   -5.457086    0.361451   -0.701887
 H   -1.230717    0.923840   -0.212775
 H   -1.796888    2.636710   -1.628511
 H   -2.030810    3.022113    0.089428
 H   -3.590144    4.282315   -2.242033
 H   -3.824247    4.668333   -0.525351
 H   -2.289060    5.070815   -1.324545
