36 
4m2u_ligand_dft.xyz
 S    1.061908   -1.136029   -0.939619
 C    1.858497   -0.063680    0.146995
 C    1.003044    0.654449    0.938274
 C   -0.349752    0.346788    0.646069
 C   -1.577227    0.922522    1.295321
 C   -2.640922   -0.140827    1.685753
 C   -2.698387   -1.465252    0.873806
 S   -2.040055   -1.220176   -0.798277
 C   -0.449955   -0.592228   -0.353883
 S    3.619157    0.226825    0.109298
 O    3.942697    0.694569    1.440550
 O    3.904182    0.996074   -1.082180
 N    4.203445   -1.302118   -0.149292
 N   -2.209009    1.938885    0.354645
 C   -1.991381   -2.632785    1.558908
 O   -1.907406   -2.464003   -1.524491
 O   -2.798393   -0.094128   -1.377619
 C   -1.320904    3.054338   -0.116016
 C   -2.108641    4.022093   -0.981530
 H    1.344878    1.359137    1.687831
 H   -1.296390    1.492225    2.184388
 H   -3.628583    0.331655    1.683845
 H   -2.442367   -0.416180    2.724765
 H   -3.745575   -1.724592    0.683020
 H    4.558774   -1.737061    0.697423
 H    4.877897   -1.312027   -0.909498
 H   -3.029089    2.343520    0.815672
 H   -2.563863    1.400402   -0.466473
 H   -2.026898   -3.531249    0.938832
 H   -0.945377   -2.397276    1.780280
 H   -2.498566   -2.850879    2.502965
 H   -0.909696    3.536159    0.775041
 H   -0.503862    2.591045   -0.671026
 H   -2.922213    4.500026   -0.426211
 H   -1.438186    4.811215   -1.329710
 H   -2.522961    3.524011   -1.863291
