45 
4m2v_ligand_dft.xyz
 C    4.212245   -0.182555    0.459598
 C   -0.435662    0.243019   -0.976442
 C   -0.382055   -0.958302   -0.312014
 C    0.764372    0.870811   -1.631812
 C    1.826766   -0.177572   -1.971428
 S   -4.240858    0.559385    0.289092
 C    3.508520   -0.018813    1.800087
 C    2.740690    3.805981   -0.055002
 C    2.346863    2.835730   -1.156060
 S   -1.861897   -1.378022    0.448256
 N   -5.168737   -0.456538   -0.627732
 O   -4.431876    0.197324    1.676870
 O   -4.366824    1.911612   -0.215910
 C   -2.574463    0.080398   -0.126964
 C   -1.717154    0.848490   -0.860191
 S    1.022324   -2.046450   -0.297355
 O    1.327643   -2.433168    1.066220
 O    0.812115   -3.052227   -1.318585
 N    2.163906   -0.913058   -0.760131
 N    1.330212    1.863422   -0.642003
 C    3.571140   -1.226075   -0.455092
 O    2.375592    0.839139    1.652191
 C    1.451653    0.732295    2.727687
 H    4.277748    0.794671   -0.037918
 H    5.246658   -0.493277    0.643759
 H    0.476861    1.434071   -2.524609
 H    1.439062   -0.830372   -2.764456
 H    2.736189    0.289215   -2.356721
 H    3.174380   -0.993561    2.175890
 H    4.183949    0.427326    2.540470
 H    3.521377    4.475422   -0.423257
 H    3.124478    3.270672    0.817984
 H    1.893215    4.425853    0.255601
 H    3.206267    2.255764   -1.496553
 H    1.908643    3.343728   -2.019033
 H   -5.627141    0.018071   -1.398936
 H   -5.803497   -1.007320   -0.057832
 H   -2.011668    1.797882   -1.294440
 H    1.741363    1.330024    0.177184
 H    0.549832    2.396705   -0.247705
 H    3.610062   -2.201618    0.036107
 H    4.127881   -1.323393   -1.393225
 H    1.937716    0.975529    3.679088
 H    0.653956    1.455935    2.543045
 H    1.031201   -0.278591    2.774222
