48 
4m3e_ligand_xtb.xyz
 F   -9.341117   -0.900561   -0.290528
 C   -8.730418    0.187721   -0.793325
 F   -9.240658    0.369882   -2.021091
 F   -9.136119    1.223826   -0.050527
 C   -7.225758    0.032343   -0.820426
 C   -6.666613   -0.152052    0.600603
 N   -5.250403   -0.410069    0.579889
 C   -4.345089    0.606894    0.609907
 O   -4.689875    1.767265    0.705819
 C   -2.917753    0.188085    0.557270
 C   -2.478327   -0.950375   -0.114353
 C   -1.137313   -1.277133   -0.134833
 C   -1.978767    1.005635    1.183340
 C   -0.640730    0.676979    1.171489
 C   -0.200413   -0.475925    0.518636
 C    1.218356   -0.800481    0.530012
 N    2.103612    0.095575    1.056132
 C    1.810175   -1.946889    0.069503
 S    3.509729   -1.901349    0.286534
 C    3.313380   -0.312077    0.999475
 C    4.496359    0.454011    1.493826
 N    5.746607    0.030595    0.910776
 S    5.873684    0.257074   -0.764854
 O    6.503433   -0.915787   -1.293553
 O    4.601781    0.650174   -1.297955
 C    6.976141    1.693189   -0.839356
 C    8.276927    1.431041   -0.106031
 C    9.205549    0.517252   -0.896874
 H   -6.795975    0.927703   -1.272385
 H   -6.994420   -0.832902   -1.445420
 H   -7.177942   -0.977054    1.101934
 H   -6.822064    0.772322    1.165013
 H   -4.935927   -1.360081    0.479801
 H   -3.174485   -1.574394   -0.657518
 H   -0.815404   -2.155474   -0.672270
 H   -2.326666    1.899513    1.678521
 H    0.089100    1.302686    1.659660
 H    1.356667   -2.808018   -0.376637
 H    4.569298    0.367071    2.584103
 H    4.348041    1.506988    1.242570
 H    5.984211   -0.926118    1.132674
 H    6.394866    2.492382   -0.388827
 H    7.128889    1.902957   -1.894822
 H    8.038891    0.975821    0.856853
 H    8.777369    2.384157    0.084749
 H    8.697785   -0.411463   -1.138581
 H    9.510955    0.996209   -1.824477
 H   10.097595    0.292551   -0.317758
