35 
4m3g_ligand_dft.xyz
 C    6.749684    2.188061    0.534546
 C    5.843563    1.086805    0.082514
 N    4.579822    1.024062    0.359702
 C    3.986157   -0.095755   -0.189596
 C    4.833497   -0.900252   -0.896404
 S    6.423917   -0.245851   -0.888253
 C    2.545542   -0.322344    0.037859
 C    1.862889    0.470385    0.964954
 C    0.508577    0.272280    1.205766
 C   -0.164656   -0.722704    0.507866
 C    0.493503   -1.526033   -0.421169
 C    1.842781   -1.319045   -0.653874
 S   -1.891395   -0.993406    0.818453
 O   -2.169111   -2.420840    0.890460
 O   -2.290183   -0.119628    1.917212
 N   -2.549258   -0.476226   -0.639597
 C   -3.900073   -0.960031   -0.937549
 C   -5.028566   -0.331603   -0.109198
 C   -5.307827    1.106650   -0.473277
 F   -5.667805    1.228965   -1.765320
 F   -4.222995    1.895800   -0.299690
 F   -6.294883    1.621614    0.270564
 H    7.184862    2.720091   -0.317436
 H    6.166167    2.892956    1.129485
 H    7.570683    1.802157    1.147084
 H    4.621069   -1.833475   -1.397471
 H    2.407356    1.242689    1.495851
 H   -0.025058    0.876172    1.931649
 H   -0.050389   -2.298210   -0.954507
 H    2.348972   -1.935057   -1.390270
 H   -2.479559    0.537185   -0.694133
 H   -3.895444   -2.039772   -0.779182
 H   -4.072372   -0.784287   -2.003078
 H   -4.798759   -0.373202    0.958854
 H   -5.956770   -0.886158   -0.276768
