52 
4m3q_ligand_xtb.xyz
 C   -3.657670    2.662372    2.370829
 C   -2.793925    2.382078    1.147555
 C   -3.196909    3.249142   -0.042052
 C   -2.332561    2.973378   -1.277123
 N   -0.963610    3.381221   -1.105736
 C    0.035093    2.549924   -0.750956
 N    1.214319    3.134746   -0.487661
 C    2.214895    2.323267   -0.208462
 C    2.119031    0.935079   -0.162655
 C    0.798518    0.429592   -0.392963
 N    0.538242   -0.880899   -0.332092
 C   -0.785980   -1.438360   -0.438549
 C   -1.411796   -1.636232    0.947824
 C   -2.805441   -2.239153    0.826575
 C   -2.756615   -3.572357    0.082706
 O   -4.080157   -4.061180   -0.005945
 C   -2.128102   -3.376180   -1.300382
 C   -0.731940   -2.773859   -1.179932
 N   -0.209944    1.246770   -0.696987
 C    3.263213    0.086170    0.128832
 C    4.580399    0.571324    0.074507
 C    5.630000   -0.270180    0.375578
 C    5.368662   -1.590127    0.722091
 C    4.046763   -1.994398    0.730362
 N    3.034805   -1.196131    0.446184
 H   -3.562003    3.701846    2.677711
 H   -4.705173    2.465756    2.151907
 H   -3.357492    2.030937    3.203683
 H   -2.885600    1.331262    0.867344
 H   -1.746046    2.567035    1.390294
 H   -3.111857    4.304790    0.228606
 H   -4.240343    3.053321   -0.297869
 H   -2.745966    3.504523   -2.141033
 H   -2.316286    1.902992   -1.486690
 H   -0.757082    4.363790   -1.017870
 H    3.143783    2.830935    0.018233
 H    1.314827   -1.449914    0.007822
 H   -1.387878   -0.719558   -1.003377
 H   -1.462986   -0.673393    1.457835
 H   -0.771501   -2.297526    1.536673
 H   -3.463301   -1.565576    0.275125
 H   -3.243201   -2.399435    1.812411
 H   -2.139218   -4.283827    0.658475
 H   -4.080962   -4.866423   -0.534425
 H   -2.770686   -2.711405   -1.881756
 H   -2.075414   -4.336150   -1.822225
 H   -0.082685   -3.460194   -0.630490
 H   -0.302689   -2.625680   -2.172182
 H    4.777246    1.590092   -0.216423
 H    6.647151    0.093508    0.335746
 H    6.163299   -2.277535    0.964839
 H    3.772830   -3.013563    0.976529
