42 
4m48_ligand_xtb.xyz
 C    3.087076    0.646114    1.969563
 N    2.699885    0.981344    0.590612
 C    2.269756    2.390125    0.394001
 C    1.483636    2.519290   -0.913220
 C    0.069726    2.013183   -0.765498
 C   -0.328988    0.753359   -0.587607
 C   -1.757503    0.448041   -0.352661
 C   -2.716080    0.623080   -1.338755
 C   -4.037410    0.305658   -1.076410
 C   -4.399110   -0.179533    0.168743
 C    0.550288   -0.442118   -0.636745
 C    1.258314   -0.652775   -1.832905
 C    2.044930   -1.768955   -2.019288
 C    2.133915   -2.715981   -1.008504
 C    1.411629   -2.542839    0.154570
 C    0.593628   -1.430610    0.362478
 C   -0.176126   -1.405597    1.658058
 C   -1.041945   -0.177506    1.944202
 C   -2.117838   -0.026403    0.906630
 C   -3.443142   -0.339655    1.157945
 H    3.904062    1.284392    2.301878
 H    2.236565    0.790662    2.632866
 H    3.404064   -0.393199    2.024450
 H    1.895633    0.357733    0.268005
 H    3.481152    0.784170   -0.043175
 H    3.150844    3.034570    0.391860
 H    1.633924    2.675161    1.234580
 H    2.020527    1.999904   -1.709412
 H    1.445546    3.573457   -1.183881
 H   -0.691631    2.779010   -0.747095
 H   -2.422827    0.997117   -2.308293
 H   -4.783472    0.437523   -1.844354
 H   -5.428608   -0.429328    0.372680
 H    1.144957    0.064720   -2.631703
 H    2.566443   -1.914720   -2.951776
 H    2.740044   -3.597817   -1.141526
 H    1.451369   -3.301423    0.922329
 H    0.528263   -1.551606    2.483976
 H   -0.831950   -2.281792    1.653342
 H   -0.427797    0.728501    1.971891
 H   -1.494879   -0.302711    2.928483
 H   -3.729961   -0.704995    2.133004
