42 
4m48_ligand_dft.xyz
 C    4.492138    1.981695   -0.810357
 N    3.400556    1.814451    0.191231
 C    3.405837    0.502834    0.930506
 C    2.106189    0.344003    1.732549
 C    0.887934    0.956147    1.076405
 C   -0.016674    0.320008    0.309738
 C   -1.265843    1.020514   -0.095410
 C   -1.262833    2.056834   -1.025284
 C   -2.454647    2.683645   -1.378682
 C   -3.647610    2.270835   -0.796045
 C    0.135594   -1.093981   -0.134090
 C    1.249718   -1.417105   -0.923102
 C    1.473988   -2.704680   -1.385449
 C    0.563603   -3.704550   -1.057438
 C   -0.560964   -3.387584   -0.309303
 C   -0.814485   -2.090241    0.151538
 C   -2.121400   -1.887502    0.902531
 C   -2.421465   -0.513933    1.515882
 C   -2.463742    0.600733    0.500110
 C   -3.647678    1.238175    0.139232
 H    5.452094    1.894575   -0.301171
 H    4.394561    1.196229   -1.560000
 H    4.400549    2.961838   -1.278903
 H    2.474047    1.880014   -0.259030
 H    3.427942    2.583108    0.867762
 H    4.300971    0.484969    1.555581
 H    3.492379   -0.269716    0.165329
 H    2.235212    0.795814    2.721879
 H    1.959140   -0.729627    1.884512
 H    0.653145    1.982555    1.360998
 H   -0.327770    2.362919   -1.488664
 H   -2.450768    3.486977   -2.108375
 H   -4.580949    2.754021   -1.066620
 H    1.918249   -0.616322   -1.231030
 H    2.336307   -2.923757   -2.007010
 H    0.717475   -4.722216   -1.401271
 H   -1.281905   -4.167868   -0.078166
 H   -2.171980   -2.637142    1.701388
 H   -2.933506   -2.135833    0.207009
 H   -1.677176   -0.283376    2.288673
 H   -3.386280   -0.581821    2.027852
 H   -4.581580    0.928416    0.600651
