38 
4m4q_ligand_dft.xyz
 O    8.992475   19.685024   -8.712126
 C    9.517113   20.497964   -9.660774
 C    9.611685   21.859228   -9.330839
 O    9.190182   22.331639   -8.136249
 C   10.174945   22.687654  -10.277370
 C   10.606137   22.168619  -11.509731
 C   11.273282   23.090901  -12.466217
 C   12.534099   22.796122  -12.998952
 C   13.162067   23.673345  -13.867453
 C   12.542690   24.875945  -14.223745
 C   13.235683   25.778666  -15.144333
 N   12.891804   27.048189  -15.437706
 N   13.772967   27.553061  -16.319104
 N   14.619233   26.612209  -16.548510
 N   14.320939   25.500769  -15.841706
 C   11.286634   25.178844  -13.695896
 C   10.662296   24.295616  -12.824333
 C   10.420662   20.800504  -11.751086
 N    9.894198   19.992716  -10.808704
 C   10.765712   20.126546  -13.032030
 C   10.450629   20.691546  -14.271837
 C   10.764806   20.037534  -15.456515
 C   11.397377   18.805610  -15.389450
 F   11.707818   18.170145  -16.528820
 C   11.712613   18.208578  -14.178179
 C   11.387364   18.874524  -13.003230
 H    8.851114   21.585182   -7.622027
 H   10.309154   23.739446  -10.044829
 H   13.023586   21.866239  -12.728311
 H   14.139113   23.442780  -14.278277
 H   12.144752   27.628791  -15.090066
 H   10.771257   26.095111  -13.971867
 H    9.678141   24.534195  -12.431369
 H    9.947359   21.651794  -14.316406
 H   10.522368   20.466052  -16.422469
 H   12.202939   17.241463  -14.167026
 H   11.614400   18.420848  -12.044012
 H    8.974408   18.791601   -9.085447
