32 
4m5g_ligand_dft.xyz
 N   55.405961    6.651741   30.871826
 C   54.181323    6.997740   31.376976
 N   54.005720    7.873112   32.328641
 C   55.179223    8.388289   32.780240
 C   56.473306    8.129568   32.340438
 C   56.671844    7.170374   31.284717
 O   57.683173    6.771168   30.747665
 N   53.096765    6.331429   30.860950
 N   55.320511    9.304427   33.772734
 C   56.669965    9.573314   33.877038
 N   57.391255    8.881163   33.034072
 S   57.306902   10.665701   35.100633
 C   56.741946   12.272341   34.469796
 C   55.259668   12.588650   34.658850
 C   54.815375   13.995348   34.414513
 O   54.453156   11.735590   34.980418
 C   53.476376   14.310484   34.671701
 C   53.005210   15.598322   34.459551
 C   53.866067   16.584154   33.980217
 C   55.197996   16.278677   33.714887
 C   55.673332   14.990320   33.933284
 H   55.477034    5.911113   30.185903
 H   52.216732    6.729085   31.157802
 H   53.125461    6.079043   29.883732
 H   54.602144    9.785749   34.300831
 H   57.342302   13.018723   35.000343
 H   56.996216   12.360484   33.407139
 H   52.821605   13.528243   35.040445
 H   51.966330   15.835831   34.666133
 H   53.497762   17.591779   33.812304
 H   55.868646   17.044178   33.337599
 H   56.713697   14.770856   33.715623
