36 
4m5j_ligand_xtb.xyz
 C    8.500379   -0.509295   22.259967
 O    7.933092   -0.782697   21.224503
 N    6.888960   -0.981579   24.175888
 S    5.859919   -1.315419   26.640227
 C    6.264227   -3.325298   21.046831
 C    5.187178   -2.688033   20.434649
 C    4.085835   -2.314219   21.211464
 C    4.102366   -2.477458   22.576244
 C    6.289521   -2.503015   18.347707
 N    8.298975   -0.421240   25.812598
 C    8.078961   -0.582826   23.624953
 O    6.099278   -3.948566   25.199816
 N   10.232365    0.217195   24.501620
 C    7.054668   -0.883145   25.462847
 O    5.110248   -2.401950   19.114815
 C    8.966787   -0.225859   24.642788
 N    9.833848   -0.034008   22.200564
 C   10.620743    0.305520   23.260823
 N   11.854237    0.807152   22.994054
 C    4.672424   -2.061865   25.480994
 C    5.386650   -3.133420   24.658447
 C    5.208267   -3.055301   23.202849
 C    6.258888   -3.516487   22.410257
 H    7.114494   -3.652613   20.471408
 H    3.241448   -1.862573   20.714439
 H    3.242522   -2.169823   23.152828
 H    6.054127   -2.056172   17.382769
 H    7.105777   -1.951837   18.822572
 H    6.584031   -3.546942   18.197740
 H    8.653472   -0.275996   26.742597
 H   10.198856    0.071762   21.261334
 H   12.460906    0.908119   23.789860
 H   12.285545    0.614516   22.106698
 H    4.271126   -1.262343   24.864790
 H    3.896767   -2.508302   26.103870
 H    7.098111   -3.989982   22.897190
