23 
4m5o_ligand_xtb.xyz
 O   -2.805950    1.853641    0.215568
 C   -2.114959    0.903137   -0.070029
 N   -0.745644    0.926685   -0.091542
 C   -0.063087   -0.141368    0.144292
 C   -0.721720   -1.391766    0.525055
 C   -2.019214   -1.533343    0.250398
 C   -2.754956   -0.430697   -0.459589
 O   -4.130005   -0.418297   -0.219490
 C    1.391527   -0.060805    0.059080
 C    2.009276    1.190997    0.128156
 C    3.382410    1.297767    0.041247
 C    4.158816    0.160768   -0.125699
 C    3.554690   -1.083818   -0.209018
 C    2.180876   -1.199428   -0.113243
 H   -0.152889   -2.156804    1.027612
 H   -2.587768   -2.420719    0.481221
 H   -2.575602   -0.577421   -1.545392
 H   -4.348691    0.484265    0.072991
 H    1.385328    2.060939    0.258364
 H    3.852386    2.267814    0.102444
 H    5.233267    0.243825   -0.194471
 H    4.158174   -1.968143   -0.350602
 H    1.720989   -2.171954   -0.203890
