23 
4m5o_ligand_dft.xyz
 O   -2.816073    1.853916    0.206630
 C   -2.131690    0.897156   -0.089099
 N   -0.740618    0.960259   -0.154749
 C   -0.075551   -0.123179    0.098055
 C   -0.728301   -1.402212    0.453762
 C   -2.034652   -1.546016    0.217532
 C   -2.794916   -0.428870   -0.443075
 O   -4.147444   -0.424272   -0.104237
 C    1.402659   -0.050461    0.044568
 C    2.029298    1.199653    0.123609
 C    3.412188    1.295231    0.063338
 C    4.187132    0.146326   -0.087271
 C    3.572991   -1.099127   -0.178296
 C    2.187906   -1.198852   -0.107215
 H   -0.142239   -2.188369    0.915289
 H   -2.579494   -2.455947    0.450020
 H   -2.668862   -0.554950   -1.537125
 H   -4.343373    0.499183    0.132574
 H    1.410606    2.083170    0.236827
 H    3.888972    2.267894    0.134697
 H    5.269303    0.222665   -0.135226
 H    4.172025   -1.995219   -0.307083
 H    1.723138   -2.175284   -0.201327
