44 
4m6p_ligand_dft.xyz
 C   16.534783    4.820554   -4.758375
 C   17.220575    4.021281   -3.846240
 C   16.751072    3.890907   -2.543766
 C   15.593359    4.569177   -2.174876
 C   14.893686    5.364455   -3.077042
 C   15.372829    5.487456   -4.377051
 S   15.002068    4.432385   -0.493713
 O   15.496979    3.170081    0.049397
 O   13.578958    4.759026   -0.498032
 C   15.855656    5.752536    0.355999
 C   15.307813    7.033959    0.352526
 C   15.982175    8.058459    1.000282
 C   17.194095    7.807796    1.653565
 C   17.721866    6.518124    1.646944
 C   17.057896    5.481960    0.996429
 C   17.894786    8.936254    2.381424
 N   17.111393    9.455856    3.487137
 C   16.336949   10.571640    3.360550
 O   16.331382   11.256614    2.346562
 C   15.492961   10.917546    4.546590
 C   14.922334    9.974338    5.363164
 C   14.113118   10.450857    6.416701
 C   13.358579    9.901155    7.448954
 N   12.834199   10.958364    8.095138
 N   13.151934   12.161944    7.605337
 C   13.942172   11.864218    6.564900
 N   14.496250   12.794848    5.744017
 C   15.226860   12.311550    4.775609
 H   16.904685    4.918927   -5.774442
 H   18.118958    3.493903   -4.150992
 H   17.259413    3.258492   -1.823502
 H   13.980107    5.859346   -2.764760
 H   14.835249    6.099919   -5.093943
 H   14.358022    7.215490   -0.139609
 H   15.573581    9.065162    1.005671
 H   18.659188    6.315047    2.158803
 H   17.451620    4.471067    1.002738
 H   18.865928    8.603207    2.760442
 H   18.065420    9.776209    1.702905
 H   17.108904    8.947829    4.357124
 H   15.051615    8.908551    5.191602
 H   13.165747    8.884867    7.757780
 H   12.230050   10.924699    8.902842
 H   15.670785   13.024944    4.085212
