12 
4m6u_ligand_xtb.xyz
 C   -1.212351   -0.342932    0.029079
 C   -0.007895    0.426284    0.583929
 C    1.293083   -0.146234   -0.027594
 O   -1.248325   -1.547983    0.086797
 O   -2.135613    0.415173   -0.507885
 O   -0.119668    1.790161    0.295845
 O    2.103831    0.620967   -0.468032
 O    1.411373   -1.452609   -0.010175
 H    0.037487    0.253707    1.671468
 H   -1.852228    1.353684   -0.444673
 H    0.730821    2.065925   -0.095864
 H    0.554115   -1.901699    0.184183
