35 
4m7b_ligand_dft.xyz
 C   -3.308482    3.424285    0.023444
 C   -3.235366    1.922916    0.014250
 C   -1.955069    1.289801    0.006385
 N   -4.389277    1.301097    0.014194
 N   -4.265940   -0.054303    0.005613
 C   -5.255203   -0.988767    0.004203
 N   -4.735367   -2.195793   -0.004348
 N   -3.376742   -2.076075   -0.008923
 C   -3.112477   -0.785655   -0.003063
 C   -1.862287   -0.085837   -0.003339
 N   -0.736334   -0.823773   -0.012796
 C    0.594112   -0.257996   -0.005675
 C    1.651889   -1.362608   -0.022335
 C    3.046909   -0.786888   -0.015045
 C    3.685826   -0.437895   -1.208527
 C    4.948394    0.136852   -1.213017
 C    5.602650    0.376960   -0.004141
 O    6.838814    0.939330   -0.062768
 C    4.982267    0.036642    1.197281
 C    3.715629   -0.538694    1.182539
 H   -2.801337    3.828595    0.906016
 H   -2.813761    3.838504   -0.861592
 H   -4.350418    3.748254    0.032429
 H   -1.067891    1.912474    0.007624
 H   -6.303413   -0.735302    0.009542
 H   -0.855356   -1.827337   -0.014359
 H    0.731598    0.368908    0.886993
 H    0.729143    0.393438   -0.880824
 H    1.503456   -1.984490   -0.913676
 H    1.505114   -2.009997    0.850890
 H    3.186209   -0.624670   -2.156426
 H    5.444711    0.401414   -2.140629
 H    7.183402    1.045670    0.831841
 H    5.487236    0.215533    2.144180
 H    3.243667   -0.802386    2.126184
