42 
4m84_ligand_xtb.xyz
 C    1.227119   -1.824911   -0.085327
 C    2.526989   -2.231246   -0.085911
 C    3.561368   -1.268925   -0.028613
 C    4.929577   -1.593928   -0.020514
 C    5.875002   -0.606215    0.037372
 C    5.490542    0.742223    0.088761
 C    4.168262    1.092179    0.081678
 C    3.172721    0.095627    0.023502
 N    1.878747    0.469907    0.020978
 C    0.928432   -0.436784   -0.028607
 C   -0.468694   -0.034632   -0.018984
 N   -1.374575   -1.005801   -0.026978
 N   -2.582845   -0.439538   -0.005423
 C   -3.776994   -1.276895    0.027316
 C   -4.602463   -1.052951   -1.245643
 C   -3.329628   -2.737822    0.080886
 C   -4.589044   -0.942602    1.282158
 C   -2.484497    0.911321    0.008290
 N   -3.513128    1.796197    0.120729
 C   -1.120411    1.232251    0.003376
 C   -0.682725    2.632465   -0.044620
 O   -1.501157    3.554454   -0.090604
 N    0.637326    2.852185   -0.053844
 H    0.404276   -2.518631   -0.125994
 H    2.785878   -3.280533   -0.128826
 H    5.217303   -2.635151   -0.060308
 H    6.925204   -0.858048    0.044266
 H    6.252692    1.506255    0.134455
 H    3.859793    2.125727    0.121829
 H   -5.065310   -0.069827   -1.264988
 H   -3.969680   -1.156312   -2.124420
 H   -5.394796   -1.794878   -1.301067
 H   -2.765253   -2.993339   -0.811067
 H   -2.693089   -2.904851    0.944590
 H   -4.200428   -3.384180    0.150073
 H   -4.007757   -1.174476    2.171435
 H   -4.851869    0.110591    1.313896
 H   -5.501147   -1.533418    1.298832
 H   -4.359484    1.609704   -0.391571
 H   -3.141951    2.746724    0.025604
 H    0.955859    3.805556   -0.095643
 H    1.286992    2.057891   -0.015210
