98 
4m8y_ligand_xtb.xyz
 N    3.538958    1.169130   -1.268324
 C    8.030912    1.099628   -0.047170
 O   -4.026614    2.909954   -1.335946
 C    2.098949    1.135209   -1.098067
 C    1.443354    1.767365   -2.334291
 C   -0.005938    2.088358   -2.115693
 C   -0.380379    3.098576   -1.237884
 C   -1.712316    3.365718   -0.988801
 C   -2.697717    2.615782   -1.616377
 C   -4.774343    1.801739   -0.909101
 P   -3.906365    1.092435    0.562705
 O   -3.488042    2.330405    1.479296
 C   -4.415384    3.352154    1.847881
 C   -3.943918    3.981578    3.147674
 O   -2.750525    0.218728    0.373696
 O   -5.154991    0.394507    1.331702
 C   -4.804789   -0.366155    2.489581
 C   -6.060071   -1.002901    3.057493
 C   -2.338820    1.634271   -2.528185
 C   -1.002726    1.380340   -2.773272
 C    1.673357   -0.331951   -0.865811
 O    1.895408   -1.034801   -2.061867
 C    0.226671   -0.471287   -0.359869
 N    0.080680   -1.655661    0.459399
 C   -0.313748   -1.469199    1.837610
 C    0.857461   -0.974710    2.697307
 C    0.356635   -0.621153    4.094933
 C    1.948486   -2.038953    2.761122
 S   -0.487151   -2.996062   -0.323606
 O   -0.542185   -4.074340    0.618824
 O    0.338751   -3.174200   -1.494130
 C   -2.141166   -2.611447   -0.872741
 C   -2.350247   -2.080511   -2.132591
 C   -3.617489   -1.681375   -2.497847
 C   -4.681000   -1.803171   -1.599433
 O   -5.876026   -1.323115   -2.033991
 C   -6.984034   -1.377052   -1.162445
 C   -4.467512   -2.392578   -0.356629
 C   -3.190940   -2.785660    0.003253
 C    4.354854    1.326261   -0.203332
 O    4.028239    1.749371    0.877294
 O    5.630669    0.994869   -0.536106
 C    6.589259    1.163879    0.494480
 C    6.534520    0.025663    1.532348
 O    7.859549   -0.136714    1.983809
 C    8.738802    0.113259    0.921983
 O    9.072851   -1.031030    0.183788
 C    8.339173   -1.048338   -1.029483
 C    8.167630    0.422200   -1.410958
 H    3.892514    0.631712   -2.046564
 H    8.490877    2.085834   -0.032388
 H    1.879654    1.718119   -0.199249
 H    1.991280    2.683934   -2.564193
 H    1.555519    1.071549   -3.165674
 H    0.380616    3.676979   -0.735012
 H   -2.001394    4.147539   -0.304123
 H   -5.762302    2.172598   -0.631118
 H   -4.884463    1.036777   -1.682489
 H   -4.448438    4.097828    1.047368
 H   -5.413989    2.918132    1.968024
 H   -2.938519    4.374260    3.024574
 H   -3.928864    3.241266    3.943452
 H   -4.612359    4.791129    3.427415
 H   -4.064781   -1.119557    2.202900
 H   -4.343013    0.298607    3.228381
 H   -5.809031   -1.565920    3.951739
 H   -6.509477   -1.675065    2.331576
 H   -6.787422   -0.236380    3.312803
 H   -3.098500    1.070536   -3.046175
 H   -0.729992    0.615360   -3.485139
 H    2.331160   -0.730148   -0.073027
 H    1.460459   -1.906297   -1.976753
 H   -0.452977   -0.528936   -1.212418
 H   -0.062941    0.401474    0.225789
 H   -1.153716   -0.766250    1.892973
 H   -0.634794   -2.448417    2.195790
 H    1.271227   -0.072832    2.234531
 H   -0.404885    0.154028    4.044081
 H    1.177772   -0.258326    4.707950
 H   -0.072736   -1.497232    4.576499
 H    1.592606   -2.912630    3.302473
 H    2.833025   -1.651927    3.261626
 H    2.220430   -2.354371    1.757192
 H   -1.520402   -2.005602   -2.817184
 H   -3.815891   -1.270566   -3.475622
 H   -6.788881   -0.818829   -0.241836
 H   -7.252808   -2.410257   -0.922708
 H   -7.804830   -0.911089   -1.705460
 H   -5.281549   -2.540562    0.333583
 H   -2.997861   -3.240867    0.961737
 H    6.403618    2.123398    0.990735
 H    6.156689   -0.889342    1.056085
 H    5.911742    0.267410    2.393420
 H    9.664619    0.484099    1.375552
 H    8.923542   -1.621537   -1.750560
 H    7.364913   -1.533789   -0.890054
 H    7.301156    0.591331   -2.043259
 H    9.063997    0.786703   -1.912699
