56 
4mbc_ligand_dft.xyz
 C    8.275790   -0.725641    2.295831
 C    8.850904   -0.982427    1.126398
 C    8.338125   -0.544320   -0.221129
 C    3.615960    0.692633   -0.190834
 C    1.491880    1.201867   -0.138361
 C    0.314244    1.931067    0.036648
 C   -0.904382    1.297597   -0.173305
 C   -0.862905   -0.053795   -0.579873
 C    1.374000   -0.144637   -0.514936
 O   -2.069865   -0.642420   -0.848245
 C   -3.576863   -2.319672   -1.343775
 C   -5.887582   -1.552644   -0.815632
 C   -6.745578   -0.857464    0.235201
 C   -5.335501   -1.452548    1.965905
 C   -2.525956    3.188746   -0.602584
 C   -3.199299    1.389054    0.800511
 C   -3.797823    3.723459   -0.423193
 C   -4.724829    3.014994    0.333433
 C   -2.207533    1.977252    0.009985
 C    5.939753   -0.069142   -0.316749
 C   -4.367482   -2.178593    1.035155
 C   -2.108318   -2.037598   -1.059395
 N   -4.436514    1.858881    0.944258
 N    2.778934    1.657526    0.040407
 N    0.221826   -0.775487   -0.742684
 N   -4.457119   -1.608880   -0.354984
 N    4.964455    0.903344   -0.072577
 N    7.214785    0.372065   -0.162078
 O    5.626398   -1.196558   -0.658452
 O   -6.648018   -1.531301    1.465998
 S    2.955205   -0.879019   -0.653087
 H    7.349240   -0.161789    2.371828
 H    8.706616   -1.081941    3.225480
 H    9.773012   -1.559933    1.091527
 H    8.010452   -1.412593   -0.799960
 H    9.144689   -0.067869   -0.790220
 H    0.356215    2.967897    0.355714
 H   -3.808269   -3.386286   -1.303498
 H   -3.847858   -1.930717   -2.327949
 H   -5.905642   -1.023051   -1.771036
 H   -6.213197   -2.585827   -0.961959
 H   -7.790440   -0.894142   -0.077951
 H   -6.439619    0.193685    0.343070
 H   -5.039050   -0.402110    2.100271
 H   -5.324732   -1.948980    2.937904
 H   -1.793945    3.694136   -1.225986
 H   -2.962857    0.480821    1.355472
 H   -4.075971    4.665325   -0.883202
 H   -5.737527    3.386806    0.463175
 H   -4.628297   -3.237248    0.956825
 H   -3.334250   -2.077951    1.373057
 H   -1.730039   -2.575780   -0.182983
 H   -1.500584   -2.338372   -1.917750
 H   -4.094722   -0.644438   -0.309671
 H    5.210119    1.856192    0.161198
 H    7.381040    1.269424    0.269432
