37 
4mbi_ligand_xtb.xyz
 N   -3.158166   -0.962927    0.257125
 N    3.097959   -0.021481    0.068515
 C   -1.174672   -2.381181   -0.452790
 C    1.169913   -1.927523   -0.040544
 C    2.538044   -2.296171    0.118738
 C    3.483882   -1.310538    0.158548
 C    1.744357    0.261811   -0.106151
 C    0.228111    2.131477   -0.157640
 C    2.907990    2.097350    0.080606
 C   -3.602995    0.013046    1.272188
 C   -3.415736   -0.395163   -1.079845
 C   -1.731390   -1.288655    0.477410
 N    0.124431   -2.834398    0.019485
 N    0.817854   -0.679632   -0.187829
 C    1.600073    1.644200   -0.094388
 C   -0.643846    1.935199   -1.232601
 N   -1.908951    1.992498   -0.821266
 N   -1.911938    2.202540    0.509476
 C   -0.648055    2.290688    0.921666
 N    3.798845    1.100778    0.169477
 H   -3.700343   -1.829841    0.359715
 H   -1.087389   -1.975494   -1.468748
 H   -1.843675   -3.247897   -0.460805
 H    2.824588   -3.331287    0.206082
 H    4.539939   -1.505184    0.273000
 H    3.258044    3.109107    0.154138
 H   -3.030389    0.970834    1.114040
 H   -4.664509    0.211563    1.150745
 H   -3.417682   -0.368576    2.273015
 H   -4.482376   -0.222890   -1.199536
 H   -2.876836    0.596626   -1.147017
 H   -3.072950   -1.068846   -1.858497
 H   -1.603841   -1.620410    1.509700
 H   -1.143143   -0.379621    0.328578
 H    0.363965   -3.784334   -0.222017
 H   -0.404522    1.765021   -2.268514
 H   -0.413179    2.452344    1.960053
