37 
4mbi_ligand_dft.xyz
 N   -3.246412   -0.979665    0.211873
 N    3.113204   -0.092051    0.050579
 C   -1.200259   -2.308846   -0.488426
 C    1.153853   -1.949642   -0.044691
 C    2.519432   -2.365541    0.126910
 C    3.480942   -1.395047    0.161257
 C    1.779934    0.236772   -0.103157
 C    0.307396    2.179549   -0.109830
 C    3.007355    2.021411    0.080233
 C   -3.782402   -0.050411    1.262120
 C   -3.475750   -0.392623   -1.149358
 C   -1.799430   -1.286443    0.492082
 N    0.076880   -2.832843   -0.009526
 N    0.824989   -0.701106   -0.194877
 C    1.666463    1.612630   -0.078958
 C   -0.576451    2.153602   -1.198039
 N   -1.851959    2.220091   -0.791040
 N   -1.851143    2.278084    0.570368
 C   -0.574541    2.247272    0.981110
 N    3.889426    1.012594    0.157913
 H   -3.770236   -1.855700    0.267718
 H   -1.075410   -1.830985   -1.468382
 H   -1.877041   -3.166423   -0.595301
 H    2.794236   -3.407751    0.236406
 H    4.539860   -1.584510    0.288893
 H    3.384569    3.033408    0.152491
 H   -3.217518    0.900590    1.187743
 H   -4.844393    0.106631    1.065615
 H   -3.644416   -0.519866    2.237921
 H   -4.550296   -0.240541   -1.266485
 H   -2.939395    0.575859   -1.201722
 H   -3.119412   -1.093698   -1.904343
 H   -1.752843   -1.681457    1.510584
 H   -1.267503   -0.335186    0.445872
 H    0.278445   -3.779490   -0.297762
 H   -0.333754    2.067179   -2.252392
 H   -0.329036    2.260115    2.038607
