87 
4mbp_ligand_xtb.xyz
 C   -5.308730    0.468734    0.160990
 C   -6.072518    0.961502   -1.083257
 C   -5.364138    2.216160   -1.610761
 C   -5.294382    3.265121   -0.496605
 C   -4.592146    2.656628    0.721514
 C   -4.608430    3.613535    1.916549
 O   -6.163185   -0.025476   -2.071064
 O   -6.053288    2.765678   -2.711296
 O   -4.583372    4.401669   -0.910922
 O   -5.245159    1.459256    1.143969
 O   -3.933659    3.081869    3.024072
 C   -1.297933   -2.961791    0.248779
 C   -2.235793   -3.104757   -0.964543
 C   -2.872765   -1.735532   -1.238934
 C   -3.578192   -1.225959    0.020354
 C   -2.602313   -1.227921    1.210599
 C   -3.332958   -0.937978    2.527474
 O   -1.564603   -3.582565   -2.094534
 O   -3.811636   -1.817976   -2.286509
 O   -4.025629    0.082605   -0.265117
 O   -1.992220   -2.506383    1.373566
 O   -4.283130   -1.926830    2.815637
 C    3.789837   -1.597060    0.192023
 C    3.302214   -2.281142   -1.095267
 C    1.800649   -2.013870   -1.235934
 C    1.066953   -2.491500    0.019366
 C    1.704784   -1.890827    1.284235
 C    1.154362   -2.559052    2.551169
 O    3.953127   -1.816422   -2.246610
 O    1.257841   -2.687551   -2.346971
 O   -0.275799   -2.074029   -0.117764
 O    3.112647   -2.110797    1.305100
 O    1.434802   -3.932263    2.567358
 C    5.935203    3.198542   -0.356553
 C    6.664566    1.851833   -0.548003
 C    5.603723    0.789986   -0.875859
 C    4.732488    0.597866    0.369019
 C    4.232333    1.976491    0.853250
 C    4.657600    2.256968    2.302277
 O    5.952839    3.868805   -1.579906
 O    7.626501    1.905746   -1.563567
 O    6.222837   -0.425441   -1.236786
 O    3.605035   -0.209121    0.088475
 O    4.578150    3.029449   -0.017749
 O    6.049429    2.067948    2.439954
 H   -5.840268   -0.371218    0.627037
 H   -7.099960    1.220098   -0.801096
 H   -4.339711    1.941459   -1.910239
 H   -6.325617    3.542434   -0.219423
 H   -3.553445    2.425866    0.451071
 H   -4.095277    4.534324    1.637603
 H   -5.652920    3.840694    2.169702
 H   -5.308161   -0.486337   -2.145269
 H   -6.392422    2.022372   -3.227592
 H   -4.904400    4.620374   -1.795749
 H   -4.346172    2.234213    3.229849
 H   -0.891911   -3.940705    0.535746
 H   -3.025569   -3.830117   -0.735232
 H   -2.077641   -1.022226   -1.505104
 H   -4.428790   -1.882914    0.247389
 H   -1.832496   -0.466734    1.030262
 H   -3.872732    0.006160    2.443926
 H   -2.590819   -0.862736    3.333756
 H   -0.691231   -3.154525   -2.158164
 H   -3.448420   -2.428166   -2.943370
 H   -3.824647   -2.776589    2.804307
 H    4.847047   -1.838999    0.362434
 H    3.464039   -3.367332   -0.986114
 H    1.651078   -0.929396   -1.341742
 H    1.125523   -3.587304    0.069580
 H    1.495624   -0.813390    1.300624
 H    0.068387   -2.457020    2.582214
 H    1.592100   -2.062568    3.427649
 H    4.801109   -1.411905   -1.996013
 H    1.870340   -2.553912   -3.082009
 H    2.389517   -4.030514    2.462295
 H    6.446506    3.805109    0.413476
 H    7.180178    1.564903    0.373799
 H    4.971176    1.141235   -1.706051
 H    5.346101    0.128834    1.148089
 H    3.138303    1.963455    0.815293
 H    4.107685    1.570963    2.959531
 H    4.379152    3.289655    2.548266
 H    5.179715    4.444219   -1.605547
 H    7.331811    2.568625   -2.206006
 H    7.058898   -0.184338   -1.667238
 H    6.299614    2.252731    3.352078
