75 
4mc1_ligand_dft.xyz
 C   -4.858477    1.339666    3.152611
 C   -5.786962    0.449354    2.640496
 C   -5.668693   -0.101895    1.371800
 C   -4.588337    0.231672    0.558050
 C   -3.642352    1.127238    1.083157
 C   -3.770631    1.674221    2.355458
 C   -4.494394   -0.371898   -0.827750
 C   -3.358042   -1.408808   -1.026098
 C   -2.018978   -0.710570   -1.320583
 N   -1.487562    0.090802   -0.209482
 S   -2.195389    1.544559    0.127536
 C   -0.848407   -0.628470    0.892965
 C    0.618560   -0.967938    0.630658
 C    1.460212    0.291567    0.300026
 O    0.659267   -1.958850   -0.367663
 C    1.477654    0.656555   -1.196426
 N    2.823207    0.179584    0.832879
 C    3.692456   -0.766146    0.408028
 O    4.952507   -0.460114    0.759982
 O    3.398868   -1.790303   -0.199936
 C    2.230873    1.941749   -1.433826
 C    3.539017    1.930714   -1.921052
 C    4.247377    3.117727   -2.091580
 C    3.653079    4.334873   -1.773352
 C    2.348852    4.357166   -1.283234
 C    1.644140    3.170060   -1.113426
 O   -1.292347    2.273803    1.010059
 O   -2.603647    2.123230   -1.142461
 C   -3.716722   -2.477612   -2.108554
 C   -4.847600   -3.377599   -1.580857
 C   -4.159207   -1.823513   -3.427032
 C   -2.503674   -3.384964   -2.386994
 F   -6.839070    0.103429    3.391064
 C    5.956076   -1.411256    0.363004
 C    5.931366   -2.666168    1.262645
 C    7.312131   -0.784599    0.672951
 O    7.106522   -2.635169    2.054451
 C    7.572076   -1.299937    2.087382
 H   -4.987953    1.752379    4.146293
 H   -6.431236   -0.792116    1.025592
 H   -3.010141    2.359070    2.714029
 H   -5.458368   -0.842782   -1.032084
 H   -4.381347    0.432129   -1.562377
 H   -3.240617   -1.965364   -0.084576
 H   -2.105272   -0.053728   -2.189621
 H   -1.232389   -1.434928   -1.524812
 H   -0.909036   -0.017914    1.796842
 H   -1.384836   -1.565505    1.085671
 H    1.009362   -1.368992    1.580511
 H    1.013907    1.127413    0.848040
 H    1.604273   -2.162856   -0.496287
 H    1.929319   -0.165445   -1.758518
 H    0.443298    0.752610   -1.534450
 H    3.254422    1.036375    1.149270
 H    4.005422    0.980962   -2.174279
 H    5.262550    3.090359   -2.477633
 H    4.200474    5.263068   -1.909073
 H    1.876122    5.303301   -1.036172
 H    0.628353    3.191689   -0.724241
 H   -5.762454   -2.821079   -1.351782
 H   -4.535864   -3.902777   -0.670317
 H   -5.110000   -4.132812   -2.329874
 H   -3.394379   -1.144491   -3.819813
 H   -4.337383   -2.593047   -4.186727
 H   -5.088286   -1.254986   -3.312548
 H   -2.037193   -3.730953   -1.456995
 H   -1.734191   -2.880752   -2.979408
 H   -2.820926   -4.267383   -2.953597
 H    5.804792   -1.646534   -0.691113
 H    5.032407   -2.652551    1.892741
 H    5.933037   -3.592695    0.682891
 H    8.064322   -1.185518   -0.013087
 H    7.288171    0.303196    0.580647
 H    7.015277   -0.703229    2.826998
 H    8.626990   -1.318517    2.369673
