72 
4mc9_ligand_xtb.xyz
 C   -5.072195    2.417820   -1.199684
 C   -6.006099    1.396427   -1.223903
 C   -5.821050    0.206111   -0.542553
 C   -4.661529    0.010063    0.198709
 C   -3.725612    1.035966    0.218572
 C   -3.916456    2.220687   -0.464525
 F   -7.136278    1.562239   -1.934628
 C   -4.429478   -1.269191    0.941895
 S   -2.187383    0.805454    1.111157
 N   -1.473270   -0.504418    0.392795
 O   -2.446274    0.462480    2.478279
 O   -1.358431    1.948124    0.855594
 C   -1.011062   -0.323109   -0.959761
 C   -1.953605   -1.806226    0.793194
 C   -3.358481   -2.154628    0.272819
 C   -3.635466   -3.662368    0.458164
 C    0.498276   -0.598795   -1.078119
 C    1.288722    0.465717   -0.280471
 O    0.804228   -0.640186   -2.439841
 N    2.555958   -0.069413    0.204677
 C    1.506437    1.754942   -1.089479
 C    2.293153    2.744456   -0.279741
 C    1.677543    3.432064    0.760629
 C    2.403359    4.318598    1.535845
 C    3.750365    4.524658    1.284048
 C    4.369715    3.840082    0.253001
 C    3.643800    2.953212   -0.523875
 C    3.529161   -0.568145   -0.579956
 O    4.667253   -0.723859    0.131032
 O    3.423978   -0.881108   -1.747297
 C    5.754833   -1.329855   -0.562995
 C    5.565609   -2.860586   -0.686881
 O    6.743684   -3.456366   -0.201703
 C    7.234717   -2.609628    0.813704
 C    7.027414   -1.188014    0.278354
 C   -3.791458   -4.063189    1.923248
 C   -4.854223   -4.113301   -0.347408
 H   -5.253640    3.331813   -1.741096
 H   -6.582936   -0.556244   -0.594249
 H   -3.150568    2.977309   -0.404264
 H   -5.372758   -1.812332    0.988892
 H   -4.112317   -1.031012    1.957934
 H   -1.531393   -0.982883   -1.660597
 H   -1.206812    0.708488   -1.252535
 H   -1.231016   -2.547826    0.443091
 H   -1.949784   -1.799570    1.883843
 H   -3.375223   -1.959158   -0.806595
 H   -2.765075   -4.192292    0.053258
 H    0.706723   -1.576670   -0.608580
 H    0.698438    0.700391    0.609155
 H    1.769752   -0.779623   -2.508130
 H    2.855486    0.236473    1.117459
 H    2.027199    1.516180   -2.017401
 H    0.526879    2.167259   -1.330217
 H    0.628350    3.261927    0.955140
 H    1.917427    4.852114    2.339598
 H    4.315736    5.218469    1.889069
 H    5.419604    3.997716    0.051538
 H    4.129439    2.421461   -1.330665
 H    5.840318   -0.859922   -1.547172
 H    5.409166   -3.192872   -1.712413
 H    4.700533   -3.155435   -0.073881
 H    8.278761   -2.867705    0.986785
 H    6.661065   -2.754613    1.740707
 H    7.863787   -0.891052   -0.351496
 H    6.887755   -0.456350    1.069748
 H   -4.658817   -3.585776    2.370414
 H   -3.924090   -5.140168    1.996745
 H   -2.912308   -3.790666    2.499420
 H   -4.758438   -3.820375   -1.390377
 H   -4.946204   -5.195812   -0.304981
 H   -5.773095   -3.687145    0.047185
