37 
4mcc_ligand_dft.xyz
 C    3.792980   -0.853236   -0.697568
 C    4.451295    1.349145    0.046726
 C    2.702918   -0.820020    0.158217
 C    3.352112    1.379820    0.898968
 C   -2.547265   -2.108011    0.116176
 C   -2.839893    0.185913   -0.038891
 C   -1.961061   -0.898142    0.345458
 C    4.677654    0.230129   -0.755622
 C    2.472185    0.299915    0.967805
 C   -4.052785   -0.283393   -0.539654
 C   -4.925657    1.732173   -0.928450
 C   -2.665335    1.624721    0.006936
 C   -0.584802   -0.921543    0.944451
 C    5.896875    0.152688   -1.617082
 C    1.274713    0.322728    1.899458
 N   -5.105051    0.455810   -0.989222
 N   -3.784329    2.312741   -0.462375
 N    7.013426   -0.535445   -0.822614
 N    0.005355    0.264888    1.207790
 O   -1.692680    2.272186    0.390277
 O   -0.038920   -1.998413    1.181330
 S   -4.128861   -2.011873   -0.546597
 H    3.946602   -1.721961   -1.335640
 H    5.116814    2.208502   -0.005479
 H    2.010516   -1.655045    0.212733
 H    3.175013    2.259977    1.510432
 H   -2.087417   -3.062737    0.331002
 H   -5.707313    2.408700   -1.259841
 H    6.292430    1.130326   -1.899237
 H    5.756677   -0.454559   -2.513706
 H    1.291845    1.232941    2.505344
 H    1.331022   -0.537464    2.573968
 H   -3.702728    3.322092   -0.438947
 H    7.885677   -0.631252   -1.353220
 H    7.208846   -0.005958    0.033396
 H    6.706402   -1.469026   -0.529697
 H   -0.479216    1.131971    0.964968
