24 
4mcd_ligand_dft.xyz
 C   -4.338267   -0.379056    0.016126
 C   -3.867683    0.662088   -0.777465
 C   -2.515071    0.986799   -0.768867
 C   -0.192986    0.690585    0.073782
 C    0.172203    1.999856    0.197738
 C    2.161501    0.557333    0.063282
 C    0.971579   -0.156929   -0.003385
 C    1.054720   -1.597446   -0.191162
 C    3.489038   -1.220754   -0.157793
 C   -1.615600    0.277615    0.033563
 C   -2.097515   -0.769276    0.824908
 C   -3.448473   -1.093296    0.814958
 S    1.882136    2.256486    0.225736
 O    0.158464   -2.412901   -0.296455
 N    2.397663   -2.028035   -0.248380
 N    3.433105    0.060346   -0.004175
 H   -5.393060   -0.637419    0.008784
 H   -4.551568    1.219010   -1.411170
 H   -2.144933    1.786524   -1.404530
 H   -0.498410    2.841899    0.304901
 H    4.455077   -1.713449   -0.223518
 H   -1.410802   -1.334389    1.444338
 H   -3.807935   -1.909203    1.434735
 H    2.513673   -3.024842   -0.379898
