134 
4mdr_ligand_dft.xyz
 N   10.380025   -1.535388    0.094935
 C    9.341340   -1.540180   -0.977998
 C    8.032274   -1.296903   -0.214017
 O    7.942916   -1.773151    0.912994
 C    9.400371   -2.899537   -1.686262
 O   10.782777   -3.077404   -1.945362
 C    8.552263   -2.905577   -2.948849
 N    7.111906   -0.537765   -0.814165
 C    6.020788    0.076029   -0.086125
 C    4.901614    0.323716   -1.101452
 O    5.153247    0.352904   -2.300345
 C    6.466069    1.446486    0.515773
 C    7.825681    1.395776    1.168595
 C    7.987966    0.966792    2.488051
 C    8.973805    1.714770    0.440530
 C    9.245392    0.841441    3.063340
 C   10.247981    1.592456    0.995482
 C   10.386067    1.155170    2.318034
 O   11.645040    1.033832    2.798412
 N    3.688061    0.574783   -0.578459
 C    2.598855    1.102229   -1.373776
 C    1.741503    1.942372   -0.424751
 O    1.822607    1.815207    0.788772
 C    1.751422    0.002239   -2.045257
 C    1.159624   -1.004586   -1.058710
 C    0.292827   -2.073776   -1.735041
 C   -1.098487   -1.610024   -2.160507
 N   -1.910773   -1.214008   -0.975885
 N    0.897128    2.808967   -1.035823
 C   -0.207940    3.411431   -0.329107
 C   -1.410946    2.448600   -0.344657
 O   -1.454347    1.522703   -1.159121
 C   -0.541817    4.773292   -0.984695
 C   -1.669656    5.519463   -0.312820
 C   -2.880236    5.731933   -0.972706
 C   -1.535495    5.965268    1.006714
 C   -3.942580    6.360731   -0.326955
 C   -2.599488    6.582045    1.659557
 C   -3.809176    6.776138    0.995052
 N   -2.386463    2.733434    0.532692
 C   -3.736434    2.199460    0.495950
 C   -3.789336    0.778535    1.070648
 O   -2.788170    0.101260    1.261142
 C   -4.369369    2.263549   -0.920875
 C   -5.877519    2.361697   -0.903586
 C   -6.498086    3.498546   -0.373286
 C   -6.675082    1.340806   -1.425189
 C   -7.883050    3.617991   -0.373846
 C   -8.064570    1.463443   -1.435476
 C   -8.670196    2.600123   -0.909255
 N   -5.036060    0.321548    1.346009
 C   -5.231870   -1.068362    1.682764
 C   -4.822543   -1.977856    0.513635
 O   -4.729356   -1.571331   -0.647252
 C   -6.678712   -1.331709    2.143941
 C   -7.773280   -1.116338    1.097447
 C   -7.909624   -2.240923    0.097342
 O   -7.469024   -3.361033    0.229704
 O   -8.632555   -1.870100   -0.966658
 N   -4.587928   -3.255782    0.859361
 C   -4.624476   -4.332051   -0.111452
 C   -5.202403   -5.540647    0.605514
 O   -5.207149   -5.663475    1.810785
 C   -3.240982   -4.673175   -0.693776
 C   -2.230702   -5.185897    0.337884
 C   -1.835195   -4.125755    1.352117
 O   -1.268424   -3.086263    1.010545
 N   -2.105901   -4.393939    2.642426
 O   -5.627425   -6.468554   -0.244864
 H   11.216600   -2.028502   -0.243009
 H   10.597618   -0.571500    0.398003
 H    9.953800   -2.012670    0.907353
 H    9.586235   -0.738171   -1.678377
 H    9.039596   -3.665625   -0.982975
 H   10.933652   -3.937795   -2.356656
 H    8.909463   -2.149920   -3.655326
 H    8.611312   -3.882902   -3.436294
 H    7.498796   -2.716225   -2.719036
 H    7.202362   -0.235820   -1.778584
 H    5.709430   -0.606185    0.708705
 H    6.479298    2.182470   -0.296327
 H    5.702001    1.773208    1.229038
 H    7.113900    0.708140    3.079500
 H    8.877509    2.087321   -0.576869
 H    9.341122    0.505846    4.092776
 H   11.134173    1.905322    0.449957
 H   11.628989    0.868898    3.749984
 H    3.538130    0.625428    0.424143
 H    3.024416    1.738887   -2.157527
 H    2.397743   -0.513039   -2.764254
 H    0.953309    0.486938   -2.621341
 H    1.980475   -1.508038   -0.536792
 H    0.586766   -0.485899   -0.279188
 H    0.167442   -2.918479   -1.049785
 H    0.803099   -2.456668   -2.626662
 H   -1.073623   -0.750006   -2.833487
 H   -1.624073   -2.421809   -2.669425
 H   -1.749744   -0.223992   -0.719961
 H   -1.694127   -1.813207   -0.155077
 H   -2.928941   -1.300849   -1.127307
 H    0.783488    2.719435   -2.036171
 H    0.115784    3.563492    0.704376
 H    0.378812    5.366333   -0.962647
 H   -0.788319    4.603216   -2.040042
 H   -2.993899    5.410077   -2.005219
 H   -0.588653    5.835083    1.527022
 H   -4.872776    6.530642   -0.860951
 H   -2.478833    6.925642    2.682216
 H   -4.635473    7.266893    1.499404
 H   -2.248624    3.546036    1.118196
 H   -4.322707    2.850184    1.152088
 H   -4.047354    1.401901   -1.509865
 H   -3.959215    3.155709   -1.404255
 H   -5.887248    4.304963    0.028429
 H   -6.206941    0.438906   -1.811333
 H   -8.349423    4.508418    0.036082
 H   -8.669835    0.659173   -1.840754
 H   -9.751280    2.696047   -0.918150
 H   -5.826411    0.850664    1.000128
 H   -4.564057   -1.302679    2.519427
 H   -6.747792   -2.357001    2.519472
 H   -6.866837   -0.668416    2.993668
 H   -7.667095   -0.175961    0.548976
 H   -8.743279   -1.044956    1.604788
 H   -8.734110   -2.651537   -1.534829
 H   -4.782517   -3.549870    1.809953
 H   -5.295937   -4.049032   -0.925707
 H   -3.371585   -5.427489   -1.475424
 H   -2.852733   -3.772523   -1.176895
 H   -1.310399   -5.469331   -0.183013
 H   -2.606751   -6.088477    0.829951
 H   -2.627732   -5.209564    2.924999
 H   -1.845099   -3.715402    3.343708
 H   -5.962512   -7.220817    0.271857
