40 
4mep_ligand_dft.xyz
Cl    4.159908   -2.528681   -1.539515
 C    3.389609   -1.339402   -0.542199
 C    2.330109   -0.654585   -0.968989
 C    3.979191   -1.130578    0.817016
 O    4.977661   -1.697778    1.180212
 N    3.316824   -0.225924    1.696266
 C    2.309578    0.432419    1.283237
 C    1.696930    0.386100   -0.100148
 C    0.212173    0.166797   -0.005698
 N   -0.359127   -1.014023    0.040353
 C   -1.691931   -0.725698    0.113591
 C   -2.730701   -1.761791    0.192160
 C   -4.079704   -1.410784    0.295330
 C   -5.052538   -2.399647    0.366251
 C   -4.687873   -3.744251    0.334152
 C   -3.344481   -4.095651    0.232314
 C   -2.366831   -3.109783    0.161834
 N   -1.964876    0.566924    0.108788
 N   -0.738194    1.138608    0.026236
 C   -0.585161    2.552311    0.043305
 C   -1.425872    3.368395   -0.727316
 C   -2.488390    2.836587   -1.649864
 N    0.403815    2.988115    0.814092
 C    0.610112    4.303769    0.886243
 C   -0.179215    5.221794    0.208668
 C   -1.196134    4.738260   -0.606043
 H    1.903747   -0.828918   -1.951503
 H    1.830619    1.126888    1.974233
 H    1.866798    1.380250   -0.539173
 H   -4.355739   -0.361392    0.323544
 H   -6.098978   -2.121699    0.449361
 H   -5.449936   -4.515820    0.389543
 H   -3.055922   -5.142140    0.207575
 H   -1.316832   -3.371811    0.082902
 H   -2.808557    3.617935   -2.344517
 H   -3.356833    2.483791   -1.088315
 H   -2.122618    1.984325   -2.229417
 H    1.432649    4.623273    1.519963
 H    0.004898    6.285914    0.305929
 H   -1.815340    5.427717   -1.173284
