11 
4mfe_ligand_xtb.xyz
 C    1.228557   -0.280117    0.000308
 O    2.116452    0.699845    0.000650
 O    1.487613   -1.448554    0.000003
 C   -0.214105    0.269025   -0.000508
 O   -0.378858    1.472103   -0.000896
 C   -1.326257   -0.722359   -0.000788
 O   -2.587083   -0.129760    0.001095
 H    1.647907    1.561114    0.000487
 H   -1.206612   -1.372778    0.879065
 H   -1.207664   -1.369279   -0.883367
 H   -2.467790    0.832584    0.002922
