43 
4mg6_ligand_dft.xyz
 C    3.961467    1.419049    2.293890
 C    3.063908    1.926286    1.168130
 C    1.595345    1.562705    1.387437
 C    0.736295    1.982755    0.211578
 O   -0.579035    1.438114    0.406501
 C   -1.327619    1.293928   -0.689071
 O   -1.032296    1.715574   -1.784031
 C   -2.627395    0.612527   -0.385103
 C   -3.781881    1.219376   -0.875284
 C   -5.036647    0.701678   -0.572227
 C   -5.145308   -0.432863    0.225454
 C   -3.997376   -1.058660    0.697430
 C   -2.735224   -0.553815    0.386672
 C   -1.566096   -1.360130    0.853389
 O   -1.565957   -2.038390    1.854067
 O   -0.541089   -1.307619   -0.009894
 C    0.635041   -2.030761    0.357226
 C    1.809501   -1.494335   -0.419939
 C    1.648939   -0.853778   -1.648473
 C    2.760906   -0.383869   -2.343274
 C    4.040880   -0.558317   -1.824837
 C    4.206002   -1.200807   -0.600112
 C    3.094907   -1.661089    0.098726
 H    3.658354    1.833446    3.262219
 H    3.908092    0.326582    2.365114
 H    5.007449    1.693112    2.122635
 H    3.398690    1.494180    0.216689
 H    3.166014    3.015661    1.074002
 H    1.218386    2.018666    2.311225
 H    1.506711    0.476957    1.506890
 H    1.140971    1.599843   -0.728208
 H    0.654168    3.072075    0.128599
 H   -3.683298    2.109274   -1.488384
 H   -5.928098    1.188701   -0.955082
 H   -6.121822   -0.837738    0.471769
 H   -4.061068   -1.955394    1.304792
 H    0.465523   -3.092412    0.141794
 H    0.795860   -1.937840    1.435023
 H    0.653404   -0.697148   -2.050487
 H    2.621367    0.123612   -3.293002
 H    4.905556   -0.190537   -2.368978
 H    5.199137   -1.332882   -0.181322
 H    3.227743   -2.148853    1.061907
