37 
4mga_ligand_xtb.xyz
 C    2.913315   -1.923098    0.913861
 C    2.267940   -0.939871   -0.075155
 C    1.115714   -1.658157   -0.776731
 C    3.335809   -0.562779   -1.107436
 C    1.809599    0.280755    0.756638
 C    0.754005    1.280177    0.225646
 C    1.225052    1.954241   -1.064774
 C    0.623727    2.392375    1.286243
 C   -0.621090    0.645503    0.087133
 C   -1.392375    0.757907   -1.065128
 C   -2.652159    0.197507   -1.154277
 C   -3.188806   -0.493587   -0.076465
 O   -4.432223   -1.038251   -0.199787
 C   -2.442677   -0.599825    1.089180
 C   -1.184500   -0.033914    1.163260
 H    3.724986   -1.443992    1.457665
 H    2.181567   -2.282461    1.634421
 H    3.318475   -2.783954    0.386524
 H    0.348611   -1.949191   -0.063815
 H    0.654742   -1.028653   -1.531500
 H    1.487982   -2.557070   -1.265158
 H    2.932170    0.056418   -1.900684
 H    4.155440   -0.025950   -0.634207
 H    3.742059   -1.463702   -1.563584
 H    2.705819    0.860699    0.994240
 H    1.431717   -0.105999    1.704288
 H    0.591451    2.807616   -1.299061
 H    2.241941    2.318070   -0.935381
 H    1.208896    1.271683   -1.908536
 H    1.559893    2.938894    1.380406
 H   -0.156709    3.093646    0.998018
 H    0.367483    1.983285    2.259841
 H   -1.019808    1.288836   -1.925814
 H   -3.236154    0.287571   -2.056633
 H   -4.674274   -1.480907    0.622286
 H   -2.849961   -1.127114    1.943063
 H   -0.639867   -0.135118    2.089938
