37 
4mga_ligand_dft.xyz
 C    2.987613   -1.879216    0.954117
 C    2.312850   -0.936175   -0.059409
 C    1.199229   -1.713718   -0.773352
 C    3.383735   -0.522508   -1.083798
 C    1.790673    0.276762    0.759095
 C    0.741103    1.283307    0.207796
 C    1.205126    1.915932   -1.110971
 C    0.642707    2.426458    1.244093
 C   -0.652979    0.650335    0.085055
 C   -1.414222    0.704603   -1.086157
 C   -2.680910    0.138501   -1.171175
 C   -3.231483   -0.502364   -0.065810
 O   -4.472835   -1.046184   -0.198106
 C   -2.501575   -0.559288    1.120516
 C   -1.237463    0.014005    1.184762
 H    3.774980   -1.360010    1.514277
 H    2.259755   -2.267718    1.676253
 H    3.446163   -2.735300    0.445477
 H    0.415052   -2.026149   -0.075879
 H    0.720890   -1.119692   -1.557642
 H    1.616014   -2.613406   -1.242526
 H    2.978464    0.087575   -1.894252
 H    4.188526    0.046913   -0.603070
 H    3.832576   -1.413350   -1.539245
 H    2.672240    0.865350    1.052780
 H    1.386833   -0.118512    1.699723
 H    0.565124    2.762245   -1.385124
 H    2.227097    2.294281   -1.002271
 H    1.198322    1.207888   -1.944011
 H    1.596623    2.961701    1.321008
 H   -0.131661    3.143673    0.951743
 H    0.389497    2.047436    2.239978
 H   -1.019847    1.191682   -1.971312
 H   -3.253390    0.186063   -2.091718
 H   -4.728397   -1.453882    0.637674
 H   -2.919132   -1.049910    1.997722
 H   -0.699482   -0.047210    2.126684
