62 
4mh7_ligand_dft.xyz
 C    5.893025   -0.529927   -0.911330
 C    5.196398   -1.329852    0.187443
 C    4.012182   -2.140990   -0.336971
 C    3.243789   -2.831476    0.791745
 N    2.001833   -3.449783    0.370076
 C    0.877903   -2.747377    0.097269
 N   -0.225840   -3.471141   -0.188469
 C   -1.323004   -2.745186   -0.364689
 C   -1.391946   -1.356516   -0.289259
 C   -2.625301   -0.577712   -0.543767
 O   -2.578209    0.525113   -1.104698
 N   -3.834272   -1.104431   -0.175458
 C   -4.031377   -2.110949    0.853251
 C   -5.031819   -0.387632   -0.602328
 C   -5.413020    0.772964    0.317737
 C   -6.690403    1.476156   -0.140300
 C   -7.074877    2.645375    0.764443
 C   -0.130200   -0.706935   -0.115153
 N   -0.002507    0.632463   -0.184408
 C    1.293499    1.292340   -0.215852
 C    1.918053    1.425305    1.178066
 C    3.268034    2.140855    1.103291
 C    3.134428    3.509884    0.448867
 O    4.431415    4.075483    0.380977
 C    2.494261    3.385138   -0.936051
 C    1.145143    2.665331   -0.873940
 N    0.978390   -1.416112    0.123009
 H    6.277708   -1.189775   -1.697439
 H    5.195014    0.173605   -1.380787
 H    6.732910    0.048884   -0.514231
 H    4.839462   -0.639972    0.964530
 H    5.919782   -1.996372    0.676712
 H    4.353676   -2.888889   -1.064497
 H    3.318429   -1.474223   -0.859370
 H    3.016499   -2.094213    1.571164
 H    3.859061   -3.612255    1.251307
 H    1.908455   -4.451771    0.334132
 H   -2.219366   -3.312628   -0.609318
 H   -4.378530   -3.062843    0.432355
 H   -3.108191   -2.283964    1.405873
 H   -4.787231   -1.757808    1.563479
 H   -5.848911   -1.118183   -0.655545
 H   -4.854430   -0.009139   -1.611538
 H   -4.578845    1.482559    0.332958
 H   -5.546768    0.408285    1.345858
 H   -7.515875    0.751915   -0.174921
 H   -6.553770    1.837610   -1.167935
 H   -7.247725    2.306687    1.792547
 H   -6.277646    3.396652    0.791779
 H   -7.988546    3.137187    0.415254
 H   -0.815526    1.109030   -0.562577
 H    1.973235    0.682619   -0.828005
 H    2.035354    0.428579    1.611770
 H    1.225226    1.985077    1.821361
 H    3.977003    1.548442    0.508473
 H    3.705648    2.255755    2.100324
 H    2.479395    4.134693    1.082320
 H    4.353851    4.941165   -0.037388
 H    3.188422    2.829131   -1.580191
 H    2.367504    4.380080   -1.383186
 H    0.429962    3.265190   -0.292538
 H    0.727265    2.554390   -1.881039
