53 
4mhs_ligand_dft.xyz
 C    5.141123   -0.089583    0.125946
 C    6.034181   -1.152210    0.205690
 C    5.566680   -2.440624    0.452061
 C    4.202099   -2.657620    0.617365
 C    3.308658   -1.594297    0.543776
 C    3.767440   -0.297086    0.294287
 C    2.819216    0.842607    0.209416
 C    1.787952    0.995337    1.143661
 C    0.927758    2.085472    1.085332
 C    2.945295    1.808018   -0.794668
 C    2.076122    2.891446   -0.856892
 C    1.058206    3.052027    0.084183
 C    0.078373    4.196336   -0.024517
 C   -1.148084    3.831310   -0.890276
 C   -1.917268    2.704206   -0.233756
 O   -2.661935    2.922076    0.722270
 N   -1.692988    1.464327   -0.726431
 C   -2.001843    0.229804   -0.018045
 O   -1.359184   -0.739412   -0.812060
 C   -1.479120   -2.078956   -0.339724
 C   -0.600543   -2.924748   -1.241044
 O    0.753953   -2.548646   -1.144721
 C   -2.949426   -2.482131   -0.358327
 O   -3.060470   -3.801951    0.118875
 C   -3.708761   -1.513475    0.527672
 O   -5.072498   -1.872355    0.496601
 C   -3.509624   -0.063222    0.100291
 O   -4.159819    0.699928    1.081502
 H    5.513292    0.917055   -0.045168
 H    7.097898   -0.972773    0.079860
 H    6.263902   -3.271188    0.510281
 H    3.823794   -3.660401    0.790568
 H    2.243721   -1.786912    0.630101
 H    1.682810    0.267359    1.943365
 H    0.143619    2.192604    1.832107
 H    3.726666    1.701604   -1.542184
 H    2.193840    3.627792   -1.649207
 H    0.565439    5.070767   -0.468333
 H   -0.278096    4.490553    0.968100
 H   -0.824500    3.559977   -1.901278
 H   -1.819029    4.691261   -0.960552
 H   -0.947236    1.350503   -1.399651
 H   -1.562150    0.259777    0.994139
 H   -1.095595   -2.143016    0.690534
 H   -0.970165   -2.844590   -2.275165
 H   -0.673222   -3.968679   -0.930811
 H    0.796829   -1.601300   -1.331639
 H   -3.328888   -2.399119   -1.389948
 H   -3.996896   -3.936251    0.320511
 H   -3.312984   -1.614596    1.552232
 H   -5.539397   -1.208740    1.023228
 H   -3.955019    0.082271   -0.897092
 H   -3.808680    1.612962    1.046698
