42 
4mhz_ligand_dft.xyz
 C    5.428073   -2.560498   -1.600008
 C    4.554034   -0.066873    3.100912
 S   -0.977572    3.354840   -0.273327
 C   -6.822528   -1.009187    1.288380
 C    2.470927    0.432542   -1.429258
 C    3.441973   -0.571805   -1.518045
 C   -6.017158   -0.125348    0.623362
 C   -5.570784   -2.190196    0.037798
 C    2.995197    0.710677    0.906385
 C   -2.869986   -0.100243   -0.237218
 C   -1.737068    0.379435   -1.145418
 C   -4.133799   -0.427032   -1.032525
 N   -6.537730   -2.299569    0.916153
 N   -0.518477    0.673768   -0.410639
 N    1.315027    2.136064   -0.089188
 O    5.143401   -1.904347   -0.389048
 O    4.720607   -0.708608    1.857864
 C    0.072241    1.907083   -0.265365
 C    2.240387    1.077945   -0.219781
 C    4.183555   -0.944598   -0.407686
 C    3.953469   -0.288260    0.825046
 N   -5.215015   -0.894926   -0.188506
 H    4.552844   -3.103292   -1.982709
 H    5.778317   -1.858102   -2.368393
 H    6.222296   -3.273898   -1.376450
 H    4.776581    1.005830    3.033621
 H    3.536020   -0.199344    3.490240
 H    5.263672   -0.541183    3.779732
 H   -2.092877    2.755733    0.178594
 H   -7.597303   -0.789927    2.009740
 H    1.915056    0.728812   -2.313756
 H    3.611980   -1.051910   -2.475095
 H   -5.942901    0.951889    0.639797
 H   -5.087789   -3.009694   -0.479125
 H    2.810050    1.238731    1.833943
 H   -3.096094    0.668424    0.511869
 H   -2.549547   -0.989371    0.317671
 H   -2.044807    1.269693   -1.703504
 H   -1.512226   -0.390873   -1.894580
 H   -3.929322   -1.208958   -1.771724
 H   -4.480932    0.453096   -1.585592
 H    0.158250   -0.078663   -0.375792
