125 
4mji_ligand_xtb.xyz
 N    0.126241   -0.186422    2.348858
 C   -0.556942   -1.484459    2.508046
 C   -1.711565   -1.568395    1.502337
 O   -2.595685   -0.716359    1.488654
 C   -1.045689   -1.636077    3.955868
 O    0.121191   -1.546545    4.760591
 C   -1.770559   -2.963452    4.150762
 N   -1.644135   -2.614754    0.687210
 C   -2.645846   -2.912038   -0.333652
 C   -2.652455   -1.762835   -1.363073
 O   -1.806058   -1.723561   -2.233897
 C   -3.997882   -3.227359    0.299509
 N   -3.610238   -0.837065   -1.223033
 C   -3.725154    0.286727   -2.121777
 C   -2.851522    1.482766   -1.727030
 O   -2.694224    2.424569   -2.472432
 C   -5.193931    0.730214   -2.242918
 C   -5.737390    1.156466   -0.908106
 C   -6.340593    0.234983   -0.058747
 C   -5.616989    2.475955   -0.488843
 C   -6.800757    0.620524    1.189160
 C   -6.090167    2.865404    0.752504
 C   -6.673745    1.936450    1.598423
 N   -2.297571    1.423678   -0.493652
 C   -1.303055    2.398011   -0.116080
 C    0.108940    1.868110   -0.363324
 O    0.471982    0.726629   -0.057680
 C   -1.471681    2.887662    1.350703
 O   -1.640581    1.824663    2.265944
 C   -2.643290    3.857973    1.442336
 N    0.926467    2.724168   -0.961454
 C    2.355859    2.499174   -0.979414
 C    2.816365    2.497748    0.491617
 O    2.096352    2.945443    1.369147
 C    3.078927    3.573650   -1.817326
 C    3.245943    4.924023   -1.098868
 C    2.422189    3.717010   -3.190693
 C    1.969150    5.621018   -0.638430
 N    4.031343    1.994526    0.760959
 C    4.862413    1.174001   -0.093103
 C    4.349424   -0.266567   -0.217605
 O    4.578569   -0.936774   -1.208198
 C    6.220818    1.166666    0.625475
 C    5.843015    1.258657    2.103029
 C    4.608625    2.156023    2.095646
 N    3.684453   -0.731136    0.850428
 C    3.374726   -2.126982    1.080140
 C    2.136428   -2.613959    0.298154
 O    1.180335   -3.146560    0.857131
 C    3.232323   -2.361408    2.590993
 O    2.559256   -1.266212    3.197512
 N    2.218309   -2.436497   -1.009969
 C    1.217934   -2.998732   -1.898259
 C    1.071956   -4.471298   -1.529399
 O   -0.202022   -4.864465   -1.434316
 C    1.657679   -2.878688   -3.368056
 C    2.020475   -1.432437   -3.741790
 C    0.545927   -3.425618   -4.262160
 C    0.970676   -0.398961   -3.348206
 O    1.996962   -5.210058   -1.338319
 H    1.023678   -0.226952    2.852140
 H    0.312361    0.035817    1.323776
 H   -0.478872    0.612345    2.651481
 H    0.165674   -2.277643    2.298926
 H   -1.724425   -0.802541    4.194818
 H   -0.119795   -1.722381    5.676219
 H   -2.664099   -2.996067    3.535012
 H   -1.120426   -3.791013    3.877138
 H   -2.068190   -3.081942    5.190267
 H   -0.775646   -3.143756    0.657379
 H   -2.276015   -3.786552   -0.875953
 H   -3.923545   -4.150339    0.870029
 H   -4.314831   -2.437218    0.975946
 H   -4.748078   -3.363732   -0.474220
 H   -4.234710   -0.852085   -0.429385
 H   -3.358638   -0.035776   -3.104218
 H   -5.778941   -0.098460   -2.645014
 H   -5.230387    1.560530   -2.948378
 H   -6.487015   -0.785195   -0.388304
 H   -5.162702    3.201245   -1.148049
 H   -7.271354   -0.104748    1.836169
 H   -6.014742    3.898790    1.057772
 H   -7.042528    2.241459    2.565788
 H   -2.390771    0.581224    0.060597
 H   -1.467398    3.256417   -0.776953
 H   -0.540029    3.376309    1.658633
 H   -2.452829    1.337761    2.049308
 H   -3.548667    3.380205    1.073620
 H   -2.450448    4.750915    0.856252
 H   -2.794286    4.147673    2.479081
 H    0.612989    3.661025   -1.159394
 H    2.531923    1.508441   -1.414037
 H    4.094739    3.203983   -1.993601
 H    3.779158    5.586316   -1.784060
 H    3.887478    4.778408   -0.226355
 H    1.414755    4.117779   -3.133258
 H    3.014808    4.386023   -3.809015
 H    2.372666    2.750437   -3.685829
 H    1.262271    5.745038   -1.456110
 H    2.220494    6.614468   -0.274362
 H    1.504493    5.081898    0.183984
 H    4.958376    1.574891   -1.103925
 H    6.802015    0.278626    0.386503
 H    6.792047    2.045052    0.325676
 H    5.606920    0.271522    2.500295
 H    6.645529    1.681659    2.701935
 H    4.875791    3.208096    2.234130
 H    3.874496    1.899092    2.863110
 H    3.451227   -0.113530    1.613098
 H    4.209039   -2.734797    0.703474
 H    2.678959   -3.292583    2.737595
 H    4.226956   -2.464499    3.041446
 H    2.140432   -1.571182    4.014496
 H    3.081733   -2.073712   -1.409842
 H    0.253683   -2.496685   -1.764325
 H   -0.241700   -5.816946   -1.245969
 H    2.554577   -3.494952   -3.500803
 H    2.979644   -1.162000   -3.293094
 H    2.160394   -1.404601   -4.823876
 H    0.792892   -3.265856   -5.308038
 H    0.415879   -4.493835   -4.106595
 H   -0.395855   -2.930460   -4.042891
 H    0.938700   -0.262154   -2.270378
 H   -0.018454   -0.699618   -3.676779
 H    1.202452    0.559025   -3.808654
