125 
4mji_ligand_dft.xyz
 N    0.435940    0.181045    2.382517
 C   -0.193430   -1.154766    2.551985
 C   -1.408594   -1.299885    1.634876
 O   -2.353833   -0.504000    1.710601
 C   -0.591002   -1.349499    4.015624
 O    0.622362   -1.155496    4.745546
 C   -1.184053   -2.729141    4.258975
 N   -1.388962   -2.374698    0.844456
 C   -2.511217   -2.764896   -0.012391
 C   -2.691689   -1.718632   -1.127719
 O   -1.860924   -1.627506   -2.019899
 C   -3.753436   -3.120540    0.803050
 N   -3.784579   -0.924058   -1.061788
 C   -4.004838    0.151993   -2.005640
 C   -3.182269    1.414846   -1.705212
 O   -3.226374    2.373259   -2.459354
 C   -5.504020    0.493027   -2.102061
 C   -6.106823    0.798756   -0.751615
 C   -6.735888   -0.205435   -0.009899
 C   -5.990155    2.073592   -0.189060
 C   -7.227252    0.050846    1.268426
 C   -6.484300    2.333148    1.085408
 C   -7.099115    1.321309    1.820207
 N   -2.431273    1.391056   -0.570230
 C   -1.435138    2.396946   -0.328041
 C   -0.034207    1.812407   -0.500657
 O    0.239311    0.641029   -0.214461
 C   -1.590664    3.054104    1.067974
 O   -1.513861    2.096163    2.121295
 C   -2.890466    3.837450    1.164129
 N    0.881229    2.674158   -0.962549
 C    2.300015    2.397318   -0.964370
 C    2.799562    2.275203    0.490367
 O    2.106010    2.632022    1.438048
 C    3.067183    3.507296   -1.734052
 C    3.250181    4.827316   -0.955674
 C    2.477771    3.710437   -3.133989
 C    1.987091    5.570871   -0.514019
 N    4.069115    1.828693    0.678846
 C    4.899583    1.078419   -0.260273
 C    4.541515   -0.410020   -0.313718
 O    4.861274   -1.102637   -1.273785
 C    6.312934    1.285568    0.308233
 C    6.084689    1.315848    1.824870
 C    4.716850    1.992586    1.992666
 N    3.900594   -0.889934    0.772469
 C    3.584715   -2.287416    0.993867
 C    2.296942   -2.692395    0.252368
 O    1.332431   -3.185023    0.853261
 C    3.487506   -2.508979    2.501840
 O    2.810982   -1.394319    3.067974
 N    2.315295   -2.479680   -1.063013
 C    1.201904   -2.846426   -1.921689
 C    0.978142   -4.350506   -1.791624
 O   -0.327190   -4.678784   -1.717463
 C    1.540426   -2.493031   -3.389067
 C    1.813315   -0.987764   -3.584665
 C    0.443799   -2.997474   -4.332592
 C    0.588055   -0.081575   -3.468061
 O    1.857914   -5.172798   -1.783205
 H    1.212343    0.280234    3.039175
 H    0.782767    0.288959    1.413390
 H   -0.239065    0.976494    2.477502
 H    0.569785   -1.887079    2.289146
 H   -1.314412   -0.570037    4.291777
 H    0.423896   -1.143184    5.689878
 H   -2.141815   -2.840564    3.742520
 H   -0.500701   -3.509432    3.909612
 H   -1.365655   -2.878408    5.327646
 H   -0.501754   -2.870282    0.731103
 H   -2.159199   -3.650688   -0.544559
 H   -3.527431   -3.964765    1.460467
 H   -4.090393   -2.287173    1.425796
 H   -4.568583   -3.419210    0.137631
 H   -4.368351   -0.945372   -0.236014
 H   -3.649920   -0.187442   -2.982679
 H   -6.017628   -0.355955   -2.563665
 H   -5.596942    1.347655   -2.777186
 H   -6.859745   -1.194210   -0.447505
 H   -5.514809    2.866164   -0.761977
 H   -7.722218   -0.739244    1.825174
 H   -6.396465    3.331538    1.504220
 H   -7.490503    1.527208    2.811583
 H   -2.383688    0.536026   -0.031177
 H   -1.599722    3.172015   -1.084409
 H   -0.732443    3.712755    1.232861
 H   -2.227706    1.441371    2.022452
 H   -3.744673    3.168359    1.019095
 H   -2.936087    4.618762    0.399400
 H   -2.970524    4.302298    2.149820
 H    0.591384    3.626956   -1.119771
 H    2.446399    1.440059   -1.480284
 H    4.080209    3.120774   -1.884271
 H    3.847434    5.486860   -1.595949
 H    3.866439    4.633321   -0.068933
 H    1.475447    4.149349   -3.118887
 H    3.118475    4.382218   -3.712809
 H    2.411531    2.759728   -3.672548
 H    1.295203    5.747677   -1.347038
 H    2.252303    6.553476   -0.114137
 H    1.467139    5.031443    0.284900
 H    4.822402    1.448248   -1.282011
 H    7.004422    0.506024   -0.017511
 H    6.693152    2.248841   -0.046318
 H    6.054873    0.297128    2.223161
 H    6.873124    1.854545    2.353688
 H    4.796700    3.061461    2.213745
 H    4.114415    1.540697    2.787212
 H    3.585853   -0.254336    1.490616
 H    4.401557   -2.894300    0.585864
 H    2.950310   -3.442220    2.689807
 H    4.497781   -2.582293    2.921483
 H    2.321650   -1.650135    3.865210
 H    3.197911   -2.194367   -1.483063
 H    0.295097   -2.317094   -1.613961
 H   -0.357611   -5.650081   -1.703732
 H    2.470166   -3.029901   -3.624475
 H    2.587452   -0.657274   -2.879323
 H    2.257961   -0.870672   -4.580687
 H    0.627242   -2.630858   -5.347368
 H    0.423607   -4.090751   -4.377868
 H   -0.542980   -2.651894   -4.010879
 H    0.076941   -0.207044   -2.511599
 H   -0.140858   -0.289589   -4.256461
 H    0.880465    0.970425   -3.562983
