49 
4mjo_ligand_dft.xyz
 N   -0.478641    1.968074    1.201400
 C    0.294313    0.811409    1.134647
 C    2.516506    0.104378    0.253973
 C    4.633172   -0.111276   -0.616131
 C   -3.162606   -0.386726    1.228248
 C   -4.424026   -0.139248   -0.704047
 N    5.760665    0.455150   -1.172726
 C   -3.987974   -1.021178    0.256952
 C    2.386205   -1.257536    0.499652
 C    5.490064    4.121292   -1.533507
 S   -2.013449    2.038569    1.925192
 C   -3.007744    0.948071    0.991644
 S   -3.851186    1.468951   -0.422583
 N    3.602952    0.670476   -0.286358
 N    1.516482    1.039858    0.535348
 C    6.110829    1.783548   -1.497222
 C    4.614879   -1.502706   -0.418810
 O   -2.416781    3.400541    1.627784
 O   -1.904519    1.527304    3.269481
 C    3.476665   -2.043743    0.141744
 O   -0.086218   -0.258760    1.557418
 O    7.207366    1.991448   -1.989382
 N    5.193263    2.737188   -1.236141
 C   -5.356289   -0.411633   -1.848436
Br    3.390751   -3.905458    0.435451
 C   -4.338492   -2.482089    0.310059
 O   -7.600139   -0.764770   -2.519188
 C   -6.812336   -0.484221   -1.393491
 C   -8.967920   -0.845916   -2.211871
 H   -0.274805    2.785301    0.640506
 H   -2.685326   -0.892355    2.058728
 H    6.516402   -0.172445   -1.406001
 H    1.494870   -1.666871    0.948767
 H    6.363912    4.467257   -0.972642
 H    5.694639    4.259110   -2.599628
 H    4.626232    4.728532   -1.255675
 H    1.797037    1.988890    0.333527
 H    5.459966   -2.122225   -0.693552
 H    4.318289    2.450148   -0.818389
 H   -5.091458   -1.361958   -2.325004
 H   -5.268952    0.360579   -2.619190
 H   -3.466184   -3.079554    0.591897
 H   -5.122502   -2.672743    1.051770
 H   -4.699348   -2.848544   -0.654983
 H   -7.110384    0.471638   -0.930662
 H   -6.930493   -1.268453   -0.626317
 H   -9.172705   -1.647129   -1.484622
 H   -9.347319    0.101774   -1.799317
 H   -9.496176   -1.066149   -3.141711
