49 
4mjo_ligand_xtb.xyz
 N   -0.479064    2.174665    0.749163
 C    0.232281    1.004786    0.742154
 C    2.467550    0.138403    0.100193
 C    4.640492   -0.251948   -0.552572
 C   -3.300147   -0.141719    1.559917
 C   -4.349096   -0.304648   -0.493911
 N    5.838387    0.217919   -1.011995
 C   -4.122672   -0.919368    0.709254
 C    2.229214   -1.201484    0.376666
 C    5.661009    3.871066   -1.401208
 S   -1.911428    2.275125    1.692700
 C   -2.928746    1.036033    0.995579
 S   -3.562352    1.243530   -0.584171
 N    3.633944    0.598278   -0.350280
 N    1.515161    1.134531    0.259582
 C    6.279583    1.518897   -1.318414
 C    4.502407   -1.626811   -0.306416
 O   -2.408073    3.576948    1.377695
 O   -1.593276    1.962635    3.044920
 C    3.284597   -2.074241    0.159248
 O   -0.268380   -0.031746    1.101195
 O    7.417241    1.670928   -1.703751
 N    5.365543    2.484266   -1.148627
 C   -5.185052   -0.774085   -1.633763
Br    3.041204   -3.922612    0.509123
 C   -4.661799   -2.250430    1.119276
 O   -7.392713   -0.933267   -2.515012
 C   -6.666049   -0.445335   -1.413300
 C   -8.767903   -0.663290   -2.430455
 H   -0.072780    3.056243    0.483744
 H   -2.977235   -0.434261    2.541298
 H    6.564774   -0.472085   -1.152125
 H    1.273431   -1.529549    0.743545
 H    5.559091    4.460669   -0.487594
 H    6.688625    3.934331   -1.755492
 H    4.991554    4.274283   -2.163662
 H    1.847799    2.054518    0.005339
 H    5.323605   -2.303558   -0.475637
 H    4.452904    2.193468   -0.811487
 H   -5.089935   -1.853561   -1.762151
 H   -4.864284   -0.293761   -2.557885
 H   -3.886529   -2.822618    1.623324
 H   -5.490478   -2.120973    1.814832
 H   -5.017526   -2.812820    0.261248
 H   -6.796533    0.644241   -1.319129
 H   -7.024097   -0.912588   -0.482296
 H   -9.212994   -1.135148   -1.545387
 H   -8.959967    0.415921   -2.386206
 H   -9.221272   -1.076390   -3.328788
