32 
4mjq_ligand_dft.xyz
 C    3.877646    0.102293   -0.012764
 C    3.023405   -0.712130   -0.746736
 C    1.655691   -0.464532   -0.711699
 C   -1.341977   -0.103931    0.047860
 C   -1.028202   -1.387272    0.525294
 C   -3.251438   -2.142322    0.092147
 C   -5.807777    0.319643    0.082745
 O   -6.450023    1.259177   -0.309308
 O   -5.738874    0.026359    1.392400
 C   -5.029118   -0.619156   -0.840914
 C   -3.622480   -0.887884   -0.367113
 C   -1.962734   -2.403762    0.561515
 C   -2.676035    0.174662   -0.366623
 N   -3.041129    1.411304   -0.795631
 C   -0.312667    0.961188    0.038325
 O   -0.603083    2.154637    0.023197
 C    1.144141    0.596125    0.040168
Br    5.739024   -0.242220   -0.038514
 C    3.390718    1.170330    0.734787
 C    2.025655    1.420531    0.743854
 H    3.422067   -1.527300   -1.339990
 H    0.987581   -1.092089   -1.293218
 H   -0.025848   -1.574868    0.894916
 H   -3.991296   -2.940451    0.084029
 H   -5.091109   -0.681939    1.530706
 H   -5.050217   -0.175141   -1.840803
 H   -5.586167   -1.561899   -0.896741
 H   -1.700355   -3.385592    0.939000
 H   -2.405891    2.170186   -0.584450
 H   -4.011551    1.639387   -0.944391
 H    4.073242    1.800142    1.294257
 H    1.628488    2.264067    1.298716
