47 
4mk0_ligand_dft.xyz
 F   -1.428875    4.969247   -0.021293
 C   -1.726652    3.673156   -0.120562
 C   -2.823182    3.179752    0.572689
 C   -3.125629    1.827702    0.465950
 C   -0.930782    2.854920   -0.908615
 C   -1.251350    1.505955   -1.005317
 C   -2.351984    0.975555   -0.327129
 C   -2.647721   -0.506793   -0.418218
 C   -4.107305   -0.804695   -0.793634
 C   -4.357568   -2.297860   -0.929514
 N   -3.978327   -2.988677    0.358628
 C   -2.544346   -2.744980    0.759849
 C   -2.267961   -1.248100    0.886226
 C   -0.795349   -1.044142    1.238549
 O   -0.049784   -1.556679    0.158975
 C    1.268046   -1.196808    0.034457
 C    1.987442   -0.557955    1.044028
 C    1.854114   -1.524406   -1.195735
 C    3.182373   -1.213616   -1.438835
 C    3.899275   -0.571536   -0.437192
 C    5.323775   -0.129647   -0.438871
 O    6.144140   -0.242256   -1.324941
 C    3.317307   -0.250683    0.778033
 C    4.341104    0.431536    1.655238
 N    5.508375    0.441269    0.797813
 H   -3.420658    3.849914    1.180198
 H   -3.982844    1.445974    1.015788
 H   -0.079192    3.274666   -1.431897
 H   -0.625715    0.856445   -1.612020
 H   -2.011942   -0.922715   -1.209104
 H   -4.799773   -0.384669   -0.052444
 H   -4.352957   -0.331011   -1.748288
 H   -3.734995   -2.746358   -1.708099
 H   -5.404657   -2.536061   -1.127932
 H   -4.595497   -2.654303    1.105770
 H   -4.146658   -3.995436    0.277313
 H   -1.918713   -3.190306   -0.017245
 H   -2.379348   -3.278052    1.699495
 H   -2.859663   -0.840023    1.718922
 H   -0.539319   -1.563024    2.173837
 H   -0.608110    0.026806    1.374843
 H    1.541270   -0.317324    2.003091
 H    1.245809   -2.024735   -1.942277
 H    3.659372   -1.456272   -2.382872
 H    4.519275   -0.128346    2.582027
 H    4.027185    1.447477    1.927083
 H    6.400180    0.823340    1.069719
