47 
4mk0_ligand_xtb.xyz
 F   -2.741514    4.845150   -0.089124
 C   -2.699129    3.508874   -0.162904
 C   -3.507348    2.762718    0.677529
 C   -3.457949    1.383764    0.598476
 C   -1.847013    2.907080   -1.072090
 C   -1.812408    1.526495   -1.137285
 C   -2.614934    0.750927   -0.308731
 C   -2.551182   -0.756897   -0.400937
 C   -3.919734   -1.352342   -0.751746
 C   -3.836104   -2.866732   -0.854162
 N   -3.365896   -3.412394    0.447733
 C   -2.016627   -2.900456    0.801006
 C   -2.022748   -1.375070    0.906950
 C   -0.585099   -0.903858    1.168808
 O    0.202127   -1.368952    0.098669
 C    1.511219   -0.955207    0.000447
 C    2.157350   -0.169238    0.948030
 C    2.178639   -1.397423   -1.144266
 C    3.500444   -1.068049   -1.365160
 C    4.145878   -0.286647   -0.421885
 C    5.544738    0.211061   -0.391048
 O    6.429603    0.038019   -1.193042
 C    3.481014    0.156129    0.716968
 C    4.424508    0.972429    1.547464
 N    5.633530    0.925614    0.765106
 H   -4.159625    3.262363    1.375393
 H   -4.089911    0.807977    1.258545
 H   -1.228806    3.515057   -1.712416
 H   -1.147517    1.048440   -1.840827
 H   -1.842533   -1.016761   -1.192404
 H   -4.660384   -1.069154   -0.001863
 H   -4.253963   -0.947063   -1.706312
 H   -3.120306   -3.159157   -1.624562
 H   -4.809237   -3.298619   -1.093663
 H   -4.027897   -3.120038    1.177652
 H   -3.352059   -4.437384    0.420353
 H   -1.310942   -3.193439    0.021084
 H   -1.698909   -3.346296    1.745613
 H   -2.643361   -1.056142    1.749315
 H   -0.221412   -1.310219    2.122895
 H   -0.569364    0.191374    1.221034
 H    1.659475    0.178945    1.839228
 H    1.633773   -2.004411   -1.850166
 H    4.025414   -1.404223   -2.244585
 H    4.572555    0.536978    2.543382
 H    4.067520    2.001687    1.676215
 H    6.482746    1.383319    1.050513
