13 
4mk1_ligand_dft.xyz
 O   -2.509811    1.855465    0.000098
 C   -1.654020    0.811135    0.000356
 C   -0.286476    1.007586    0.000305
 C    0.540941   -0.117733    0.000110
Br    2.419748    0.090267   -0.000153
 C   -0.012321   -1.385587    0.000386
 N   -1.340377   -1.573470    0.000364
 C   -2.118934   -0.516833    0.000324
 O   -3.465300   -0.674691   -0.000588
 H   -3.412015    1.504550   -0.001125
 H    0.116706    2.013733    0.000229
 H    0.611215   -2.273566    0.000358
 H   -3.638710   -1.627364   -0.001611
