27 
4mk5_ligand_dft.xyz
 O   -4.814362   -0.947560    0.002907
 C   -3.483390   -0.705749   -0.045937
 C   -2.575473   -1.698319   -0.359258
 C   -1.214481   -1.389011   -0.393012
 C   -0.793655   -0.094685   -0.103676
 C    0.637438    0.303369   -0.120184
 C    1.643957   -0.631096    0.105855
 C    2.989321   -0.255555    0.074289
 O    3.878387   -1.255364    0.312998
 C    5.249634   -0.932595    0.313488
 C    3.337378    1.070391   -0.180308
 C    2.323803    2.005107   -0.395395
 C    0.988588    1.637995   -0.365478
 N   -1.685943    0.874220    0.188258
 C   -2.960924    0.572291    0.212923
 O   -3.867682    1.538546    0.509368
 H   -5.257419   -0.119106    0.234797
 H   -2.935174   -2.697377   -0.581994
 H   -0.496792   -2.153442   -0.666954
 H    1.416247   -1.665992    0.339173
 H    5.575037   -0.550014   -0.662768
 H    5.489895   -0.192972    1.088433
 H    5.778072   -1.862246    0.528437
 H    4.373633    1.386689   -0.208541
 H    2.593674    3.038618   -0.592540
 H    0.205473    2.368810   -0.530889
 H   -3.364971    2.349662    0.673007
