58 
4mk9_ligand_xtb.xyz
 C    3.024643    0.945883   -0.134083
 C    3.926773   -0.114450   -0.006298
 C    3.531101   -1.427976    0.153465
 C    2.144577   -1.706002    0.188187
 C    1.232246   -0.658818    0.002829
 C    1.671497    0.656153   -0.126379
 C   -0.211300   -0.837838   -0.139615
 N   -1.114359   -0.179661    0.507798
 C   -2.313217   -0.577387   -0.029609
 C   -2.038776   -1.509817   -1.051652
 O   -0.690597   -1.669473   -1.108654
 C   -3.043846   -2.096271   -1.794454
 C   -4.337590   -1.712218   -1.499168
 C   -4.626642   -0.785942   -0.483865
 C   -3.615629   -0.210701    0.273606
 N   -5.951364   -0.446690   -0.237848
 S   -6.473607    0.929013    0.550418
 O   -7.895038    0.911652    0.388340
 O   -5.928015    0.979559    1.868159
 C   -5.780523    2.279879   -0.431654
 O    1.782481   -2.992382    0.434362
 C    0.537074   -3.304588    1.018263
 C    4.559577   -2.544873    0.306533
 C    6.001228   -2.039071    0.174273
 C    4.421855   -3.184646    1.695157
 C    4.341584   -3.594872   -0.791436
 C    3.525205    2.315433   -0.266099
 C    2.688911    3.488392    0.139577
 O    1.496186    3.571098   -0.015199
 N    3.423563    4.539355    0.685886
 C    4.576386    4.804611    0.251292
 C    5.229734    4.032478   -0.845713
 C    4.701287    2.630846   -0.830485
 H    4.975713    0.125075    0.004701
 H    0.938260    1.437248   -0.239269
 H   -2.830568   -2.812880   -2.570867
 H   -5.156662   -2.140790   -2.057052
 H   -3.834359    0.466009    1.080650
 H   -6.650652   -0.852834   -0.836033
 H   -6.267698    2.272326   -1.397193
 H   -5.990613    3.201249    0.095523
 H   -4.712756    2.129922   -0.521627
 H    0.704047   -4.205791    1.611938
 H    0.180657   -2.504784    1.671224
 H   -0.215806   -3.524955    0.257239
 H    6.251551   -1.336496    0.965818
 H    6.680546   -2.885012    0.255851
 H    6.169145   -1.570452   -0.792817
 H    5.193996   -3.938331    1.833026
 H    4.534877   -2.427988    2.469027
 H    3.455248   -3.660719    1.812208
 H    4.452338   -3.137505   -1.772651
 H    5.078707   -4.389129   -0.695476
 H    3.352474   -4.032752   -0.722905
 H    5.119120    5.615980    0.723078
 H    6.315143    4.040099   -0.722042
 H    5.018135    4.503118   -1.813303
 H    5.314909    1.881280   -1.308680
