58 
4mk9_ligand_dft.xyz
 C    3.084954    0.952873   -0.065199
 C    3.926849   -0.161127   -0.128110
 C    3.470339   -1.477058   -0.046526
 C    2.083304   -1.657023    0.109018
 C    1.211296   -0.554357    0.102613
 C    1.715654    0.744701    0.050897
 C   -0.249146   -0.696773    0.109079
 N   -1.100961    0.136986    0.613674
 C   -2.340756   -0.407461    0.300075
 C   -2.138540   -1.592576   -0.405792
 O   -0.795015   -1.774370   -0.533332
 C   -3.169057   -2.395860   -0.859289
 C   -4.453878   -1.942289   -0.586853
 C   -4.682397   -0.756804    0.140155
 C   -3.628143    0.027760    0.604697
 N   -6.025575   -0.378617    0.407716
 S   -6.631337    1.133651    0.015721
 O   -8.071532    0.984727    0.126838
 O   -5.904848    2.134181    0.773316
 C   -6.203957    1.364501   -1.707255
 O    1.587004   -2.924850    0.248744
 C    0.991167   -3.212425    1.506237
 C    4.442442   -2.666532   -0.144785
 C    5.892734   -2.199356   -0.351466
 C    4.413943   -3.513177    1.142749
 C    4.059297   -3.541628   -1.354954
 C    3.667843    2.311312   -0.184484
 C    3.197568    3.393690    0.739125
 O    2.245966    3.245611    1.470456
 N    3.889947    4.641893    0.763523
 C    4.783866    4.870849   -0.114709
 C    5.230505    3.944195   -1.202071
 C    4.598420    2.599562   -1.106486
 H    4.990985    0.024356   -0.214430
 H    1.022622    1.575795    0.086629
 H   -2.989658   -3.314262   -1.405927
 H   -5.305567   -2.518726   -0.937571
 H   -3.805710    0.928570    1.179369
 H   -6.728948   -1.089731    0.246188
 H   -6.713246    0.607649   -2.305621
 H   -6.539080    2.364082   -1.989766
 H   -5.120640    1.286819   -1.815848
 H    1.687013   -2.993879    2.324666
 H    0.064160   -2.651903    1.664644
 H    0.762348   -4.279184    1.494038
 H    6.262546   -1.612071    0.496665
 H    6.539598   -3.077332   -0.449152
 H    6.007674   -1.605826   -1.265334
 H    5.203778   -4.272277    1.104233
 H    4.588443   -2.888968    2.026277
 H    3.462373   -4.032246    1.261907
 H    4.121268   -2.963452   -2.283768
 H    4.750900   -4.388603   -1.436299
 H    3.044851   -3.932947   -1.258205
 H    5.282724    5.842658   -0.068109
 H    6.326962    3.864738   -1.167196
 H    5.015520    4.409853   -2.176005
 H    4.908151    1.844272   -1.825478
