61 
4mka_ligand_dft.xyz
 N  -10.182080    9.907663    2.641527
 S  -10.075776    8.532822    1.662484
 O   -9.789077    9.059672    0.338276
 O   -9.230525    7.538574    2.294127
 C  -11.749802    7.918588    1.667833
 C   -9.753623    9.918764    3.989800
 C   -8.894635   10.938738    4.430220
 C   -8.497600   11.010679    5.751374
 C   -8.929037   10.049871    6.678334
 C   -8.539039   10.058918    8.065388
 C   -8.980658    9.095688    8.896654
 O   -9.822663    8.111917    8.457416
 C  -10.284536    8.021157    7.167718
 O  -11.054553    7.135763    6.899578
 C   -9.783415    9.034086    6.225583
 C  -10.201907    8.971383    4.897116
 C   -8.729332    8.994988   10.350271
 C   -7.565462    9.506712   10.956892
 C   -7.438499    9.570443   12.356295
 C   -8.478836    9.020614   13.106983
 C   -9.607253    8.434542   12.531710
 C   -9.725694    8.428650   11.146753
 C  -10.673394    7.891910   13.408599
 C  -11.255805    6.546557   13.097787
 O  -10.964993    5.938728   12.093854
 N  -12.180334    5.954572   14.011261
 C  -12.575300    6.628916   15.017255
 C  -12.163220    8.020332   15.384607
 C  -11.126692    8.573840   14.470592
 C   -6.237136   10.248067   13.043032
 C   -6.370226   10.220644   14.575100
 C   -4.912290    9.544771   12.689506
 C   -6.172617   11.726636   12.610593
 O   -6.536206    9.980245   10.177258
 C   -5.812920    8.975065    9.473460
 H   -9.893904   10.709587    2.091421
 H  -12.408604    8.694733    1.277968
 H  -11.767154    7.038269    1.022080
 H  -12.031912    7.641829    2.684420
 H   -8.534686   11.678341    3.719574
 H   -7.835655   11.808435    6.074824
 H   -7.879724   10.827324    8.446702
 H  -10.870081    8.168556    4.609468
 H   -8.410094    9.014253   14.188113
 H  -10.597128    7.995567   10.673375
 H  -13.288359    6.141102   15.687488
 H  -11.807566    8.018076   16.425652
 H  -13.057168    8.662221   15.397042
 H  -10.746523    9.570818   14.682558
 H   -7.277271   10.729769   14.919193
 H   -6.370209    9.198941   14.971338
 H   -5.515512   10.743682   15.016359
 H   -4.977051    8.466966   12.876088
 H   -4.636159    9.705521   11.647070
 H   -4.103425    9.946199   13.310845
 H   -6.045265   11.818959   11.530313
 H   -7.088948   12.253602   12.899442
 H   -5.327110   12.222886   13.101716
 H   -5.473365    8.191400   10.159363
 H   -6.415155    8.526206    8.677766
 H   -4.948839    9.475843    9.032981
