17 
4mlt_ligand_dft.xyz
 C    2.577373   -0.864560   -0.515826
 C    1.251299   -0.138778   -0.504503
 O    1.502628    1.236052   -0.187437
 C    0.438553    1.980136    0.184789
 C   -0.759767    1.516972    0.550550
 C   -1.044594    0.052084    0.636220
 S   -2.308208   -0.513254   -0.596450
 C    0.235331   -0.752978    0.464991
 O    0.429638   -1.803260    1.027956
 H    3.017883   -0.865866    0.484049
 H    2.432779   -1.901034   -0.827949
 H    3.263155   -0.372127   -1.209635
 H    0.786881   -0.165355   -1.503753
 H    0.679089    3.037871    0.169774
 H   -1.544471    2.218186    0.810070
 H   -1.479050   -0.223708    1.601115
 H   -1.872242    0.264502   -1.601941
