46 
4mma_ligand_xtb.xyz
 C   -2.224612   -0.974529   -0.612587
 C   -3.558137   -1.194668   -0.312869
 C   -4.149664   -0.586746    0.782267
 C   -3.385841    0.243210    1.583316
 C   -1.196378    1.366938    2.151894
 C   -0.896093    2.647280    1.372517
 C    1.516588    3.761483   -1.282541
 C    1.840922    2.591551   -1.942493
 C    1.283495    1.398109   -1.530154
 C    0.393773    1.320807   -0.451973
 C   -2.044086    0.464016    1.315613
 C   -1.466116   -0.138154    0.199508
 C    2.848976   -2.314556   -0.109291
 C    5.052003   -1.260940   -0.494821
 C    0.629527    3.701262   -0.227024
 C    0.056753    2.510545    0.211968
 C    0.654608   -1.127889   -0.409033
 C    2.041279   -1.078690    0.261353
 C    4.467939   -2.032042    1.734581
 N   -0.090572    0.057599   -0.058339
 N    4.290520   -2.252817    0.287579
Cl   -4.488132   -2.239882   -1.328601
 H   -1.792153   -1.441163   -1.483467
 H   -5.189794   -0.761302    1.003619
 H   -3.838625    0.714358    2.442539
 H   -1.719483    1.623599    3.073143
 H   -0.258680    0.870227    2.412842
 H   -0.481117    3.390316    2.058100
 H   -1.841672    3.051511    0.997404
 H    1.940027    4.704434   -1.589107
 H    2.515826    2.603485   -2.785439
 H    1.521873    0.511873   -2.097966
 H    2.813400   -2.460123   -1.191739
 H    2.407807   -3.194272    0.364969
 H    4.931060   -1.445850   -1.560482
 H    4.701968   -0.256007   -0.269762
 H    6.110029   -1.322954   -0.246966
 H    0.363662    4.612886    0.287925
 H    0.099167   -1.984480   -0.020744
 H    0.773248   -1.273791   -1.492414
 H    2.535449   -0.166389   -0.072408
 H    1.887591   -1.015699    1.338181
 H    4.149044   -1.025905    1.996928
 H    3.879473   -2.751120    2.301212
 H    5.516138   -2.146577    2.004880
 H    4.684760   -3.174457    0.068910
