44 
4mo4_ligand_xtb.xyz
 P    3.154349   -0.765373    0.310900
 O    3.160060    0.330338   -0.688634
 O    3.241702   -0.276495    1.797575
 C    4.427960   -2.035190    0.132191
 P    0.786635   -1.748426   -1.041734
 O    0.937387   -3.054403   -1.662792
 O    1.008521   -0.462779   -1.898543
 O    1.754080   -1.572988    0.262513
 O   -0.646432   -1.459417   -0.408189
 C   -1.383938   -2.528218    0.165745
 C   -2.727638   -1.979682    0.660772
 O   -2.532167   -1.000750    1.674969
 C   -3.542586   -1.269923   -0.432647
 O   -4.905057   -1.328013   -0.126875
 C   -2.996621    0.165354   -0.359049
 O   -3.966731    1.109344   -0.694337
 C   -2.527437    0.276931    1.119161
 N   -1.206388    0.867850    1.158335
 C   -0.092181    0.423545    1.790820
 N    0.984762    1.092536    1.486917
 C    0.575234    2.044450    0.582096
 C    1.227748    3.024257   -0.191912
 N    2.557488    3.226883   -0.170686
 N    0.471326    3.813963   -0.961542
 C   -0.831683    3.621514   -1.022131
 N   -1.550414    2.690550   -0.416465
 C   -0.807036    1.916639    0.379913
 H    2.501032    0.375699    1.930288
 H    4.284625   -2.543241   -0.817218
 H    5.399819   -1.553260    0.148548
 H    4.352347   -2.746306    0.947014
 H    1.817660    0.016711   -1.596761
 H   -0.829139   -2.938726    1.014196
 H   -1.527436   -3.316164   -0.578091
 H   -3.309223   -2.789086    1.109902
 H   -3.352513   -1.714319   -1.418825
 H   -5.292022   -0.479699   -0.388797
 H   -2.124586    0.243059   -1.017288
 H   -3.507171    1.964163   -0.763131
 H   -3.215945    0.917667    1.693160
 H   -0.123276   -0.398698    2.477530
 H    2.914373    3.848398   -0.879129
 H    3.136116    2.445058    0.096416
 H   -1.378670    4.296491   -1.666471
