27 
4mo8_ligand_xtb.xyz
 S    2.659946   -0.123354   -0.198480
 O    2.962928    1.001544   -1.028633
 O    2.643005    0.041913    1.222353
 N    1.234236   -0.751191   -0.751537
 C    0.432716   -1.463652    0.210878
 C   -0.305889   -0.541741    1.196857
 N   -1.849103    2.270468   -0.451899
 N   -3.058664   -1.079819   -0.094977
 C   -2.372706    0.138088   -0.101088
 C   -2.772419    1.331241   -0.680768
 C   -0.887237    1.701171    0.254521
 C    0.309745    2.429767    0.726147
 N   -1.153169    0.395366    0.502422
 O   -4.144067   -1.099115   -0.644405
 O   -2.542857   -2.047268    0.445972
 N    3.676846   -1.392853   -0.520105
 H    0.738217   -0.091552   -1.329095
 H    1.119419   -2.095048    0.773373
 H   -0.281712   -2.099637   -0.317105
 H    0.431228    0.016996    1.774287
 H   -0.915284   -1.159071    1.860549
 H   -3.667818    1.527812   -1.234591
 H    0.176929    3.481068    0.488042
 H    0.439176    2.316746    1.801313
 H    1.217221    2.070265    0.240227
 H    4.060629   -1.346047   -1.449076
 H    4.394523   -1.487500    0.178843
