32 
4mp2_ligand_dft.xyz
 C    5.121955   -2.019338    0.902913
 C    3.732935   -1.988460    0.801281
 O    0.908264    2.846515   -0.720780
 C    3.134643   -0.880102    0.216559
 C    3.898527    0.176688   -0.261589
 O   -4.632608    0.225857    0.902864
 C    5.283918    0.148430   -0.165348
 O   -1.230875    3.493212    0.560048
 C    5.891286   -0.959239    0.421927
 N    1.661472    0.740242   -0.568930
 C    3.016564    1.248964   -0.832412
 C    1.672454   -0.627352   -0.032418
 C    0.652924    1.647451   -0.508121
Br   -3.213689   -2.103883   -0.393275
 C   -2.555672   -0.367439   -0.050571
 C   -3.382218    0.589897    0.556794
 C   -2.895238    1.873919    0.759594
 C   -1.597598    2.223359    0.379083
 C   -1.262572   -0.035079   -0.398041
 C   -0.733739    1.240308   -0.165208
 H    5.609395   -2.874883    1.360213
 H    3.134128   -2.815032    1.173566
 H   -5.085192    0.981291    1.298157
 H    5.884632    0.973796   -0.536884
 H   -0.363333    3.599600    0.097767
 H    6.972942   -0.997080    0.508046
 H    3.170739    1.400778   -1.907866
 H    3.143887    2.220388   -0.345695
 H    1.061645   -0.696690    0.874057
 H    1.282273   -1.351245   -0.759018
 H   -3.523195    2.647420    1.192478
 H   -0.666359   -0.790841   -0.891378
