32 
4mp2_ligand_xtb.xyz
 C    5.010441   -1.999890    1.061843
 C    3.634689   -1.983421    0.880855
 O    0.953773    2.797589   -0.850877
 C    3.076643   -0.921944    0.198179
 C    3.870115    0.104902   -0.299456
 O   -4.512295    0.254912    1.101444
 C    5.238736    0.088545   -0.121579
 O   -1.044811    3.450375    0.642712
 C    5.802451   -0.976831    0.565914
 N    1.651498    0.680380   -0.687369
 C    3.013231    1.118139   -0.985196
 C    1.638210   -0.670563   -0.149681
 C    0.683935    1.612928   -0.615114
Br   -3.293448   -2.010814   -0.438158
 C   -2.533191   -0.312543   -0.054384
 C   -3.285271    0.613055    0.674190
 C   -2.744238    1.866021    0.902188
 C   -1.473762    2.204583    0.438335
 C   -1.261375   -0.011032   -0.487119
 C   -0.689049    1.228438   -0.215753
 H    5.467686   -2.819314    1.595443
 H    3.016788   -2.780679    1.265472
 H   -4.933252    0.982894    1.574108
 H    5.855015    0.886555   -0.506870
 H   -0.206080    3.561343    0.124895
 H    6.870876   -1.007411    0.717443
 H    3.178620    1.130213   -2.069654
 H    3.159253    2.137316   -0.614010
 H    0.972465   -0.745394    0.714839
 H    1.312197   -1.396378   -0.906878
 H   -3.311678    2.621492    1.425533
 H   -0.734407   -0.740139   -1.078760
