32 
4mpe_ligand_xtb.xyz
 C    0.110552    0.806879   -1.425732
 O   -2.088087   -0.434748    2.420641
 C   -1.685388   -1.005799    1.271985
 C   -0.570634   -1.757188    1.221433
 C   -0.081717   -2.359493   -0.010515
 O    0.983996   -2.942461   -0.085898
 C   -0.960890   -2.197632   -1.187834
 C   -2.080462   -1.477427   -1.151301
 C   -2.497640   -0.742151    0.054398
 S   -2.282198    1.081365   -0.270399
 N   -0.615188    1.236448   -0.344681
 C    1.419379    0.652331   -1.026393
 C    1.477359    0.992170    0.376358
 C    2.696179    0.904056    1.079446
 C    3.804403    0.471352    0.405610
 O    4.982240    0.370326    1.077744
 C    3.743869    0.132064   -0.977007
 C    2.590493    0.222171   -1.689311
 C    0.198788    1.335873    0.756952
 O   -2.749130    1.749191    0.909858
 O   -2.838773    1.425183   -1.534166
 H   -0.372002    0.681095   -2.372282
 H   -2.627357    0.358498    2.243361
 H    0.018371   -1.904665    2.112660
 H   -0.642983   -2.706787   -2.085226
 H   -2.712720   -1.358729   -2.019689
 H   -3.571304   -0.810682    0.244694
 H    2.756037    1.154195    2.125247
 H    5.662987    0.011364    0.496000
 H    4.652260   -0.209162   -1.456801
 H    2.553736   -0.038888   -2.735237
 H   -0.203248    1.663620    1.692453
