41 
4mqp_ligand_dft.xyz
 O   24.115257    3.413939   25.768146
 P   24.080148    3.640148   27.357274
 O   25.082362    2.961088   28.185352
 O   22.568173    3.228261   27.693187
 O   24.113654    5.246873   27.428564
 C   24.239680    5.838150   28.740459
 C   24.032555    7.319364   28.627376
 C   25.069174    8.183672   28.951398
 N   24.979882    9.513837   28.891017
 C   23.831280   10.055603   28.499276
 C   23.732832   11.551960   28.426256
 C   22.719300    9.264817   28.148407
 O   21.607092    9.924511   27.744003
 C   22.815058    7.873527   28.203265
 C   21.665989    6.997058   27.748401
 N   20.394508    7.497590   28.269317
 N   19.695150    6.622896   28.801475
 C   18.468931    7.108479   29.297894
 N   17.628961    6.302231   29.847242
 C   16.507352    6.995082   30.259769
 C   15.402339    6.415047   30.895275
 C   14.343948    7.227017   31.258570
 C   14.372752    8.607124   30.997426
 C   15.457327    9.199581   30.369832
 C   16.525908    8.381141   30.001994
 S   18.015700    8.814753   29.208883
 H   25.017542    3.440296   25.422512
 H   21.940659    3.491989   27.006947
 H   25.233694    5.612438   29.134608
 H   23.499130    5.384253   29.411183
 H   26.026827    7.783587   29.279103
 H   22.917745   11.920404   29.058077
 H   24.676753   11.990235   28.754193
 H   23.514798   11.881645   27.404662
 H   20.840212    9.330450   27.826968
 H   21.796247    5.948841   28.025513
 H   21.587117    7.057264   26.653407
 H   15.400539    5.347868   31.088567
 H   13.479044    6.795975   31.752271
 H   13.529446    9.223461   31.292922
 H   15.472635   10.266146   30.172107
