22 
4mrf_ligand_xtb.xyz
 C    2.313544    0.665937    0.375996
 C    1.120013    1.498867   -0.063683
 C   -0.164700    0.709211   -0.017011
 C   -1.383398    1.376983   -0.056008
 C   -2.574623    0.677090   -0.034031
 C   -2.562401   -0.707550    0.026178
 C   -1.357142   -1.382217    0.056988
 C   -0.157065   -0.680728    0.032643
 C    1.137834   -1.455328    0.092099
 N    2.279598   -0.622776   -0.364825
 H    2.259235    0.446422    1.443753
 H    3.250597    1.184971    0.168487
 H    1.276928    1.871745   -1.081080
 H    1.034823    2.373205    0.582361
 H   -1.389916    2.454988   -0.101814
 H   -3.511415    1.209957   -0.062021
 H   -3.487786   -1.259707    0.046375
 H   -1.340202   -2.460342    0.103294
 H    1.068148   -2.349705   -0.531678
 H    1.335802   -1.774621    1.120435
 H    3.158889   -1.137209   -0.249913
 H    2.155343   -0.413858   -1.363459
