24 
4mrg_ligand_xtb.xyz
 C    1.690506   -1.338439    0.087618
 N    2.549186   -0.243246   -0.428229
 C    2.305200    0.996337    0.350354
 C    0.908002    1.507642    0.031287
 C   -0.129240    0.407967    0.041626
 C    0.236562   -0.933878    0.058900
 C   -0.720912   -1.938033    0.054703
 C   -2.063974   -1.602897    0.025747
 C   -2.444748   -0.280618   -0.014121
 C   -1.494194    0.745687   -0.013922
 N   -1.905165    2.042314   -0.145752
 H    2.004518   -1.568250    1.110629
 H    1.836990   -2.233702   -0.520652
 H    2.295486   -0.064868   -1.407934
 H    3.536690   -0.515122   -0.390938
 H    3.057916    1.745072    0.097864
 H    2.393770    0.751105    1.410243
 H    0.902108    2.000405   -0.946929
 H    0.652891    2.266813    0.774076
 H   -0.415176   -2.971503    0.075973
 H   -2.811547   -2.379166    0.027058
 H   -3.490544   -0.018309   -0.050903
 H   -1.304619    2.795229    0.138957
 H   -2.889857    2.216207   -0.032730
