36 
4msc_ligand_xtb.xyz
 C   -4.864708   -1.655092    0.551713
 C   -6.208261   -1.403464    0.568920
 C   -6.707373   -0.150827    0.176302
 C   -5.855745    0.839326   -0.228312
 C   -4.465553    0.614615   -0.256898
 C   -3.526838    1.587908   -0.659565
 C   -2.196315    1.276949   -0.661376
 C   -1.800554   -0.013464   -0.249250
 C   -0.345180   -0.399446   -0.261208
 O    0.433448    0.718507    0.109496
 C    1.783264    0.585322    0.137463
 C    2.479477   -0.553105   -0.186023
 C    3.887607   -0.561125   -0.125134
 N    4.532188   -1.698399   -0.455403
 C    5.834871   -1.714806   -0.401271
 C    6.622204   -0.616181   -0.017312
 C    5.990799    0.551331    0.321749
 C    4.585753    0.611180    0.275299
 C    3.840630    1.763649    0.603541
 C    2.481088    1.752024    0.536298
 N   -2.642460   -0.934436    0.135119
 C   -3.961108   -0.654650    0.138291
 H   -4.460782   -2.609986    0.848892
 H   -6.900345   -2.169915    0.885768
 H   -7.773134    0.023746    0.197368
 H   -6.233375    1.805784   -0.531902
 H   -3.874086    2.565824   -0.964372
 H   -1.443769    1.989330   -0.958735
 H   -0.074188   -0.731732   -1.275611
 H   -0.192861   -1.237305    0.429819
 H    1.997468   -1.466960   -0.491196
 H    6.304331   -2.651276   -0.676973
 H    7.697572   -0.703158    0.005564
 H    6.549994    1.426728    0.623868
 H    4.367561    2.656300    0.909312
 H    1.895580    2.623553    0.784852
