52 
4msk_ligand_xtb.xyz
 N    4.222059   -0.005340    1.100723
 C    4.735201   -1.296682    0.994430
 O    4.082743   -2.244272    1.373438
 C    6.078104   -1.329494    0.424210
 C    6.743893   -2.541088    0.233293
 C    8.010386   -2.553058   -0.305861
 C    8.629912   -1.355641   -0.661272
 C    7.988006   -0.151700   -0.481093
 C    6.700038   -0.119868    0.062963
 N    6.079936    1.094208    0.226278
 C    4.894159    1.113936    0.709406
 C    4.189275    2.433481    0.836266
 C    3.494321    2.784286   -0.492586
 C    2.398710    1.767490   -0.773375
 O    2.609904    0.725980   -1.348233
 N    1.189370    2.135524   -0.252361
 C   -0.028163    1.450005   -0.294410
 C   -1.168037    2.132614    0.133039
 C   -2.399812    1.516244    0.117465
 C   -0.138860    0.128509   -0.725986
 C   -1.371390   -0.488542   -0.738650
 C   -3.794448   -0.461882   -0.358662
 C   -2.512978    0.197780   -0.322703
 N   -4.033014   -1.688240   -0.725692
 N   -5.349939   -1.889053   -0.616502
 C   -5.879549   -0.780095   -0.186762
 C   -7.278500   -0.532859    0.070924
 O   -4.936219    0.175147   -0.000236
 C   -8.198283   -1.563122   -0.126670
 C   -9.539396   -1.338676    0.111961
 C   -9.972475   -0.094385    0.545703
 C   -9.060196    0.929928    0.742360
 C   -7.715271    0.716723    0.507359
 H    3.272503    0.058086    1.448240
 H    6.239205   -3.452024    0.517706
 H    8.527119   -3.489069   -0.455517
 H    9.624226   -1.375436   -1.083423
 H    8.452779    0.782726   -0.753132
 H    4.936534    3.196974    1.052374
 H    3.460724    2.401206    1.649722
 H    4.232104    2.724418   -1.292842
 H    3.095287    3.798266   -0.446302
 H    1.128929    3.060319    0.152413
 H   -1.083563    3.155365    0.474495
 H   -3.278915    2.050885    0.443846
 H    0.738813   -0.401491   -1.055208
 H   -1.474128   -1.509065   -1.069891
 H   -7.836346   -2.520736   -0.465059
 H  -10.252732   -2.134689   -0.040170
 H  -11.022478    0.077309    0.730521
 H   -9.399293    1.898243    1.079587
 H   -6.998959    1.510747    0.657670
