45 
4msl_ligand_dft.xyz
 C   -0.685154    0.373707    2.010551
 C    2.419812   -1.981132    0.230288
 C    1.432151    0.162113    0.646933
 C    3.417223    1.465352   -0.765895
 C    3.513099    0.124224   -0.651245
 O   -3.221388    2.410034    1.045553
 C   -2.706489    2.025726    0.020063
 O   -2.632918    2.699187   -1.112618
 C   -2.067312    0.646249   -0.098455
 C   -2.866778   -0.297027   -1.003180
 C   -2.210661   -1.667733   -1.250940
 C   -0.868013   -1.544582   -1.976689
 C   -3.178864   -2.548100   -2.046837
 N   -2.000999    0.132288    1.310022
 C    0.396410   -0.436801    1.370115
 C    0.376700   -1.827961    1.470479
 O   -0.710042   -2.348953    2.107444
 C    1.385280   -2.607401    0.906756
 C    2.466241   -0.589896    0.074167
 O    1.359045    1.502837    0.508177
 C    2.313579    2.236351   -0.213789
 O    2.126092    3.414143   -0.312539
 C    4.657261   -0.638447   -1.250118
 H   -0.842288    0.088801    3.053056
 H   -0.483129    1.443325    1.954172
 H    3.205818   -2.591811   -0.200758
 H    4.160222    2.050397   -1.295286
 H   -3.054259    3.568417   -0.994473
 H   -1.044857    0.760186   -0.463815
 H   -2.999622    0.214062   -1.963029
 H   -3.870962   -0.427366   -0.577189
 H   -2.031947   -2.166260   -0.284716
 H   -0.446182   -2.536385   -2.163853
 H   -0.996913   -1.048798   -2.945689
 H   -0.122159   -0.984506   -1.403146
 H   -2.750643   -3.541069   -2.211259
 H   -3.382867   -2.106238   -3.028636
 H   -4.134400   -2.673854   -1.527245
 H   -2.187828   -0.875933    1.346257
 H   -2.745667    0.632607    1.822799
 H   -0.621811   -3.305920    2.210026
 H    1.361890   -3.689372    0.995453
 H    5.356559    0.034184   -1.749708
 H    4.299616   -1.366705   -1.986695
 H    5.205212   -1.189623   -0.477800
