89 
4mu7_ligand_dft.xyz
 C   -2.150341    2.736341    2.540611
 C   -2.167655    3.625499    1.294868
 C   -2.424762    2.911223   -0.030476
 N   -3.713364    2.143732   -0.037041
 C   -4.957997    2.951032   -0.072274
 C   -1.393663    1.882310   -0.533267
 O   -1.778538    1.083213   -1.392575
 N   -0.158809    1.950217   -0.044881
 C    0.841865    0.921603   -0.303458
 C    2.229827    1.527650   -0.617825
 C    2.689266    2.564700    0.419140
 C    4.030360    3.198969    0.039101
 C    3.995840    3.793582   -1.369489
 C    3.577567    2.737244   -2.393746
 C    2.223518    2.123201   -2.032745
 C    0.873973    0.040329    0.952593
 O    0.784221    0.598651    2.045287
 N    1.032953   -1.298279    0.821772
 C    1.335080   -2.108702    2.001890
 C    2.796040   -2.594092    1.898117
 C    3.841552   -1.542626    2.357055
 C    4.496671   -1.103889    1.071736
 C    5.447623   -0.128243    0.835299
 C    5.902442    0.082731   -0.471264
 C    5.387929   -0.675811   -1.518157
 C    4.431040   -1.667654   -1.289506
 C    4.009466   -1.885145    0.019298
 N    3.124318   -2.865221    0.481275
 C    1.993148   -3.231875   -0.333486
 C    0.967649   -2.072308   -0.425970
 C   -0.467080   -2.625889   -0.557960
 O   -0.765103   -3.716942   -0.097583
 N   -1.372844   -1.796731   -1.139764
 C   -2.788019   -2.105503   -1.133928
 C   -3.430121   -1.844719   -2.495181
 C   -4.929965   -2.059006   -2.384926
 O   -5.527905   -1.156981   -1.449775
 C   -4.888171   -0.977698   -0.271744
 C   -5.623286   -0.347418    0.739418
 C   -5.028723   -0.068632    1.965673
 C   -3.690668   -0.407164    2.186439
 C   -2.971201   -1.046589    1.178766
 C   -3.549933   -1.350408   -0.053330
 H   -3.138677    2.315044    2.752740
 H   -1.436711    1.909307    2.461437
 H   -1.866968    3.334188    3.410184
 H   -2.917032    4.416441    1.410690
 H   -1.217753    4.161746    1.188198
 H   -2.520083    3.653481   -0.831368
 H   -3.643036    1.516744   -0.855590
 H   -3.746401    1.500779    0.772717
 H   -5.799090    2.267430   -0.182047
 H   -5.052999    3.506202    0.860815
 H   -4.913211    3.637240   -0.918608
 H    0.007615    2.481097    0.799506
 H    0.502655    0.391229   -1.189807
 H    2.942951    0.691721   -0.603133
 H    2.749613    2.106007    1.410925
 H    1.943544    3.372852    0.479321
 H    4.289405    3.967493    0.775331
 H    4.811084    2.432932    0.086692
 H    4.976526    4.206045   -1.628841
 H    3.283452    4.630830   -1.398551
 H    4.332506    1.940786   -2.420919
 H    3.530570    3.171796   -3.398010
 H    1.957470    1.345787   -2.760679
 H    1.444574    2.897819   -2.094049
 H    1.174904   -1.500811    2.890963
 H    0.637547   -2.951619    2.027876
 H    2.889980   -3.520168    2.474746
 H    3.369362   -0.708320    2.887299
 H    4.568270   -1.992888    3.040941
 H    5.836197    0.471489    1.654135
 H    6.656311    0.838388   -0.667874
 H    5.743944   -0.507700   -2.530317
 H    4.059462   -2.269909   -2.113048
 H    1.503565   -4.106366    0.099982
 H    2.320807   -3.516406   -1.335453
 H    1.226695   -1.428996   -1.268416
 H   -1.128686   -0.849364   -1.403553
 H   -2.850706   -3.174702   -0.905016
 H   -3.224898   -0.817309   -2.819938
 H   -3.012935   -2.523849   -3.244032
 H   -5.153595   -3.086232   -2.070334
 H   -5.438280   -1.868645   -3.330633
 H   -6.667262   -0.117596    0.549515
 H   -5.614697    0.393465    2.754914
 H   -3.222369   -0.210989    3.145053
 H   -1.936416   -1.324268    1.356269
