55 
4muf_ligand_dft.xyz
 O   -2.965032    4.045136   -1.992187
 C   -3.052853    2.952334   -1.206278
 O   -3.632726    2.981803   -0.159658
 C   -2.371984    1.707813   -1.783245
 N   -2.448280    0.581608   -0.895095
 C   -3.562633   -0.214652   -0.744315
 C   -4.752045   -0.250624   -1.485597
 C   -5.699022   -1.181635   -1.128346
 C   -5.493175   -2.074725   -0.046764
 O   -6.524756   -2.933163    0.172588
 C   -6.405946   -3.836043    1.246330
 C   -4.328199   -2.033439    0.695426
 C   -3.351431   -1.080019    0.345130
 C   -2.075290   -0.748823    0.884429
 C   -1.562102    0.273759    0.122537
 C   -0.248137    0.933970    0.241959
 O    0.334008    1.476003   -0.683625
 N    0.299370    0.850689    1.507943
 S    1.787489    1.534703    1.971512
 O    1.861667    1.163911    3.374476
 O    1.843513    2.914979    1.545171
 C    2.970873    0.595074    1.047974
 C    3.490141   -0.567697    1.601867
 C    4.420680   -1.304972    0.877424
 C    4.841896   -0.898732   -0.392185
 C    5.864134   -1.689943   -1.216387
 C    5.218938   -2.114390   -2.549807
 C    7.089295   -0.798132   -1.495633
 C    6.345384   -2.954488   -0.491804
 C    4.299489    0.284417   -0.914103
 C    3.371629    1.036079   -0.209921
 H   -2.411529    3.869838   -2.765550
 H   -1.318678    1.918662   -1.984714
 H   -2.851125    1.445327   -2.733884
 H   -4.939300    0.434105   -2.306480
 H   -6.638810   -1.252237   -1.665245
 H   -5.550622   -4.511587    1.111406
 H   -6.300872   -3.309699    2.204287
 H   -7.327313   -4.419556    1.255038
 H   -4.154732   -2.699555    1.532329
 H   -1.573505   -1.249385    1.701612
 H   -0.267417    0.560472    2.295292
 H    3.181428   -0.883431    2.592767
 H    4.819779   -2.207360    1.325386
 H    4.340040   -2.744199   -2.375085
 H    4.901760   -1.251197   -3.143343
 H    5.936266   -2.686000   -3.149630
 H    6.821156    0.098732   -2.062826
 H    7.559412   -0.476859   -0.560089
 H    7.832606   -1.352325   -2.079975
 H    6.844169   -2.717149    0.454294
 H    5.520123   -3.645253   -0.286441
 H    7.068556   -3.483084   -1.121606
 H    4.606760    0.634423   -1.894793
 H    2.953135    1.945857   -0.623158
