49 
4mul_ligand_dft.xyz
 O   -2.254100    4.445288   -1.043398
 C   -2.471112    3.224681   -0.511782
 O   -3.057764    3.090271    0.522769
 C   -1.921197    2.067653   -1.350894
 N   -2.139233    0.790840   -0.730362
 C   -3.335131    0.107457   -0.759579
 C   -4.502655    0.364715   -1.491936
 C   -5.551950   -0.512529   -1.349244
 C   -5.469422   -1.637715   -0.490685
 O   -6.591542   -2.405303   -0.466879
 C   -6.595768   -3.529797    0.380400
 C   -4.325675   -1.887463    0.243571
 C   -3.244495   -0.993082    0.112839
 C   -1.954394   -0.929064    0.713031
 C   -1.316474    0.173335    0.195554
 C    0.054789    0.646670    0.461764
 O    0.713197    1.319155   -0.314861
 N    0.560367    0.221759    1.676947
 S    2.103993    0.613542    2.273111
 O    2.117451   -0.073758    3.552927
 O    2.321860    2.039176    2.173172
 C    3.183008   -0.222358    1.142707
 C    3.688113    0.468186    0.073298
 C    4.539851   -0.195444   -0.844383
 C    5.086616    0.476252   -1.968550
 C    5.907549   -0.185819   -2.843377
 C    6.219942   -1.549864   -2.633544
 C    5.706493   -2.223952   -1.555675
 C    4.853197   -1.567290   -0.632273
 C    4.307282   -2.237394    0.496074
 C    3.485661   -1.585236    1.373858
 H   -1.715366    4.381606   -1.843950
 H   -0.847322    2.198433   -1.505872
 H   -2.407256    2.073694   -2.333625
 H   -4.595399    1.228422   -2.142466
 H   -6.480194   -0.360908   -1.889458
 H   -5.813423   -4.247778    0.100113
 H   -6.459912   -3.241777    1.431269
 H   -7.573545   -3.997312    0.258580
 H   -4.245194   -2.735537    0.913321
 H   -1.529607   -1.647953    1.400691
 H   -0.052147   -0.172909    2.380110
 H    3.428150    1.510751   -0.074203
 H    4.841370    1.523399   -2.122129
 H    6.322664    0.333642   -3.701420
 H    6.872246   -2.062834   -3.333752
 H    5.947488   -3.271202   -1.394417
 H    4.558152   -3.281905    0.658216
 H    3.079276   -2.084971    2.246228
