51 
4muw_ligand_dft.xyz
 C    9.605557   91.959134   41.144287
 N    9.358075   92.452194   39.810835
 C    9.895560   91.868873   38.691932
 C   10.441429   90.574240   38.723351
 C   10.954827   90.033067   37.550993
 C   10.901007   90.806553   36.384352
 C   10.339941   92.073154   36.462495
 N    9.846259   92.611534   37.575450
 C   11.512258   88.658218   37.503544
 C   11.207764   87.805171   36.448292
 C   11.737175   86.516905   36.399024
 C   12.571689   86.123478   37.430769
 N   12.890745   86.917348   38.458194
 C   12.377823   88.131740   38.487158
 O   12.710409   88.959232   39.510499
 C   13.493543   88.496147   40.554481
 C   14.721389   89.100964   40.765575
 C   15.506364   88.747101   41.859035
 C   15.048934   87.768849   42.744060
 N   15.775427   87.341413   43.869805
 C   16.990796   87.777567   44.316748
 N   17.744343   88.709857   43.797349
 C   18.861198   88.768666   44.620301
 C   19.990797   89.582149   44.545199
 C   20.976561   89.433273   45.513894
 C   20.839214   88.493551   46.535817
 F   21.801820   88.365028   47.460573
 C   19.721753   87.676593   46.626157
 F   19.589080   86.772887   47.608691
 C   18.743678   87.828738   45.659355
 N   17.532371   87.200203   45.450627
 C   13.804383   87.165982   42.521630
 C   13.025459   87.527982   41.434956
 H    9.185870   92.666444   41.862247
 H    9.111504   90.993275   41.304020
 H   10.677200   91.835557   41.359661
 H    9.175112   93.437142   39.693776
 H   10.468630   90.007650   39.644827
 H   11.313454   90.443370   35.449211
 H   10.291553   92.702468   35.575648
 H   10.534639   88.152162   35.669583
 H   11.500580   85.840965   35.585166
 H   13.013002   85.129814   37.448063
 H   15.063164   89.859582   40.069543
 H   16.464191   89.219644   42.030132
 H   15.334793   86.617622   44.415004
 H   20.092242   90.310517   43.748993
 H   21.874460   90.040900   45.500611
 H   17.149312   86.455463   46.009114
 H   13.438682   86.404370   43.206938
 H   12.064985   87.055264   41.263038
