49 
4mvh_ligand_xtb.xyz
 O  -14.740605   45.187339   85.629909
 C  -15.249959   44.522879   86.504407
 C  -16.579632   44.826638   87.066741
 N  -17.387150   43.847698   87.605701
 C  -18.546404   44.458977   87.987369
 C  -19.713055   43.992204   88.575057
 C  -20.695574   44.923750   88.834451
 C  -20.528627   46.277575   88.520157
 C  -19.375028   46.750748   87.937211
 C  -18.366381   45.828800   87.662382
 N  -17.142581   46.004058   87.089768
 C  -14.595155   43.307443   87.061529
 C  -14.674340   42.977062   88.413409
 C  -14.047799   41.843263   88.889383
 C  -13.346099   41.015336   88.016960
 O  -12.717103   39.929161   88.577804
 C  -12.660094   38.745126   87.903681
 N  -13.480799   38.567719   86.900522
 C  -13.451844   37.412616   86.232473
 C  -12.557634   36.431571   86.591858
 N  -11.734386   36.585885   87.622073
 C  -11.754372   37.720333   88.322863
 N  -10.839108   37.835225   89.323380
 C  -10.015429   36.681749   89.641522
 C  -10.641123   35.909084   90.807111
 O  -10.809234   36.740054   91.936108
 C  -11.604637   37.861485   91.632323
 C  -10.994821   38.682668   90.486516
 C  -13.231998   41.355365   86.673374
 C  -13.844316   42.500823   86.208819
 H  -17.177018   42.864423   87.654509
 H  -19.842619   42.948289   88.818678
 H  -21.619436   44.603532   89.292549
 H  -21.332232   46.963153   88.744011
 H  -19.242197   47.791744   87.692488
 H  -15.201620   43.622855   89.100619
 H  -14.094136   41.582965   89.935799
 H  -14.150825   37.320001   85.415957
 H  -12.478297   35.490389   86.067288
 H   -9.940258   36.048116   88.760074
 H   -9.026555   37.047851   89.932623
 H  -11.613243   35.503541   90.488403
 H   -9.994420   35.090991   91.126075
 H  -11.658569   38.454025   92.546964
 H  -12.618851   37.538834   91.346042
 H   -9.998339   39.026024   90.783828
 H  -11.618961   39.542620   90.264507
 H  -12.665078   40.729628   86.003466
 H  -13.757057   42.785382   85.171259
