40 
4mvw_ligand_dft.xyz
 C    1.277962   -0.467355    0.974165
 C    1.181731   -1.648136    0.242759
Cl   -0.345409   -2.456292    0.126057
 C    2.289282   -2.190618   -0.403016
 C    3.509939   -1.531054   -0.310205
Cl    4.901909   -2.194391   -1.103253
 C    3.633571   -0.348873    0.412408
 C    2.512284    0.182182    1.051258
 C    2.652089    1.482899    1.793162
 N    2.386660    2.660519    0.867944
 C    0.935768    2.799045    0.487896
 C    0.695035    3.910992   -0.518485
 C   -0.804424    4.016479   -0.851095
 N   -1.354813    2.794138   -1.412347
 C   -1.919738    1.860519   -0.557773
 O   -1.723932    1.912888    0.653282
 N   -2.647050    0.881926   -1.168335
 C   -3.204252   -0.239175   -0.519268
 C   -3.636522   -1.370705   -1.279412
 C   -4.143999   -2.356488   -0.489328
 S   -4.102120   -1.925814    1.174227
 C   -3.395510   -0.394891    0.825118
 H    0.393179   -0.066312    1.461204
 H    2.202708   -3.114397   -0.963223
 H    4.604550    0.132142    0.488702
 H    3.663064    1.616731    2.184310
 H    1.938529    1.578018    2.614175
 H    2.951983    2.541677    0.020634
 H    2.708106    3.525479    1.312740
 H    0.380813    2.951581    1.414050
 H    0.642459    1.835992    0.076843
 H    1.255850    3.711915   -1.440444
 H    1.028326    4.878705   -0.122187
 H   -0.939935    4.819935   -1.578399
 H   -1.360097    4.284196    0.053059
 H   -1.702021    2.852535   -2.358063
 H   -2.724142    0.886940   -2.174178
 H   -3.567328   -1.442076   -2.359549
 H   -4.542151   -3.311903   -0.800926
 H   -3.161911    0.305375    1.609768
