44 
4mvy_ligand_xtb.xyz
 C    1.168844   -0.619887    1.023055
 C    0.880834   -1.715886    0.217463
Cl   -0.746796   -2.248150    0.061811
 C    1.891189   -2.375018   -0.470245
 C    3.199923   -1.931231   -0.346398
Cl    4.462947   -2.737540   -1.189939
 C    3.501315   -0.834579    0.450708
 C    2.483341   -0.183563    1.137406
 C    2.818082    1.034755    1.957536
 N    2.890678    2.237409    1.066822
 C    1.556656    2.589738    0.515087
 C    1.588988    3.727193   -0.494643
 C    0.140552    4.112163   -0.855693
 N   -0.595210    3.006568   -1.427287
 C   -1.330588    2.177208   -0.603222
 O   -1.174623    2.211403    0.603486
 N   -2.137770    1.314752   -1.273444
 C   -2.915495    0.268786   -0.746879
 C   -3.060026    0.060260    0.614969
 C   -3.546172   -0.582367   -1.652143
 C   -4.311087   -1.634211   -1.187308
 C   -4.455517   -1.855284    0.170674
 C   -3.828867   -1.005002    1.074258
 O   -3.922950   -1.172806    2.415745
 H    0.367712   -0.125622    1.550112
 H    1.660669   -3.226738   -1.088550
 H    4.528301   -0.517175    0.544643
 H    3.783114    0.907749    2.451343
 H    2.048596    1.216262    2.708847
 H    3.530480    2.028769    0.289885
 H    3.267400    3.039597    1.584021
 H    0.892853    2.850269    1.340950
 H    1.154262    1.696053    0.039407
 H    2.122059    3.424917   -1.397982
 H    2.077030    4.609233   -0.076819
 H    0.153903    4.941424   -1.562166
 H   -0.371332    4.430753    0.058112
 H   -0.828780    3.062966   -2.404459
 H   -2.180024    1.390580   -2.279936
 H   -2.592825    0.711298    1.332132
 H   -3.438206   -0.419430   -2.714506
 H   -4.799036   -2.291776   -1.889832
 H   -5.053869   -2.681131    0.528674
 H   -4.512004   -1.909605    2.620062
