44 
4mw1_ligand_dft.xyz
 C   -1.300279   -2.876909    0.236221
 O   -0.611788   -1.874142    0.967976
 C    0.677806   -1.646478    0.697016
 C    1.261767   -0.574398    1.387125
 C    1.442785   -2.385017   -0.210910
 C    2.780290   -2.048671   -0.401850
Cl    3.729863   -2.979385   -1.522323
 C    3.375714   -0.993840    0.275932
 C    2.594793   -0.254423    1.171159
 C    3.192702    0.960532    1.821592
 N    3.130301    2.136002    0.856605
 C    1.727305    2.585690    0.544272
 C    1.688241    3.616241   -0.571159
 C    0.234408    3.932445   -0.960252
 N   -0.477474    2.778958   -1.485786
 C   -1.244975    2.011112   -0.624098
 O   -1.118700    2.105092    0.591822
 N   -2.090771    1.131275   -1.239379
 C   -3.000948    0.275429   -0.588226
 C   -3.817130   -0.617554   -1.353902
 C   -4.659665   -1.345867   -0.570934
 S   -4.471178   -0.962276    1.094872
 C   -3.238565    0.192748    0.754810
 H   -1.290744   -2.652955   -0.836399
 H   -0.866996   -3.866468    0.419985
 H   -2.326278   -2.851646    0.599442
 H    0.634548   -0.000251    2.061866
 H    1.022175   -3.217955   -0.759921
 H    4.428619   -0.775187    0.123319
 H    4.247540    0.822138    2.070652
 H    2.649843    1.270449    2.716646
 H    3.586681    1.850137   -0.016020
 H    3.674761    2.920197    1.227551
 H    1.297678    2.959513    1.475460
 H    1.181728    1.687929    0.265045
 H    2.212397    3.231327   -1.455615
 H    2.181702    4.547329   -0.265715
 H    0.243256    4.709574   -1.727859
 H   -0.303162    4.325186   -0.091788
 H   -0.751141    2.830244   -2.455641
 H   -2.136622    1.127076   -2.247027
 H   -3.782153   -0.699194   -2.435268
 H   -5.387846   -2.078502   -0.889604
 H   -2.760795    0.749545    1.543198
