47 
4mw5_ligand_xtb.xyz
 C   -2.208377   -3.091188    1.837889
 O   -0.829000   -2.994837    1.542852
 C   -0.435600   -2.308755    0.462525
 C    0.944950   -2.281689    0.227715
 C   -1.289328   -1.648969   -0.420147
 C   -0.756002   -0.975325   -1.506250
Cl   -1.814812   -0.168038   -2.603167
 C    0.606655   -0.941613   -1.739560
 C    1.456565   -1.613263   -0.864283
 C    2.934652   -1.578550   -1.137795
 N    3.505377   -0.249800   -0.768440
 C    3.995513   -0.132445    0.625870
 C    4.380288    1.323222    0.858481
 C    3.132269    2.192301    1.039868
 N    2.108249    1.961712    0.005145
 C    0.885340    1.436299    0.522150
 O    0.937413    0.587695    1.383022
 N   -0.221109    1.933706   -0.062916
 C   -1.567760    1.665548    0.265156
 C   -1.937504    0.916334    1.374207
 C   -3.281471    0.723968    1.646605
 C   -4.255641    1.259187    0.821809
 C   -3.882547    2.009220   -0.281316
 C   -2.544828    2.218502   -0.556420
 H   -2.647160   -2.105181    2.007994
 H   -2.750118   -3.603257    1.038105
 H   -2.270165   -3.680775    2.750383
 H    1.583759   -2.806734    0.918799
 H   -2.356711   -1.651050   -0.277590
 H    0.989596   -0.427585   -2.607236
 H    3.111384   -1.745340   -2.202128
 H    3.454150   -2.352018   -0.570827
 H    2.772684    0.516101   -0.812533
 H    4.270600   -0.007346   -1.403685
 H    4.840838   -0.805301    0.776861
 H    3.174439   -0.410722    1.291878
 H    4.990040    1.686557    0.027595
 H    4.980049    1.405640    1.763473
 H    3.416375    3.245273    1.056133
 H    2.682889    1.939848    2.003803
 H    1.990012    2.757082   -0.610911
 H   -0.116786    2.599265   -0.817138
 H   -1.182969    0.496580    2.017578
 H   -3.568835    0.158122    2.520501
 H   -5.299974    1.100371    1.040440
 H   -4.633530    2.436627   -0.927281
 H   -2.256745    2.811586   -1.412908
