61 
4mw6_ligand_xtb.xyz
Cl   -5.548307   -0.584632    2.306462
 C   -3.992502   -0.581785    1.565057
 C   -3.506850   -1.730931    0.963550
 C   -3.221897    0.570721    1.595231
 C   -1.976373    0.582694    0.987441
 C   -1.498721   -0.568113    0.350420
 O   -0.234565   -0.529800   -0.197923
 C   -0.176781   -0.482201   -1.634122
 C   -0.611639    0.863960   -2.145647
 C   -1.952453    1.118506   -2.407472
 C   -2.356927    2.377620   -2.817485
 C   -1.426141    3.392148   -2.968032
 C   -0.086884    3.144440   -2.712625
 C    0.318553    1.885857   -2.301882
 C   -2.257567   -1.743025    0.357818
 C   -1.743724   -3.006105   -0.268285
 C   -2.284681   -3.263660   -1.651233
 C   -3.293407   -2.631411   -2.220259
 C   -1.131417    1.829986    1.025002
 N    0.191850    1.557489    1.641121
 C    0.918094    2.762113    2.100013
 C    1.566878    3.491886    0.916829
 C    3.097372    3.492497    0.967965
 N    3.714017    2.190859    1.196497
 C    3.325758    1.007132    0.638844
 O    2.199568    0.826410    0.174025
 N    4.246446    0.017881    0.709419
 C    4.027935   -1.324214    0.358846
 C    5.114054   -2.228110    0.214254
 C    4.701366   -3.478199   -0.107683
 S    2.994760   -3.581437   -0.242198
 C    2.818915   -1.918455    0.146881
 H   -4.101250   -2.631066    0.967641
 H   -3.601940    1.455072    2.081280
 H   -0.796176   -1.272706   -2.067401
 H    0.874078   -0.661750   -1.865854
 H   -2.677388    0.325517   -2.299433
 H   -3.398648    2.564942   -3.027116
 H   -1.741499    4.371163   -3.294190
 H    0.641643    3.931096   -2.843315
 H    1.360564    1.679607   -2.105467
 H   -2.023702   -3.856303    0.360933
 H   -0.651713   -2.981486   -0.311711
 H   -1.776378   -4.060874   -2.176879
 H   -3.835194   -1.842982   -1.722823
 H   -3.628036   -2.886068   -3.210561
 H   -1.645517    2.593663    1.612923
 H   -0.971854    2.211953    0.014732
 H    0.847823    1.079634    0.923853
 H    0.050078    0.903365    2.414157
 H    1.691500    2.446429    2.802824
 H    0.221258    3.413808    2.630472
 H    1.253358    4.535128    0.894601
 H    1.240426    3.033751   -0.015800
 H    3.429744    4.132230    1.789739
 H    3.467827    3.925643    0.030583
 H    4.681454    2.260803    1.474803
 H    5.191975    0.231650    0.991203
 H    6.144349   -1.949972    0.345105
 H    5.301048   -4.349125   -0.277705
 H    1.845240   -1.477957    0.190090
