41 
4mw9_ligand_xtb.xyz
 O    0.321176    2.279587    1.146691
 C    0.360199    1.969193   -0.025039
 N   -0.698520    1.416803   -0.705058
 C   -1.907824    1.030079   -0.135239
 C   -2.981164    0.554998   -0.939980
 C   -4.062635    0.203468   -0.203870
 S   -3.803281    0.445389    1.477356
 C   -2.211461    1.028533    1.192630
 N    1.451131    2.189352   -0.822892
 C    2.722296    2.573244   -0.250944
 C    3.670990    1.381440   -0.096198
 C    3.153866    0.379294    0.939626
 N    3.575457   -0.968631    0.596155
 C    2.765814   -1.998869    1.221189
 C    1.379488   -2.020756    0.627041
 C    1.188680   -1.644734   -0.693132
 C   -0.084397   -1.661640   -1.256079
 C   -0.269846   -1.216261   -2.588668
 C   -0.421815   -0.790570   -3.701694
 C   -1.173359   -2.091752   -0.498978
 C   -0.981538   -2.462397    0.817318
 C    0.282611   -2.417009    1.381798
 H   -0.598161    1.204400   -1.686996
 H   -2.925989    0.477930   -2.011648
 H   -5.001917   -0.183464   -0.544692
 H   -1.594648    1.341758    2.007544
 H   -0.558767   -0.447856   -4.684169
 H    2.502751    3.011883    0.724533
 H    3.177587    3.334054   -0.892633
 H    4.661421    1.744259    0.180823
 H    3.759824    0.866394   -1.055819
 H    2.062398    0.384815    0.926831
 H    3.467847    0.682959    1.950546
 H    4.554697   -1.100153    0.826989
 H    1.491400    1.729166   -1.719343
 H    2.688320   -1.878900    2.316325
 H    3.245214   -2.964968    1.025676
 H    2.039246   -1.329635   -1.278272
 H   -2.157241   -2.121720   -0.942483
 H   -1.825302   -2.779143    1.412344
 H    0.418506   -2.694921    2.417112
