41 
4mw9_ligand_dft.xyz
 O    0.433260    1.779744    1.569680
 C    0.337807    1.924447    0.347011
 N   -0.828753    1.809263   -0.357524
 C   -1.967952    1.152262    0.116043
 C   -3.015533    0.810608   -0.802211
 C   -4.041221    0.151260   -0.202161
 S   -3.760410   -0.060776    1.485521
 C   -2.236206    0.749626    1.394159
 N    1.423259    2.223897   -0.439045
 C    2.712446    2.430225    0.159644
 C    3.554286    1.141337    0.268439
 C    2.900432    0.103100    1.177098
 N    3.370827   -1.297722    0.821687
 C    2.354633   -2.393414    1.021778
 C    1.163839   -2.212401    0.109555
 C    1.220522   -1.373057   -0.995188
 C    0.088535   -1.088155   -1.781537
 C    0.170685    0.004613   -2.686476
 C    0.355073    1.140210   -3.168751
 C   -1.086080   -1.804153   -1.488124
 C   -1.135004   -2.678320   -0.409849
 C   -0.028293   -2.869858    0.414698
 H   -0.718192    1.786090   -1.375011
 H   -2.966454    1.037459   -1.861741
 H   -4.946869   -0.220509   -0.660816
 H   -1.619824    0.893185    2.265859
 H    1.334025    2.096394   -1.452946
 H    2.563795    2.863488    1.152085
 H    3.275042    3.149657   -0.442957
 H    4.566760    1.383243    0.615167
 H    3.645732    0.738167   -0.749793
 H    1.817424    0.109191    1.072123
 H    3.133964    0.257739    2.232131
 H    4.222583   -1.521963    1.338879
 H    3.632603   -1.303198   -0.168294
 H    2.060105   -2.353655    2.073877
 H    2.886992   -3.334308    0.845559
 H    2.110179   -0.812180   -1.266477
 H   -1.976353   -1.615860   -2.076862
 H   -2.066655   -3.184335   -0.175809
 H   -0.099517   -3.512200    1.288662
