60 
4mx9_ligand_dft.xyz
 C    4.583563   -0.363765    0.547600
 C    5.422943   -1.254216    1.447626
 N    6.688726   -1.685542    0.745096
 C    7.579174   -2.485661    1.634046
 C    6.372252   -2.409815   -0.539996
 C    5.540346   -1.529271   -1.459945
 C    4.253329   -1.041982   -0.786866
 C    3.497309   -0.090955   -1.723210
 N    2.311200    0.448733   -1.116693
 N    1.148180   -0.259202   -1.093602
 C    2.183894    1.650200   -0.500350
 N    3.161146    2.552355   -0.315281
 C    2.719588    3.605449    0.365515
 N    1.505683    3.819814    0.882747
 C    0.557016    2.888665    0.701194
 N   -0.637773    3.108594    1.275720
 C    0.859295    1.730782   -0.061160
 C    0.257920    0.497902   -0.477266
 C   -1.133423    0.047814   -0.306059
 C   -2.182823    0.913813   -0.533935
 C   -1.410730   -1.291320    0.068732
 C   -2.702631   -1.717615    0.227106
 C   -3.798358   -0.838855    0.019379
 C   -5.141642   -1.265449    0.188051
 C   -3.525293    0.498794   -0.374205
 C   -4.620700    1.378185   -0.600891
 C   -5.905266    0.952236   -0.435630
 C   -6.177294   -0.386233   -0.034647
 O   -7.488050   -0.673847    0.091722
 C   -7.861105   -1.989205    0.479421
 C   -9.373551   -2.037302    0.538687
 H    5.088260    0.595945    0.372726
 H    3.664679   -0.121311    1.089042
 H    4.899749   -2.178009    1.713244
 H    5.724967   -0.745219    2.365858
 H    7.189653   -0.828756    0.488610
 H    7.054761   -3.399640    1.916238
 H    8.495015   -2.732381    1.095678
 H    7.813287   -1.900868    2.524304
 H    5.835139   -3.317648   -0.249367
 H    7.325442   -2.695119   -0.991303
 H    5.315339   -2.108509   -2.361196
 H    6.142613   -0.669030   -1.785439
 H    3.604661   -1.906592   -0.589311
 H    3.205054   -0.614076   -2.637654
 H    4.132577    0.759487   -1.991609
 H    3.443449    4.397738    0.542160
 H   -0.743907    3.933199    1.846483
 H   -1.367463    2.413285    1.259924
 H   -1.987726    1.927724   -0.878722
 H   -0.581063   -1.972338    0.229161
 H   -2.904139   -2.744768    0.519369
 H   -5.324297   -2.290755    0.489556
 H   -4.422062    2.400544   -0.911576
 H   -6.749744    1.611628   -0.605242
 H   -7.420769   -2.222328    1.458681
 H   -7.472321   -2.711610   -0.251256
 H   -9.752434   -1.315197    1.266948
 H   -9.803374   -1.803791   -0.439076
 H   -9.703953   -3.037263    0.834885
