88 
4my6_ligand_xtb.xyz
 C    7.140826   -1.891272   -0.112135
 O    7.328048   -1.588331    1.047147
 C    7.864886   -3.021795   -0.812913
Cl    7.074241    2.869875    0.131701
 C    5.355287    3.063815   -0.014683
 C    4.759558    4.146441    0.611742
 C    3.388013    4.312201    0.532929
 C    2.623400    3.399415   -0.172859
 C    3.229613    2.328806   -0.804788
 C    4.604896    2.138217   -0.737003
 C    5.244310    0.947822   -1.386479
 C    5.373497   -0.224506   -0.396426
 N    6.288620   -1.215386   -0.922349
 C    4.015112   -0.916622   -0.218307
 O    3.608541   -1.681990   -1.080387
 N    3.350229   -0.704777    0.923192
 C    3.653551    0.219275    1.996598
 C    2.292274    0.443007    2.649549
 C    1.629091   -0.924907    2.528967
 C    2.091247   -1.412637    1.141059
 C    1.065109   -0.957102    0.094051
 O    1.090269    0.153628   -0.407311
 N    0.122955   -1.855381   -0.192972
 C    2.299193   -2.896869    1.098441
 C    1.338250   -3.728035    0.735353
 C    0.006792   -3.206232    0.307466
 C   -0.636143   -3.925874   -0.882459
 C   -1.621816   -2.884581   -1.418328
 C   -0.955905   -1.531744   -1.099691
 C   -1.954169   -0.634827   -0.367426
 O   -2.066600   -0.667274    0.843532
 N   -2.743687    0.137865   -1.135680
 C   -2.603946    0.503151   -2.530425
 C   -3.434675    1.784293   -2.643031
 C   -4.592549    1.502767   -1.683267
 C   -3.892995    0.771971   -0.530260
 C   -4.877442   -0.246552    0.022709
 O   -4.808971   -1.438576   -0.189736
 C   -5.372903    2.681584   -1.202477
 C   -5.984017    2.755129   -0.029730
 C   -6.031592    1.726706    1.071240
 C   -7.385693    1.767797    1.803626
 C   -7.566916    0.347019    2.328985
 C   -6.993416   -0.479555    1.179160
 N   -5.909002    0.330295    0.669699
 C   -8.057150   -0.746691    0.118078
 O   -7.676326   -0.380277   -1.105767
 O   -9.129960   -1.231270    0.353390
 H    8.594142   -3.457153   -0.136217
 H    8.370078   -2.649611   -1.700941
 H    7.149844   -3.785976   -1.110741
 H    5.369422    4.847475    1.159966
 H    2.923102    5.152573    1.026074
 H    1.551943    3.511490   -0.230345
 H    2.622492    1.607202   -1.327577
 H    6.244048    1.206222   -1.740864
 H    4.641482    0.615792   -2.234096
 H    5.792504    0.105619    0.556239
 H    5.999472   -1.638947   -1.792270
 H    4.358478   -0.244058    2.698868
 H    4.079378    1.147433    1.618014
 H    2.373310    0.785766    3.678844
 H    1.731036    1.173855    2.066956
 H    2.000461   -1.605539    3.297653
 H    0.543209   -0.877042    2.590171
 H    3.275035   -3.245113    1.402357
 H    1.471302   -4.798293    0.730812
 H   -0.694282   -3.213830    1.158995
 H   -1.124373   -4.854290   -0.594911
 H    0.133519   -4.140342   -1.625848
 H   -1.807570   -3.001031   -2.484198
 H   -2.574882   -2.952329   -0.890735
 H   -0.540247   -1.036999   -1.980770
 H   -1.556320    0.671413   -2.784163
 H   -3.010435   -0.282204   -3.179760
 H   -2.855147    2.637534   -2.287934
 H   -3.764835    1.976975   -3.661700
 H   -5.280444    0.799042   -2.170997
 H   -3.570547    1.461143    0.258825
 H   -5.438580    3.515245   -1.888159
 H   -6.515591    3.662202    0.225978
 H   -5.227418    1.955031    1.790763
 H   -8.177844    2.000237    1.089612
 H   -7.396564    2.516278    2.592973
 H   -6.978517    0.189891    3.232593
 H   -8.605686    0.091717    2.525944
 H   -6.609572   -1.458061    1.490351
 H   -8.362801   -0.610482   -1.752453
