88 
4my6_ligand_dft.xyz
 C    6.785180   -1.760258   -0.117802
 O    6.536589   -1.739383    1.077657
 C    7.593838   -2.863204   -0.768113
Cl    6.319024    3.700845   -0.075050
 C    4.598106    3.416734   -0.281086
 C    3.718964    4.328539    0.293007
 C    2.348485    4.114451    0.188687
 C    1.871439    2.998204   -0.488971
 C    2.764979    2.109047   -1.072784
 C    4.146944    2.293261   -0.982062
 C    5.078497    1.241211   -1.530621
 C    5.316511    0.130909   -0.496989
 N    6.340692   -0.782766   -0.971050
 C    4.023557   -0.678108   -0.282837
 O    3.621515   -1.404248   -1.187888
 N    3.401548   -0.592341    0.910952
 C    3.683302    0.368227    1.978942
 C    2.401498    0.331605    2.809310
 C    1.962080   -1.127204    2.688817
 C    2.295387   -1.498708    1.218536
 C    1.086644   -1.167449    0.329630
 O    0.834131   -0.010696   -0.003315
 N    0.296159   -2.196845   -0.019143
 C    2.718602   -2.942089    1.106063
 C    1.890124   -3.903293    0.720016
 C    0.488760   -3.610500    0.292058
 C    0.016357   -4.273214   -1.005514
 C   -1.199473   -3.418283   -1.385813
 C   -0.813125   -1.987464   -0.944551
 C   -1.973263   -1.308864   -0.213924
 O   -2.458741   -1.833686    0.780393
 N   -2.465326   -0.153458   -0.726007
 C   -1.787092    0.792396   -1.619176
 C   -2.328249    2.145005   -1.147356
 C   -3.772132    1.809143   -0.752981
 C   -3.609481    0.440730   -0.070741
 C   -4.888179   -0.358242   -0.253808
 O   -5.014848   -1.261926   -1.061411
 C   -4.479841    2.809027    0.112501
 C   -5.372550    2.524534    1.059801
 C   -5.922788    1.181702    1.492652
 C   -7.416161    1.297206    1.861274
 C   -7.970207   -0.107342    1.628485
 C   -7.217011   -0.557195    0.366966
 N   -5.930070    0.095129    0.499153
 C   -7.978949   -0.170508   -0.895462
 O   -7.477870    0.908417   -1.521896
 O   -8.967860   -0.749426   -1.273374
 H    8.285104   -3.277343   -0.032937
 H    8.150223   -2.513107   -1.642199
 H    6.911678   -3.659043   -1.086985
 H    4.110631    5.190499    0.822011
 H    1.660424    4.819389    0.645251
 H    0.806819    2.800491   -0.552820
 H    2.385949    1.221738   -1.569154
 H    6.043165    1.673286   -1.807945
 H    4.634610    0.789502   -2.425035
 H    5.683839    0.561255    0.435737
 H    6.280603   -1.032496   -1.949231
 H    4.559593    0.044671    2.554693
 H    3.870952    1.362536    1.568713
 H    2.566758    0.642547    3.843783
 H    1.655716    0.987901    2.352494
 H    2.555638   -1.763794    3.354690
 H    0.905369   -1.295280    2.912802
 H    3.742098   -3.149567    1.409112
 H    2.200038   -4.944549    0.711714
 H   -0.212195   -3.884224    1.096077
 H   -0.232478   -5.328973   -0.868376
 H    0.808843   -4.192424   -1.757850
 H   -1.437175   -3.457786   -2.450715
 H   -2.079290   -3.741163   -0.823174
 H   -0.453295   -1.392898   -1.787340
 H   -0.706563    0.713999   -1.496365
 H   -2.060358    0.602954   -2.665052
 H   -1.768337    2.480271   -0.265767
 H   -2.262984    2.918307   -1.917895
 H   -4.347077    1.663263   -1.679487
 H   -3.403257    0.566639    1.000102
 H   -4.236971    3.855611   -0.064183
 H   -5.783684    3.352943    1.635540
 H   -5.364547    0.845844    2.380851
 H   -7.897484    2.010176    1.182177
 H   -7.553133    1.657409    2.884049
 H   -7.703168   -0.771356    2.456661
 H   -9.053639   -0.139511    1.497393
 H   -7.091719   -1.640979    0.317658
 H   -8.042982    1.048430   -2.298710
