29 
4myd_ligand_dft.xyz
 O   -1.710589    2.097803   -1.083391
 C   -2.059086    1.598108   -0.042941
 O   -2.967475    2.173611    0.768447
 C   -1.547822    0.284851    0.538189
 C   -2.700562   -0.698503    0.836064
 C   -3.113042   -1.459747   -0.400793
 C   -2.228971   -1.713011   -1.375672
 C   -0.861100   -1.205841   -1.299086
 O   -2.360307   -1.610790    1.866361
 C   -0.505115   -0.286249   -0.385193
 C    0.863262    0.280516   -0.270343
 O    1.120288    1.069912    0.621021
 C    1.919023   -0.110364   -1.293604
 C    3.287883    0.430564   -0.914736
 C    3.828074   -0.257836    0.315909
 O    3.402009   -1.285631    0.787520
 O    4.888128    0.390446    0.828604
 H   -3.225257    3.005690    0.340539
 H   -1.089756    0.540030    1.500011
 H   -3.542126   -0.130198    1.235497
 H   -4.110847   -1.887451   -0.423824
 H   -2.500326   -2.332503   -2.225486
 H   -0.136572   -1.598911   -2.006033
 H   -1.665525   -2.188539    1.522826
 H    1.607833    0.283056   -2.268905
 H    1.961162   -1.200662   -1.379806
 H    3.250807    1.505652   -0.724423
 H    4.005795    0.268557   -1.727346
 H    5.173115   -0.122468    1.601689
