38 
4myh_ligand_xtb.xyz
 N   -1.705219    0.997910   -0.276646
 C   -2.650836    0.091644   -0.956719
 C   -4.007356    0.092010   -0.235334
 O   -4.850834   -0.733588   -0.406064
 O   -4.119336    1.141071    0.577176
 C   -2.093423   -1.332568   -1.080491
 C   -1.863964   -2.051457    0.260337
 C   -0.686258   -1.436713    0.980928
 O   -0.804103   -0.430261    1.678773
 N    0.509420   -2.001021    0.767592
 C    1.697416   -1.216207    1.027301
 C    1.632268    0.032202    0.116920
 O    0.812739    0.115708   -0.782868
 C    2.947788   -2.040766    0.755602
 S    2.989355   -2.496782   -1.032258
 N    2.525398    0.988425    0.387185
 C    2.598255    2.203542   -0.394072
 C    1.456838    3.173594   -0.093946
 O    1.881873    4.420878   -0.099175
 O    0.313355    2.843841    0.090867
 H   -0.754623    0.954863   -0.705968
 H   -2.025189    1.967956   -0.246082
 H   -1.540685    0.655112    0.715819
 H   -2.839587    0.467926   -1.970338
 H   -4.981598    1.153939    1.024125
 H   -2.819488   -1.909826   -1.653687
 H   -1.158227   -1.293711   -1.641395
 H   -2.754895   -1.969151    0.883755
 H   -1.678256   -3.106408    0.064473
 H    0.602611   -2.740875    0.084972
 H    1.673654   -0.888294    2.073770
 H    2.927344   -2.956541    1.345340
 H    3.847905   -1.473067    0.988458
 H    3.967280   -3.388762   -0.920328
 H    3.113026    0.919232    1.202785
 H    3.550863    2.703291   -0.227135
 H    2.509491    1.937832   -1.455160
 H    1.169570    5.064901    0.052993
