123 
4mzh_ligand_dft.xyz
 N   -3.973868    1.707911   -0.015213
 C   -3.420420    1.611255   -1.402385
 C   -2.155341    2.488967   -1.428266
 O   -2.191370    3.654224   -1.805850
 C   -4.449151    2.087684   -2.410704
 N   -1.058969    1.891695   -0.926535
 C    0.152002    2.635392   -0.681330
 C    1.342230    1.800368   -1.158543
 O    1.193718    0.798881   -1.857364
 C    0.273507    3.120773    0.794113
 C    0.393029    4.643363    0.942275
 C   -0.938041    5.385216    0.759143
 N   -1.857458    5.096718    1.846319
 C   -3.087035    4.511903    1.737435
 N   -3.615653    4.040608    2.916294
 N   -3.762199    4.308178    0.648347
 N    2.563393    2.231403   -0.768848
 C    3.783375    1.671491   -1.330581
 C    4.031949    0.258232   -0.752798
 O    4.667756    0.091916    0.288033
 C    4.955874    2.596579   -0.983524
 O    4.491409    3.911403   -1.234996
 C    6.191156    2.262003   -1.810298
 N    3.520062   -0.739819   -1.505507
 C    3.391494   -2.133320   -1.080677
 C    4.713016   -2.788404   -0.682149
 C    5.827843   -2.697106   -1.731805
 C    7.207180   -2.706225   -1.052656
 C    7.473619   -1.322897   -0.447121
 N    8.139146   -1.286044    0.916094
 C    2.359629   -2.298172    0.062141
 O    2.579799   -3.023265    1.019141
 C    8.380988    0.153027    1.255718
 C    9.439571   -2.022237    0.899589
 C    7.228397   -1.862664    1.957957
 N    1.188809   -1.634098   -0.109568
 C    0.142829   -1.712062    0.891078
 C   -1.190913   -1.704121    0.126354
 O   -1.369562   -0.995491   -0.863429
 C    0.319684   -0.592560    1.933027
 C   -0.676548   -0.620948    3.095042
 C   -2.058329   -0.218719    2.612596
 O   -2.158167    0.715249    1.810451
 N   -3.115196   -0.909107    3.067123
 N   -2.122932   -2.574418    0.553201
 C   -3.312470   -2.893256   -0.199511
 C   -4.365157   -1.782284   -0.287664
 O   -4.602866   -0.968061    0.597815
 C   -3.960706   -4.145620    0.435577
 O   -3.969321   -3.890150    1.835369
 C   -3.193944   -5.420407    0.101445
 N   -5.079026   -1.813295   -1.442604
 C   -6.400119   -1.224523   -1.527294
 C   -7.383506   -2.048075   -0.689955
 O   -7.139105   -3.125192   -0.203195
 C   -6.858379   -1.125259   -2.982766
 O   -8.557032   -1.423737   -0.584092
 H   -4.104135    2.744566    0.273211
 H   -4.838029    1.169453    0.063838
 H   -3.327564    1.284193    0.685251
 H   -3.150559    0.563495   -1.562540
 H   -5.367473    1.495691   -2.340235
 H   -4.687605    3.141320   -2.249188
 H   -4.052364    1.983819   -3.423317
 H   -1.057907    0.881819   -0.787405
 H    0.109502    3.510967   -1.343053
 H    1.133094    2.640401    1.274391
 H   -0.610425    2.765510    1.333946
 H    1.115216    5.046718    0.219006
 H    0.796070    4.878413    1.935347
 H   -0.759771    6.464603    0.703811
 H   -1.398422    5.085761   -0.185487
 H   -1.567286    5.401974    2.763308
 H   -3.171660    4.276720    3.789987
 H   -4.623856    4.021331    2.946956
 H   -3.344156    4.745441   -0.166568
 H    2.662746    3.172923   -0.408255
 H    3.679468    1.611949   -2.421954
 H    5.172164    2.465552    0.085605
 H    5.183590    4.538819   -0.994242
 H    5.992106    2.418930   -2.874494
 H    7.031389    2.902906   -1.522668
 H    6.495873    1.221255   -1.658267
 H    2.865584   -0.425798   -2.213736
 H    2.983314   -2.657190   -1.953124
 H    5.024923   -2.332921    0.258883
 H    4.503762   -3.835675   -0.449652
 H    5.728281   -1.782104   -2.329524
 H    5.761281   -3.531800   -2.435897
 H    7.996116   -2.959913   -1.765985
 H    7.210819   -3.495549   -0.292796
 H    8.117861   -0.733812   -1.105730
 H    6.537504   -0.778745   -0.302279
 H    8.822084    0.217204    2.251431
 H    7.423070    0.675616    1.230737
 H    9.064399    0.580956    0.520901
 H    9.255576   -3.074912    0.686514
 H    9.917479   -1.921238    1.875181
 H   10.078435   -1.593620    0.125786
 H    7.710548   -1.767097    2.931877
 H    6.288165   -1.308932    1.939928
 H    7.044541   -2.914521    1.744214
 H    1.053210   -0.966093   -0.864228
 H    0.264328   -2.675713    1.396084
 H    1.335616   -0.702213    2.323462
 H    0.253347    0.377862    1.433372
 H   -0.687236   -1.601950    3.584169
 H   -0.361230    0.106944    3.850448
 H   -3.958405   -0.868711    2.500864
 H   -2.979083   -1.758265    3.593838
 H   -1.995610   -3.089018    1.413515
 H   -3.007854   -3.137934   -1.224423
 H   -4.988459   -4.215365    0.059871
 H   -4.500663   -4.573072    2.262417
 H   -2.148200   -5.353463    0.418103
 H   -3.648943   -6.277318    0.607771
 H   -3.220564   -5.620678   -0.974314
 H   -4.899243   -2.573400   -2.084739
 H   -6.364711   -0.224531   -1.088203
 H   -6.939822   -2.117799   -3.438810
 H   -6.143854   -0.533435   -3.561004
 H   -7.837592   -0.646431   -3.037599
 H   -9.157489   -1.992621   -0.073847
