47 
4n00_ligand_dft.xyz
 C   -3.528643   -0.786794   -0.087410
 C   -4.480447   -1.611339   -0.686521
 C   -5.813511   -1.215966   -0.757465
 C   -6.160412    0.015571   -0.223240
 N   -5.272948    0.831737    0.356323
 C   -4.029919    0.426481    0.408357
 C   -2.106474   -1.184629    0.026038
 C   -1.761331   -2.505508    0.342332
 C   -0.436761   -2.893080    0.434638
 C    0.585981   -1.966342    0.218235
 C    0.266094   -0.643449   -0.112855
 C   -1.075496   -0.275548   -0.200308
 O    1.852463   -2.430059    0.322950
 C    2.891819   -1.454308    0.399794
 C    2.689101   -0.346377   -0.628961
 C    1.364582    0.382638   -0.370108
 C    4.214301   -2.161175    0.154860
 C    5.340395   -1.130159    0.082130
 O    5.089053   -0.158204   -0.912272
 C    3.914681    0.572156   -0.642005
 N    1.041646    1.313932   -1.439801
 C    0.588767    2.524799   -0.949786
 N    0.927064    2.543013    0.414879
 C    1.429432    1.339105    0.839493
 O    1.823509    1.084528    1.956970
 N   -0.003475    3.402311   -1.650345
 C    0.713307    3.675327    1.285123
 F   -3.178520    1.271984    1.003370
 H   -4.165928   -2.558960   -1.114279
 H   -6.561053   -1.846597   -1.225473
 H   -7.185407    0.375359   -0.256942
 H   -2.541625   -3.233775    0.544621
 H   -0.164200   -3.911286    0.690465
 H   -1.322893    0.748379   -0.461431
 H    2.872316   -1.013103    1.405143
 H    2.612107   -0.816711   -1.618874
 H    4.408974   -2.888665    0.949841
 H    4.154679   -2.703818   -0.795286
 H    6.286220   -1.606854   -0.184638
 H    5.468041   -0.640419    1.062219
 H    4.006883    1.089827    0.327280
 H    3.816138    1.322845   -1.429061
 H    0.572488    0.972351   -2.266754
 H   -0.245314    4.224777   -1.103000
 H    1.210991    4.563062    0.883970
 H   -0.356571    3.875111    1.403019
 H    1.141837    3.425131    2.256247
