27 
4n1t_ligand_xtb.xyz
 C    1.809067   -0.891791   -0.129277
 N    2.404110    2.933416    0.955672
 C    2.216658    1.636054    0.622767
 N    0.970798    1.172668    0.706140
 C    0.777342   -0.086265    0.322981
 C   -0.599471   -0.613710    0.407926
 C   -0.826233   -1.852856    0.998903
 C   -2.103907   -2.370346    1.099224
 C   -3.181595   -1.658822    0.602751
 C   -2.970752   -0.426113    0.006328
Cl   -4.314887    0.451343   -0.619404
 C   -1.686744    0.104046   -0.091614
Cl   -1.453960    1.619089   -0.866448
 C    3.086652   -0.309041   -0.169498
 N    4.198602   -0.980311   -0.550644
 C    4.191837   -2.278120   -1.171652
 N    3.283021    0.955368    0.209421
 H    1.628358   -1.900381   -0.456084
 H    1.647048    3.410423    1.410261
 H    3.344736    3.264419    1.067108
 H    0.014209   -2.400756    1.397484
 H   -2.265059   -3.329727    1.566180
 H   -4.184412   -2.048910    0.671873
 H    5.020026   -0.405203   -0.646764
 H    3.706712   -3.005643   -0.517888
 H    3.667496   -2.271551   -2.133989
 H    5.218436   -2.596219   -1.335852
