29 
4n1u_ligand_dft.xyz
 C   -1.265037   -0.008345    0.406554
 C   -3.921984   -3.210541    0.336782
 N   -2.593120    3.553266   -0.947909
 C   -2.144763    2.332299   -0.526322
 N   -0.817209    2.203536   -0.393323
 C   -0.401210    1.015197    0.065252
 C    1.073095    0.896513    0.273405
 C    1.707356    1.949131    0.937725
 C    3.066000    1.914460    1.212227
 C    3.826065    0.823641    0.812407
 C    3.220129   -0.221998    0.125555
Cl    4.217479   -1.554425   -0.386112
 C    1.847870   -0.192348   -0.150542
Cl    1.145380   -1.486800   -1.084302
 C   -2.636752    0.237788    0.197142
 N   -3.583894   -0.700841    0.450228
 C   -3.313821   -2.008245    0.983535
 C   -2.657597   -3.050565    0.125184
 N   -3.078886    1.411029   -0.272434
 H   -0.909817   -0.945664    0.809694
 H   -4.835408   -3.765852    0.194034
 H   -1.910049    4.146639   -1.391396
 H   -3.535775    3.586066   -1.302126
 H    1.101998    2.799600    1.230786
 H    3.538711    2.737406    1.738147
 H    4.889679    0.775410    1.017242
 H   -4.537863   -0.399414    0.314857
 H   -3.126886   -2.005392    2.060840
 H   -1.727531   -3.358822   -0.324401
