51 
4n1z_ligand_dft.xyz
 C    7.124531   -2.433023   -1.587404
 O   -1.425723   -2.191607    1.483544
 O   -3.233250    1.696902   -0.001054
 O   -3.316259   -2.146597   -1.056654
 O   -2.620382    0.048813    2.040698
 O   -3.990660   -2.116030    1.593180
 O   -3.519099    0.856678   -2.417912
 O   -5.153112    0.039930   -0.521814
 C   -0.507440    1.519152   -1.490119
 C    0.209440    2.401908   -0.751000
 C    0.085102    0.526443    0.390642
 C    7.683212   -1.674633   -0.383046
 C    7.042942   -0.301273   -0.157134
 C    5.547387   -0.353336    0.160965
 C    4.962680    1.023048    0.477712
 C    3.464898    0.977627    0.782900
 C    2.881299    2.358348    1.080898
 C    1.408406    2.330451    1.482626
 C   -1.302732   -0.857906   -1.146420
 N   -0.571252    0.347626   -0.760727
 N    0.562465    1.764192    0.419960
 C   -2.721028   -0.973637   -0.533745
 P   -2.707911   -1.232016    1.295671
 P   -3.704125    0.543964   -0.986960
 H    6.070408   -2.698477   -1.449931
 H    7.202418   -1.830966   -2.500454
 H    7.676230   -3.363252   -1.753752
 H   -1.493162   -2.797461    2.237474
 H   -3.154032    1.379616    0.932045
 H   -3.677429   -1.974027   -1.939816
 H   -4.294013   -2.575903    0.788129
 H   -5.884961    0.592473   -0.836990
 H   -1.022770    1.624949   -2.432685
 H    0.486335    3.425276   -0.948089
 H    0.207069   -0.216787    1.163832
 H    8.762418   -1.536703   -0.516514
 H    7.562161   -2.283433    0.522887
 H    7.199996    0.323141   -1.047990
 H    7.563079    0.202756    0.668092
 H    5.381462   -1.025672    1.015147
 H    5.000455   -0.787782   -0.686604
 H    5.139152    1.698396   -0.370721
 H    5.493865    1.458736    1.334434
 H    3.289255    0.313097    1.641574
 H    2.943330    0.528577   -0.074799
 H    3.013151    3.019398    0.214996
 H    3.426351    2.824086    1.910056
 H    1.024495    3.330736    1.695737
 H    1.250842    1.714828    2.371942
 H   -0.718603   -1.737491   -0.871940
 H   -1.409752   -0.833779   -2.232498
