56 
4n3r_ligand_xtb.xyz
 C    5.323474    0.715488   -0.468438
 C    6.474607   -0.077996   -0.354317
 C    7.686914    0.167223   -1.038013
 N    8.738730   -0.585066   -0.903892
 C    8.634333   -1.646068   -0.060499
 N    9.753218   -2.382256    0.084629
 N    7.564885   -1.992180    0.625001
 C    6.472853   -1.221266    0.492282
 C    5.290627   -1.535835    1.196180
 C    4.182664   -0.751015    1.059464
 C    4.181162    0.393169    0.228060
 C    2.972273    1.221188    0.116267
 C    1.712543    0.638218    0.055101
 C    3.065024    2.611788    0.060924
 C    1.927579    3.385148   -0.056145
 C    0.687961    2.775325   -0.110011
 F   -0.393073    3.587863   -0.235885
 C    0.545719    1.392046   -0.050902
 C   -0.734437    0.613541   -0.140939
 O   -0.715631   -0.558624   -0.460961
 N   -1.860094    1.303251    0.183944
 C   -3.184348    0.859045    0.171797
 C   -3.545555   -0.445044   -0.137925
 C   -4.179311    1.781880    0.488017
 C   -5.508617    1.404992    0.481415
 C   -5.890089    0.107826    0.176275
 C   -4.884346   -0.814207   -0.131838
 N   -5.221127   -2.121599   -0.459739
 C   -6.428778   -2.702426   -0.220845
 O   -6.658991   -3.845474   -0.547129
 C   -7.401835   -1.814452    0.520437
 C   -7.331642   -0.345646    0.083416
 C   -7.782507   -0.220271   -1.379274
 C   -8.265704    0.475638    0.975198
 H    5.344686    1.568146   -1.132749
 H    7.779751    1.010546   -1.713481
 H   10.534765   -2.191415   -0.514812
 H    9.706542   -3.234208    0.612299
 H    5.294850   -2.402869    1.837393
 H    3.285308   -0.988408    1.611802
 H    1.602980   -0.436030    0.062770
 H    4.030169    3.090443    0.123470
 H    1.982995    4.461361   -0.106641
 H   -1.768138    2.276842    0.434088
 H   -2.787853   -1.168993   -0.386857
 H   -3.910113    2.800198    0.728518
 H   -6.256844    2.144668    0.715953
 H   -4.497415   -2.707427   -0.856577
 H   -7.153892   -1.890309    1.584124
 H   -8.406459   -2.214944    0.380504
 H   -7.695283    0.811313   -1.713386
 H   -7.169731   -0.843549   -2.026476
 H   -8.818967   -0.534001   -1.481853
 H   -7.886853    0.519624    1.993922
 H   -8.376485    1.488759    0.598049
 H   -9.252067    0.017484    0.993911
