34 
4n7e_ligand_xtb.xyz
 C   -2.161999   -1.486921   -0.648946
 C   -2.821732    0.636398    0.269876
 C   -1.340633    2.539133    0.654766
 C   -4.546709   -1.172580   -0.010829
 O    1.194655    1.738432   -1.111429
 C    0.899655    0.693519   -0.547031
 N    1.796451   -0.199924   -0.083906
 C    3.195273   -0.148325   -0.119374
 C    3.927817    0.893236   -0.673382
 C    5.309445    0.787725   -0.622529
 C    5.891050   -0.324010   -0.040150
 C    5.066598   -1.317616    0.485704
 C    5.630840   -2.546742    1.122425
 N    3.746961   -1.218190    0.440983
 C   -0.526055    0.270656   -0.355119
 C   -0.864425   -1.027445   -0.742368
 C   -3.142103   -0.646208   -0.134117
 C   -1.520640    1.121174    0.142375
 O   -2.006542    2.915044    1.582647
 O   -0.497338    3.337955    0.031858
 F   -4.968051   -1.742913   -1.153868
 F   -5.442080   -0.234285    0.303810
 F   -4.637207   -2.127710    0.933678
 H   -2.416832   -2.485831   -0.967711
 H   -3.572275    1.288726    0.690779
 H    1.461920   -1.029819    0.391672
 H    3.439898    1.742140   -1.118559
 H    5.923046    1.573438   -1.036957
 H    6.963464   -0.427912    0.011480
 H    6.179091   -3.131866    0.385760
 H    6.321126   -2.277238    1.919197
 H    4.826848   -3.151750    1.530073
 H   -0.103593   -1.676385   -1.150361
 H    0.094970    2.884058   -0.619906
