31 
4n7m_ligand_dft.xyz
 O   -1.393797    2.796007   -0.109758
 C   -1.114803    1.626541   -0.076591
 C   -2.043185    0.492303   -0.024028
 C   -3.414703    0.758768    0.034953
 C   -4.314833   -0.292533    0.097301
 N    0.281810    1.290308   -0.073299
 C    0.814587    0.063482   -0.050413
 C   -0.093279   -1.127458   -0.111652
 C   -1.567839   -0.821932   -0.021203
 C   -2.480590   -1.870811    0.042320
 C   -3.844658   -1.606158    0.101849
 N    2.114413   -0.096044    0.006917
 C    2.795231   -1.411496   -0.013617
 C    4.252109   -1.045360   -0.293620
 C    4.412835    0.318133    0.384502
 C    3.083132    1.019012    0.099020
 H   -3.748914    1.790705    0.032262
 H   -5.379951   -0.094381    0.143519
 H    0.873683    2.114145   -0.084741
 H    0.201257   -1.822429    0.683690
 H    0.117478   -1.646359   -1.057455
 H   -2.128125   -2.898563    0.045253
 H   -4.546770   -2.431893    0.152835
 H    2.359041   -2.055287   -0.780035
 H    2.674827   -1.889686    0.964796
 H    4.416730   -0.961817   -1.372353
 H    4.937952   -1.798591    0.097066
 H    5.258439    0.889617   -0.000779
 H    4.547534    0.197873    1.463624
 H    2.789865    1.706691    0.898097
 H    3.099744    1.557125   -0.855967
