31 
4n7m_ligand_xtb.xyz
 O   -1.398560    2.792493   -0.114182
 C   -1.119444    1.628486   -0.079400
 C   -2.031130    0.494754   -0.021479
 C   -3.405382    0.745521    0.045756
 C   -4.296206   -0.304862    0.111135
 N    0.270200    1.288978   -0.081016
 C    0.810232    0.071564   -0.066357
 C   -0.081966   -1.120119   -0.111108
 C   -1.553591   -0.818438   -0.025283
 C   -2.463109   -1.864305    0.040142
 C   -3.822722   -1.610391    0.109567
 N    2.107768   -0.087832   -0.018809
 C    2.774809   -1.383265   -0.054802
 C    4.246156   -1.039716   -0.271453
 C    4.383862    0.303925    0.437163
 C    3.073341    1.003930    0.085782
 H   -3.739864    1.771184    0.046043
 H   -5.355916   -0.113578    0.163547
 H    0.866772    2.111463   -0.092283
 H    0.195294   -1.805748    0.697558
 H    0.109517   -1.663613   -1.045680
 H   -2.106515   -2.883360    0.037708
 H   -4.515662   -2.435395    0.162704
 H    2.372057   -2.008660   -0.852910
 H    2.629635   -1.896302    0.901483
 H    4.457418   -0.931453   -1.335109
 H    4.907118   -1.799026    0.136536
 H    5.249754    0.868550    0.103590
 H    4.458352    0.158856    1.514697
 H    2.773080    1.719024    0.854142
 H    3.152559    1.517589   -0.877777
