52 
4n8d_ligand_xtb.xyz
 C    3.037071    0.001007    0.248757
 C    4.523517   -0.054713   -0.102914
 C    2.446529    1.416204    0.136434
 C    6.588481   -1.328602   -0.144888
 C    6.547626    0.893892   -1.017251
 C    0.189393    0.517902   -0.581521
 C    7.247448   -0.266872   -0.739433
 C   -2.094177    0.101848   -1.154113
 C   -3.472207    0.398175   -0.657642
 C   -4.460084   -0.492724   -0.655105
 C   -5.831754   -0.279238   -0.216542
 C   -6.705517   -1.368362   -0.197279
 C   -6.320415    0.965926    0.182926
 C   -8.017081   -1.222454    0.211156
 C   -7.632552    1.110785    0.589254
 C   -8.486128    0.019130    0.606450
 C    2.276119   -0.907270   -0.736077
 C    2.858409   -0.532864    1.687993
 C    5.244670   -1.222660    0.173898
 C    5.203283    1.001647   -0.699454
 C    0.938086    1.458171    0.367244
 C    0.770105   -0.902562   -0.497628
 N    3.958624   -0.011869    2.548938
 O   -1.160516    0.560967   -0.189587
 H    2.622707    1.780019   -0.875185
 H    2.942791    2.104137    0.827409
 H    7.114252   -2.247149    0.064292
 H    7.046073    1.724194   -1.492030
 H    0.295055    0.883817   -1.617156
 H    8.291417   -0.349065   -0.995010
 H   -1.918231    0.630989   -2.106860
 H   -1.974508   -0.975431   -1.333763
 H   -3.604478    1.404524   -0.292058
 H   -4.254633   -1.493171   -1.019055
 H   -6.346195   -2.340060   -0.506344
 H   -5.672391    1.828365    0.169162
 H   -8.676490   -2.077727    0.219043
 H   -7.995220    2.081953    0.892444
 H   -9.511441    0.137015    0.923108
 H    2.655277   -1.928131   -0.671408
 H    2.478108   -0.549580   -1.747169
 H    2.898194   -1.621910    1.700941
 H    1.900508   -0.218834    2.097359
 H    4.749389   -2.089978    0.587454
 H    4.695449    1.920474   -0.938757
 H    0.579029    2.473823    0.200764
 H    0.657618    1.194388    1.388018
 H    0.297204   -1.531032   -1.252484
 H    0.522141   -1.322033    0.478787
 H    3.959169   -0.432387    3.483254
 H    4.838008   -0.238122    2.029588
 H    3.880029    1.008065    2.634195
