48 
4n8e_ligand_dft.xyz
 C    4.233749   -0.985135   -0.613580
 C   -0.944321    0.005720    0.363214
 C    1.441733   -0.751574    0.983650
 C   -4.656789    0.116511   -0.548679
 C    3.840540    1.374182    0.179070
 C   -0.985298    1.149243    1.398349
 C    5.731694   -0.741107   -0.609617
 C   -2.837082   -1.745738    0.399303
 C   -4.167832   -2.104496    0.186617
 C   -5.089369   -1.180394   -0.286111
 C    5.311705    1.393616    0.572504
 C    6.144320    0.724019   -0.514078
 N    3.399207    0.062694   -0.291122
 C   -2.395273   -0.447488    0.125125
 C    1.971457   -0.219193   -0.353207
 O    3.779764   -2.087536   -0.887141
 C   -3.331516    0.484500   -0.348459
 C   -0.341022    0.561634   -0.953241
 C   -0.035131   -1.138177    0.868325
 C    1.134397    0.962530   -0.843872
Cl   -5.784269    1.301416   -1.136345
 N   -1.771841    0.716002    2.614473
 H    1.608986   -0.009454    1.778704
 H    2.020446   -1.638349    1.255782
 H    3.664057    2.124316   -0.604430
 H    3.226238    1.661568    1.043527
 H   -1.496283    2.032592    1.011150
 H    0.002691    1.442017    1.753944
 H    6.125444   -1.228175   -1.505824
 H    6.131326   -1.304722    0.242755
 H   -2.150258   -2.503277    0.758380
 H   -4.486840   -3.121372    0.390426
 H   -6.124547   -1.455542   -0.453613
 H    5.450604    0.861581    1.522210
 H    5.615744    2.432521    0.732974
 H    5.976380    1.231365   -1.472492
 H    7.213070    0.801843   -0.294876
 H    1.868882   -1.031788   -1.079203
 H   -3.039400    1.500826   -0.595566
 H   -0.930625    1.412825   -1.310183
 H   -0.448836   -0.224771   -1.708948
 H   -0.109948   -1.963067    0.150938
 H   -0.392245   -1.553233    1.823205
 H    1.486508    1.284693   -1.829035
 H    1.243528    1.830045   -0.179037
 H   -1.919638    1.479808    3.279470
 H   -2.687708    0.360240    2.303216
 H   -1.300432   -0.049071    3.106173
