51 
4n8r_ligand_xtb.xyz
 C   47.241022   -6.700371  113.387601
 C   48.690705   -6.917246  113.115022
 C   49.473371   -6.282818  112.209558
 C   50.822761   -6.822387  112.293448
 C   50.836746   -7.836985  113.273988
 C   49.477532   -7.941559  113.811083
 C   48.981599   -8.739757  114.776303
 C   49.623941   -9.877601  115.414237
 C   49.503516  -10.070480  116.789806
 C   50.085996  -11.163141  117.401264
 C   50.778159  -12.115521  116.662760
 C   50.864728  -11.942048  115.285100
 C   50.301827  -10.843342  114.668880
 C   51.411119  -13.303430  117.342748
 C   52.930275  -13.282396  117.157570
 C   50.819189  -14.614568  116.820956
 C   52.028319   -8.447326  113.614278
 C   53.184962   -8.086493  112.934119
 C   53.158301   -7.124796  111.938224
 C   51.976138   -6.472875  111.616929
 C   49.119085   -5.143189  111.311708
 C   49.557728   -3.809334  111.954383
 C   48.904342   -3.643692  113.268843
 N   49.415058   -3.867830  114.454573
 N   48.446683   -3.649786  115.336194
 N   47.371111   -3.304341  114.771641
 N   47.605826   -3.283355  113.452669
 H   46.702216   -7.646862  113.366425
 H   47.102563   -6.256901  114.375157
 H   46.793484   -6.039444  112.648470
 H   47.979713   -8.533634  115.135457
 H   48.970183   -9.341074  117.382392
 H   49.996354  -11.282767  118.472000
 H   51.379090  -12.674864  114.680911
 H   50.361830  -10.734223  113.595843
 H   51.197397  -13.236454  118.415567
 H   53.386712  -14.110938  117.694619
 H   53.192300  -13.369010  116.105901
 H   53.345175  -12.351752  117.538769
 H   51.234734  -15.458124  117.367959
 H   49.738493  -14.618893  116.946296
 H   51.042523  -14.747915  115.765462
 H   52.076547   -9.185285  114.399714
 H   54.119712   -8.564169  113.189193
 H   54.069582   -6.867298  111.417714
 H   51.970666   -5.704179  110.857304
 H   48.043637   -5.122266  111.119045
 H   49.631624   -5.251552  110.354056
 H   50.635671   -3.821320  112.114479
 H   49.296075   -2.974795  111.299094
 H   46.894677   -3.030615  112.785290
