25 
4n98_ligand_dft.xyz
 C    3.583820   -1.061875    0.588186
 C    4.260120    0.003768    0.014173
 C    3.589061    1.066789   -0.570783
 C    2.199677    1.056299   -0.576712
 C    1.481082   -0.000898   -0.007032
 C    2.194499   -1.056195    0.572638
 C   -0.723318    1.166939    0.236066
 C   -0.002401   -0.004721   -0.016961
 C   -0.715412   -1.179725   -0.287478
 C   -2.101680   -1.185239   -0.298323
 C   -2.814574   -0.017176   -0.022439
 C   -2.112119    1.162399    0.233967
 F    5.600564    0.006234    0.024609
 C   -4.311281   -0.087391   -0.054746
 O   -4.919022   -0.927150   -0.665837
 O   -4.977052    0.853707    0.651195
 H    4.143378   -1.871381    1.043495
 H    4.152844    1.877298   -1.019054
 H    1.665983    1.872427   -1.054955
 H    1.655977   -1.875551    1.039784
 H   -0.191197    2.088420    0.452991
 H   -0.174016   -2.092328   -0.518826
 H   -2.654056   -2.090074   -0.528769
 H   -2.635703    2.100722    0.403031
 H   -4.364535    1.344056    1.214611
