82 
4na7_ligand_xtb.xyz
 C   -4.145225    0.299348    4.040397
 C   -3.824201    1.643575    4.053086
 C   -3.895080   -0.447275    2.900301
 C    2.791728   -3.640625   -1.119652
 C    2.626964   -5.008266   -1.035855
 C   -4.628445    0.922550   -2.906599
 C   -3.255172    2.241835    2.939749
 C   -3.330764    0.151767    1.790740
 C   -3.257122    0.815180   -2.930716
 C    0.958409   -0.559429   -0.750934
 C    3.329103   -0.686047   -0.429494
 C    0.820205   -4.704039    0.512391
 C   -4.514555    1.748743   -0.665158
 C    2.258150    1.455898   -0.685129
 C    1.976880   -2.778129   -0.392475
 C    2.099348   -1.320701   -0.532693
 C    1.623661   -5.553000   -0.237819
 C   -5.282581    1.390310   -1.768452
 C    0.998516   -3.327385    0.449556
 C   -3.001806    1.506397    1.791703
 C    1.031730    0.823591   -0.800296
 C   -3.134911    1.648821   -0.671831
 C   -2.486372    1.179164   -1.821420
 C    3.415130    0.701425   -0.512467
 C   -6.757462    1.514767   -1.744881
 C    1.491100   -7.040837   -0.199259
 C    0.198217   -2.464159    1.357961
 C    5.038287    2.597865   -0.494392
 C   -0.920417    1.508926    0.504341
 C   -0.254680    1.608568   -0.872543
 C   -2.346440    2.085195    0.548227
 C   -2.295522    3.617922    0.549160
 C    6.328832    4.613676    1.453177
 C    8.367818    4.493313   -0.005641
 C    6.528799    2.806800   -0.276438
 C    6.861378    4.262300    0.066680
 N   -7.508752    1.802095   -2.732185
 N   -1.127852    1.018670   -1.859380
 N   -7.342347    1.355960   -0.515435
 N    0.250111   -7.505284    0.086174
 N    4.679187    1.282594   -0.383697
 O    2.426619   -7.783187   -0.408557
 O    0.619405   -1.528519    1.986775
 O    4.270225    3.492314   -0.762410
 O   -1.079943   -2.868294    1.450261
 H   -4.587963   -0.165121    4.909017
 H   -4.016126    2.235716    4.935964
 H   -4.149586   -1.498363    2.876234
 H    3.548650   -3.225096   -1.768116
 H    3.262769   -5.681256   -1.591205
 H   -5.204026    0.626638   -3.772505
 H   -3.015362    3.292046    2.981511
 H   -3.155714   -0.433414    0.897686
 H   -2.756235    0.446157   -3.815210
 H    0.002287   -1.047608   -0.872568
 H    4.218636   -1.272250   -0.245071
 H    0.075676   -5.097263    1.188422
 H   -5.004003    2.133373    0.218291
 H    2.324481    2.530228   -0.718980
 H   -0.294976    2.017596    1.239398
 H   -0.950406    0.454463    0.780812
 H   -0.035588    2.662024   -1.110135
 H   -1.908541    3.971405   -0.404065
 H   -1.645978    3.989348    1.338887
 H   -3.292460    4.032764    0.678483
 H    5.251579    4.475645    1.489661
 H    6.548441    5.651472    1.690935
 H    6.788989    3.982816    2.212091
 H    8.885540    3.855521    0.708622
 H    8.602482    5.528378    0.229675
 H    8.748080    4.275216   -1.001367
 H    6.886815    2.146418    0.516939
 H    7.034015    2.525352   -1.205484
 H    6.362570    4.901046   -0.668431
 H   -7.006459    1.996857   -3.592263
 H   -0.720090    0.861394   -2.768281
 H   -8.348685    1.316129   -0.535683
 H   -6.883341    0.761940    0.153953
 H   -0.550066   -6.902083    0.141399
 H    0.105109   -8.501294    0.084336
 H    5.420268    0.623736   -0.187328
 H   -1.564644   -2.294945    2.067533
