21 
4nak_ligand_xtb.xyz
 C   23.102741   49.919388   26.915800
 C   24.727521   48.927947   28.392516
 C   25.154033   48.513247   29.724018
 C   25.542551   48.674964   27.290494
 C   25.129438   49.044499   26.025163
 C   23.496032   49.575510   28.210166
 O   22.661617   49.890225   29.226469
 C   23.903857   49.658991   25.821138
 C   24.988954   47.601442   31.760271
 C   26.284577   48.045293   31.628658
 C   26.388641   48.615059   30.337960
 N   24.308051   47.905428   30.620645
Br   26.249612   48.687082   24.535220
Br   21.426237   50.772138   26.690271
Br   27.936995   49.423694   29.651371
Br   27.647412   47.920375   32.908721
Br   24.152490   46.748962   33.199646
 H   23.580098   49.938401   24.831283
 H   26.487573   48.175164   27.426682
 H   23.365500   47.602579   30.422778
 H   23.118067   49.871612   30.076732
