21 
4nak_ligand_dft.xyz
 C   23.095941   49.945846   26.926894
 C   24.735632   48.933965   28.384299
 C   25.173061   48.532335   29.727326
 C   25.526436   48.641840   27.271036
 C   25.096810   49.002035   26.004512
 C   23.516107   49.612773   28.216839
 O   22.720186   49.946337   29.259501
 C   23.877575   49.643185   25.821300
 C   24.993224   47.570898   31.753771
 C   26.267948   48.066085   31.658638
 C   26.378519   48.670884   30.379906
 N   24.328634   47.870277   30.599803
Br   26.171287   48.600461   24.500713
Br   21.452289   50.835438   26.687541
Br   27.892412   49.534667   29.727794
Br   27.581045   47.979097   32.965893
Br   24.175034   46.664112   33.146454
 H   23.538180   49.914027   24.828729
 H   26.471920   48.129711   27.406351
 H   23.421778   47.501313   30.351859
 H   23.237980   49.916714   30.076842
