51 
4nat_ligand_xtb.xyz
 C   -1.417551   -3.506897   -0.088751
 C   -0.831873   -1.496391   -1.128023
 C    0.711249    2.550217   -2.954948
 C    1.223289   -0.646570   -0.674339
 C    2.555781   -0.847236   -0.013928
 C    3.473030   -1.570321   -1.012282
 C    4.829834   -1.861148   -0.381959
 C    5.486808   -0.567031    0.085585
 C    4.581569    0.162920    1.070324
 C    2.296813    1.114792    1.467694
 C    0.280586    2.485064    1.654751
 C   -0.915097    0.362915    2.249024
 C   -1.882522    1.775857    0.573069
 O   -1.754672   -2.439551   -0.957444
 C   -1.114189   -0.425679   -1.971986
 C   -0.117785    0.535067   -2.077732
 O   -0.335481    1.603344   -2.853106
 N    1.043753    0.427895   -1.432437
 N    0.332258   -1.602875   -0.489835
 C    3.218616    0.461388    0.447392
 O    2.335344    0.878115    2.656873
 N    1.429613    1.999296    0.913197
 C   -0.880778    1.535566    1.501882
 C   -1.944513   -0.543469    2.086700
 C   -2.952757   -0.295370    1.166582
Cl   -4.238736   -1.421568    0.974372
 C   -2.916046    0.867662    0.404901
Cl   -4.148694    1.188186   -0.754239
 H   -2.323246   -4.099272    0.019548
 H   -1.088463   -3.123782    0.878359
 H   -0.615755   -4.111063   -0.518484
 H    0.426197    3.224157   -3.760114
 H    1.658331    2.059439   -3.186695
 H    0.820303    3.112610   -2.023380
 H    2.398276   -1.497397    0.851403
 H    2.993985   -2.499724   -1.326077
 H    3.601147   -0.939107   -1.894769
 H    4.696474   -2.529327    0.471051
 H    5.469921   -2.365822   -1.108469
 H    5.678864    0.074729   -0.777741
 H    6.445561   -0.785866    0.559097
 H    4.429709   -0.444448    1.963969
 H    5.044706    1.100636    1.383857
 H    0.022048    3.482169    1.290758
 H    0.585500    2.542180    2.702376
 H   -0.126208    0.165300    2.958227
 H   -1.874026    2.674205   -0.025588
 H   -2.046697   -0.340965   -2.497565
 H    3.335840    1.119254   -0.417724
 H    1.326566    1.940943   -0.093274
 H   -1.980389   -1.444848    2.678175
