43 
4nb6_ligand_xtb.xyz
 O   -4.384609    0.737077    1.273492
 S   -2.954808    0.771487    1.300166
 O   -2.278977    0.780986    2.554285
 C   -2.333488    2.078412    0.251450
 C   -3.124384    2.533596   -0.785057
 C   -2.599051    3.456292   -1.675328
 C   -1.291222    3.892075   -1.525995
 C   -0.508822    3.427581   -0.479717
 C   -1.033454    2.514637    0.420549
 N   -2.436859   -0.598456    0.410465
 C   -3.381178   -1.108212   -0.542390
 C   -3.290894   -2.629694   -0.623506
 F   -2.155316   -3.049106   -1.200113
 F   -3.360035   -3.216386    0.569701
 F   -4.292468   -3.125511   -1.366997
 C   -1.058043   -0.608182    0.142338
 C   -0.529907   -0.476956   -1.138803
 C    0.836263   -0.396919   -1.322320
 C   -0.189811   -0.698081    1.228489
 C    1.175924   -0.609823    1.046599
 C    1.694376   -0.445231   -0.233590
 C    3.189132   -0.275358   -0.457813
 C    3.637644    1.073221    0.168013
 F    4.922545    1.329577   -0.118004
 F    2.922546    2.079537   -0.345602
 F    3.506559    1.139695    1.490475
 O    3.475577   -0.236417   -1.820741
 C    3.987728   -1.443181    0.179366
 F    3.474664   -2.619070   -0.176325
 F    5.257790   -1.425086   -0.258772
 F    4.039886   -1.415750    1.509793
 H   -4.137825    2.173667   -0.868143
 H   -3.206843    3.829684   -2.485142
 H   -0.880682    4.602634   -2.227196
 H    0.508679    3.767449   -0.367484
 H   -0.457880    2.143619    1.252745
 H   -3.264997   -0.710809   -1.559713
 H   -4.373268   -0.849574   -0.160964
 H   -1.170988   -0.425323   -2.003827
 H    1.245023   -0.284240   -2.312406
 H   -0.602244   -0.810561    2.216697
 H    1.820249   -0.668493    1.909045
 H    4.429368   -0.161993   -1.976955
