43 
4nb6_ligand_dft.xyz
 O   -4.527040    0.293845    0.859263
 S   -3.100500    0.519849    1.018782
 O   -2.462866    0.510576    2.320852
 C   -2.665499    2.047871    0.214880
 C   -3.501461    2.550833   -0.778365
 C   -3.116274    3.698909   -1.462225
 C   -1.908152    4.322152   -1.155903
 C   -1.083270    3.808568   -0.158175
 C   -1.459871    2.665275    0.538164
 N   -2.340801   -0.645701    0.070401
 C   -3.115069   -1.451784   -0.847284
 C   -3.139857   -2.906301   -0.404310
 F   -1.905725   -3.434574   -0.377043
 F   -3.668457   -3.044097    0.814082
 F   -3.874840   -3.628571   -1.266802
 C   -0.921512   -0.552130   -0.069720
 C   -0.367162   -0.021035   -1.232639
 C    1.008565    0.118587   -1.348641
 C   -0.094893   -0.940532    0.980132
 C    1.280382   -0.781371    0.872179
 C    1.839438   -0.253260   -0.293329
 C    3.340380   -0.034927   -0.420908
 C    3.800546    1.075221    0.560879
 F    5.096489    1.370904    0.350054
 F    3.093830    2.186627    0.349772
 F    3.666143    0.732493    1.844369
 O    3.625877    0.406262   -1.717912
 C    4.126084   -1.354260   -0.198078
 F    3.632458   -2.318924   -0.970767
 F    5.416892   -1.177713   -0.539561
 F    4.102571   -1.776322    1.070410
 H   -4.443581    2.057539   -0.993630
 H   -3.762306    4.109575   -2.231666
 H   -1.610660    5.216262   -1.695186
 H   -0.143938    4.296805    0.080427
 H   -0.832184    2.253855    1.321138
 H   -2.700575   -1.412978   -1.859491
 H   -4.145354   -1.094486   -0.868670
 H   -1.016258    0.310111   -2.038036
 H    1.439613    0.537232   -2.248879
 H   -0.539134   -1.347801    1.880443
 H    1.909320   -1.077441    1.702272
 H    4.582407    0.528868   -1.790220
