61 
4ngm_ligand_xtb.xyz
 C    2.210450   -2.211212   -0.089173
 C    2.440875   -1.544306   -1.456088
 C    3.323724   -2.409001   -2.360320
 C    4.824100   -2.272000   -2.056397
 C    5.067163   -2.453743   -0.579406
 C    2.020237    0.806690   -1.084577
 C   -3.435254   -1.174140    1.096559
 C   -4.901049   -0.562392   -0.681188
 C   -3.836864   -0.070745   -1.416545
 O    0.519765   -1.714969    2.985560
 C   -0.111215   -0.680670    3.198053
 C   -0.098603   -0.060828    4.576434
 N   -0.850059   -0.094645    2.239767
 C   -0.960852   -0.755247    0.941741
 C   -2.351200   -0.680854    0.378255
 C   -2.563045   -0.129929   -0.879351
Br   -6.662337   -0.479117   -1.409028
 C   -4.713840   -1.115061    0.574743
 C   -1.402233    1.241366    2.318047
 C   -0.632133    2.244389    1.449128
 C    0.821112    2.404224    1.890201
 C    1.562933    3.491408    1.113718
 C    1.774671    3.130372   -0.368248
 C    2.388307    4.321987   -1.084286
 O    3.520147    4.016377   -1.727128
 O    1.928232    5.431086   -1.070040
 N    2.549995    1.931779   -0.529532
 O    0.841486    0.723338   -1.390808
 N    2.930420   -0.193532   -1.295370
 O    2.175311   -3.403665    0.070048
 O    2.008238   -1.313688    0.853808
 O    5.031615   -1.556184    0.227764
 O    5.313545   -3.714068   -0.255103
 H    1.440621   -1.459578   -1.904785
 H    3.016357   -3.445295   -2.209778
 H    3.158330   -2.138468   -3.402921
 H    5.371402   -3.036744   -2.605614
 H    5.171299   -1.281941   -2.353069
 H   -3.275718   -1.608774    2.072743
 H   -4.001988    0.354350   -2.394459
 H   -1.108554    0.085393    4.952010
 H    0.430292   -0.742482    5.237711
 H    0.426028    0.891144    4.569180
 H   -0.691261   -1.804002    1.100462
 H   -0.256013   -0.319079    0.228347
 H   -1.722550    0.248338   -1.442302
 H   -5.555180   -1.497478    1.131965
 H   -1.399416    1.578668    3.352979
 H   -2.441733    1.205156    1.975747
 H   -0.666786    1.913971    0.412281
 H   -1.143466    3.206676    1.514944
 H    0.847905    2.673321    2.949077
 H    1.346244    1.454656    1.768012
 H    2.541781    3.651343    1.572313
 H    1.010701    4.431163    1.156018
 H    0.802124    2.935359   -0.837553
 H    3.869416    4.798878   -2.182885
 H    3.536378    1.976764   -0.334989
 H    3.787331   -0.144375   -0.756214
 H    1.638590   -1.700069    1.695022
 H    5.366745   -3.830652    0.707073
