45 
4ngn_ligand_dft.xyz
 O    4.846404    1.571537    0.696475
 C    5.269811    1.445494   -0.445722
 N    5.181255    0.346956   -1.220847
 C    4.489953   -0.880540   -0.850840
 C    3.095656   -0.980132   -1.478219
 C    2.285660   -2.197932   -1.010605
 C    1.925056   -2.265276    0.481385
 C    1.044294   -1.110386    1.010418
 N   -0.159549   -0.956303    0.237206
 C   -1.388141   -0.935096    0.873805
 O   -1.528890   -1.053748    2.082670
 N   -2.444581   -0.809488    0.006482
 C   -3.715835   -0.308316    0.465913
 C   -4.760393   -0.655356   -0.575732
 O   -4.528550   -0.931958   -1.728441
 O   -6.005944   -0.560634   -0.081943
 C   -3.707418    1.222738    0.705372
 C   -3.153789    2.025864   -0.486869
 C   -1.660667    1.831765   -0.656999
 O   -1.130744    1.312409   -1.623053
 O   -0.989812    2.258540    0.405274
 C    1.832778    0.190856    1.115836
 O    1.519804    1.251054    0.602211
 O    2.953744    0.031455    1.799861
 H    5.804887    2.271636   -0.941659
 H    5.533735    0.425944   -2.163633
 H    5.108745   -1.730066   -1.161567
 H    4.434868   -0.899801    0.237677
 H    2.551902   -0.051008   -1.278915
 H    3.203923   -1.035503   -2.569115
 H    2.836376   -3.113282   -1.264205
 H    1.357773   -2.235727   -1.593168
 H    2.823893   -2.330757    1.101608
 H    1.359544   -3.188196    0.645907
 H    0.729416   -1.361958    2.029146
 H   -0.092685   -0.435485   -0.630817
 H   -2.267177   -0.713201   -0.984594
 H   -3.971027   -0.805246    1.404991
 H   -6.610291   -0.747884   -0.818284
 H   -3.092888    1.416788    1.588623
 H   -4.725968    1.552554    0.933131
 H   -3.336472    3.089819   -0.303355
 H   -3.640551    1.749599   -1.426033
 H   -0.049445    1.964891    0.334802
 H    3.571669    0.777388    1.588687
