64 
4ngq_ligand_xtb.xyz
Br   -6.659635   -1.239193   -1.456439
 C   -4.863123   -1.156162   -0.819916
 C   -4.536663   -1.785510    0.369611
 C   -3.233736   -1.720029    0.826515
 C   -3.912435   -0.469426   -1.554307
 C   -2.613720   -0.406202   -1.081272
 C   -2.262757   -1.027068    0.110711
 C   -0.847710   -0.962061    0.608987
 N   -0.740214   -0.360680    1.937372
 C   -1.491933    0.862127    2.134947
 C   -1.008419    2.034399    1.273933
 C    0.338765    2.594636    1.722726
 C    0.697286    3.893887    1.000138
 C    0.968224    3.696937   -0.507577
 N    2.083436    2.817796   -0.731198
 C    1.927263    1.526026   -1.116731
 O    0.833829    1.023037   -1.310135
 N    3.107736    0.842444   -1.308661
 C    3.054663   -0.595506   -1.125847
 C    2.546151   -0.879301    0.295929
 O    2.480041   -0.010783    1.132626
 O    2.171836   -2.123325    0.481983
 C    4.429426   -1.213266   -1.382703
 C    4.360458   -2.726529   -1.553842
 C    5.734118   -3.342378   -1.605536
 O    6.768360   -2.784125   -1.359147
 O    5.679247   -4.632841   -1.960448
 C    1.269971    5.051935   -1.118701
 O    0.180704    5.813913   -1.220787
 O    2.366081    5.421339   -1.444611
 C    0.061751   -0.944624    2.843829
 O    0.659599   -1.992278    2.594546
 C    0.193523   -0.298109    4.209946
 C    1.183695   -1.064254    5.079331
 H   -5.290040   -2.321653    0.926077
 H   -2.965767   -2.211993    1.750280
 H   -4.184446    0.011107   -2.481383
 H   -1.860719    0.124625   -1.644312
 H   -0.231492   -0.401690   -0.100913
 H   -0.452184   -1.978714    0.690029
 H   -1.461835    1.146623    3.185139
 H   -2.536419    0.653840    1.875155
 H   -0.937906    1.709916    0.237780
 H   -1.766050    2.819446    1.334825
 H    1.118919    1.850159    1.558463
 H    0.299787    2.814917    2.792724
 H   -0.116437    4.613298    1.109896
 H    1.596376    4.318123    1.453307
 H    0.087060    3.265552   -0.990848
 H    2.998237    3.237767   -0.678577
 H    3.925168    1.270226   -0.895837
 H    2.316139   -0.997385   -1.828033
 H    1.691683   -2.213512    1.363095
 H    4.844266   -0.762311   -2.286087
 H    5.101586   -0.976765   -0.554708
 H    3.826821   -3.181170   -0.715790
 H    3.823971   -3.000723   -2.463228
 H    6.568647   -5.020351   -1.971484
 H    0.403590    6.683507   -1.591249
 H   -0.785711   -0.278899    4.695499
 H    0.542520    0.726958    4.079396
 H    1.258763   -0.601652    6.060361
 H    0.864920   -2.096419    5.197536
 H    2.164702   -1.064635    4.612412
