71 
4ngt_ligand_xtb.xyz
 O    0.424247   -3.369075    0.716209
 C    0.546012   -2.305341    0.118539
 N    0.505913   -1.121063    0.743329
 C    0.316655   -1.008306    2.169940
 C    1.650667   -1.019917    2.930106
 O    2.448864    0.100598    2.589442
 C    3.138741    0.092302    1.399694
 C    3.247651    1.334561    0.742480
 N    2.573375    2.413326    1.320424
 C    1.971803    3.426954    0.614695
 O    2.293894    3.747607   -0.520716
 N    0.991455    4.061297    1.303583
 C    0.081070    5.016394    0.708421
 C   -1.372516    4.671015    1.049163
 C   -1.799572    3.281617    0.564149
 C   -2.106298    3.226608   -0.940446
 C   -1.538776    1.951987   -1.615016
 N   -2.014944    0.740200   -1.005030
 C   -3.259411    0.238387   -1.270408
 O   -3.969180    0.654794   -2.162194
 N   -3.575988   -0.841577   -0.490660
 C   -4.939403   -1.309754   -0.470550
 C   -5.858388   -0.190580    0.017315
 O   -5.495183    0.757012    0.658978
 O   -7.128239   -0.400121   -0.328110
 C   -5.090164   -2.520353    0.458517
 C   -4.157412   -3.672642    0.088429
 C   -2.743421   -3.489815    0.608151
 O   -2.402481   -2.593128    1.347251
 O   -1.927740   -4.419769    0.166079
 C   -0.033892    2.036893   -1.483747
 O    0.499983    2.970757   -2.228110
 O    0.595114    1.365950   -0.688227
 C    3.975200    1.431037   -0.433308
 C    4.569187    0.309639   -0.985471
 C    3.747925   -1.024822    0.853952
 C    4.443479   -0.903464   -0.338075
Br    5.234023   -2.461797   -1.094707
 C    0.709218   -2.217150   -1.377508
 H    0.655641   -0.272360    0.209410
 H   -0.289566   -1.856135    2.498407
 H   -0.217015   -0.078346    2.378436
 H    2.170528   -1.962463    2.746134
 H    1.464864   -0.923210    4.002155
 H    2.169014    2.162754    2.214587
 H    0.802762    3.799556    2.258203
 H    0.309386    6.025422    1.072161
 H    0.254151    4.996367   -0.369126
 H   -1.489867    4.718533    2.135027
 H   -2.022970    5.430753    0.615148
 H   -2.683838    2.967701    1.120288
 H   -0.999827    2.577718    0.806242
 H   -3.183513    3.229111   -1.104526
 H   -1.681516    4.089820   -1.453685
 H   -1.835916    1.953620   -2.667897
 H   -1.519598    0.419459   -0.188346
 H   -3.063873   -0.990797    0.368784
 H   -5.241481   -1.564019   -1.493249
 H   -7.690545    0.332010   -0.027642
 H   -6.126558   -2.855067    0.411027
 H   -4.870546   -2.207083    1.482120
 H   -4.530271   -4.607217    0.512936
 H   -4.102804   -3.805073   -0.992764
 H   -0.986734   -4.230428    0.444639
 H    1.400769    3.217526   -1.881105
 H    4.052837    2.384067   -0.927870
 H    5.120675    0.382453   -1.909134
 H    3.678531   -1.989615    1.330691
 H    1.137214   -3.141863   -1.755066
 H    1.338684   -1.375305   -1.652640
 H   -0.272452   -2.078759   -1.829083
