66 
4nie_ligand_dft.xyz
 C   -2.682006    0.516632    2.966003
 C   -4.175870    0.822788    3.104339
 C   -4.792420    1.379038    1.826068
 N   -4.753756    0.371667    0.707118
 C   -5.936727   -0.568353    0.725931
 C   -5.628157   -1.813551   -0.057373
 C   -4.696009   -2.727192    0.445426
 C   -4.358201   -3.858347   -0.288547
 C   -4.959058   -4.088565   -1.524990
 C   -5.896087   -3.189296   -2.024600
 C   -6.227344   -2.051016   -1.294518
 C   -4.523510    1.010042   -0.652194
 C   -3.090526    1.434127   -0.761915
 C   -2.101308    0.458736   -0.928472
 C   -0.762900    0.808005   -0.931649
 C   -0.376692    2.148970   -0.776997
 N    0.990520    2.423819   -0.783074
 C    1.621835    3.629448   -0.556668
 O    1.035493    4.670240   -0.340974
 C    3.152511    3.577719   -0.631329
 C    3.759488    2.213872   -0.416887
 C    3.898082    1.705945    0.879606
 C    4.344814    0.408041    1.088762
 C    4.658042   -0.386644   -0.010937
 C    4.543985    0.099164   -1.308384
 C    4.096251    1.402319   -1.504780
 S    5.172206   -2.082781    0.251989
 O    4.622837   -2.505565    1.538197
 O    4.868032   -2.821494   -0.970809
 C    6.962036   -1.960306    0.413340
 C    7.568341   -3.338622    0.653550
 C   -1.361768    3.134673   -0.632131
 C   -2.701185    2.765834   -0.623661
 H   -2.259614    0.246163    3.936479
 H   -2.134367    1.385094    2.585304
 H   -2.473678   -0.325177    2.292261
 H   -4.724044   -0.063448    3.447195
 H   -4.322444    1.584293    3.876893
 H   -4.224372    2.248455    1.490050
 H   -5.838804    1.668358    1.951887
 H   -3.923814   -0.208533    0.864337
 H   -6.137627   -0.790729    1.776947
 H   -6.786342   -0.013950    0.319646
 H   -4.246303   -2.569362    1.425373
 H   -3.638443   -4.566929    0.107905
 H   -4.701196   -4.975643   -2.094220
 H   -6.370936   -3.371990   -2.982801
 H   -6.961674   -1.351088   -1.685699
 H   -4.781240    0.248742   -1.391498
 H   -5.230022    1.839946   -0.732055
 H   -2.377622   -0.585988   -1.065290
 H   -0.006550    0.038504   -1.061360
 H    1.596905    1.625985   -0.919788
 H    3.508510    4.297799    0.110119
 H    3.428846    3.978928   -1.613365
 H    3.635338    2.329173    1.730298
 H    4.425475   -0.002088    2.090333
 H    4.779660   -0.544919   -2.149520
 H    3.995435    1.789620   -2.515455
 H    7.151381   -1.275864    1.245431
 H    7.325903   -1.505976   -0.512780
 H    8.652301   -3.241591    0.754733
 H    7.354343   -4.008393   -0.182965
 H    7.171676   -3.782019    1.570235
 H   -1.069097    4.169588   -0.524880
 H   -3.454818    3.542905   -0.517139
