47 
4nk3_ligand_dft.xyz
 C    1.249351    3.024435    0.485341
 C   -5.647542    0.049294    0.358442
 C   -4.632969   -0.835629   -1.768657
 C    0.938665   -1.537033    0.271005
 C    1.495772   -1.045662    2.609949
 C    0.394203    0.691251    1.322394
 C    1.581555    1.649673    1.075835
 C   -4.290023   -0.038007    1.045102
 C   -3.276655   -0.928259   -1.080454
 C   -3.142791    0.116037    0.039390
 C   -0.800342    0.803381    0.368705
 C    1.057725    3.044547   -0.992090
 N   -5.739143   -0.974064   -0.749167
 N   -1.862212    0.028517    0.716695
 N    1.826063    2.433010   -1.825486
 N    0.850053   -0.699811    1.419603
 O    3.459733   -2.144150   -1.889663
 O    1.522631   -0.310378    3.562704
 O   -0.842607    1.555187   -0.599347
 O    3.705446    0.273829   -1.349726
 O    3.772240   -1.443159    0.480915
 O    1.689706   -0.936485   -0.817560
 S    3.288935   -0.999027   -0.798855
 H    2.086703    3.708138    0.687806
 H    0.370676    3.473254    0.953101
 H   -5.802523    1.022913   -0.113685
 H   -6.470044   -0.141088    1.050301
 H   -4.781189    0.136215   -2.247049
 H   -4.775095   -1.619562   -2.514906
 H   -0.034196   -1.693719   -0.197041
 H    1.373013   -2.497603    0.553799
 H    1.945597   -2.049656    2.589802
 H    0.001815    0.930315    2.318636
 H    2.333779    1.161134    0.459907
 H    2.057060    1.797357    2.047898
 H   -4.206125   -0.997478    1.574380
 H   -4.247750    0.749095    1.803342
 H   -3.128798   -1.936977   -0.672246
 H   -2.502736   -0.767649   -1.836450
 H   -3.185509    1.114070   -0.410754
 H    0.311320    3.705225   -1.422204
 H   -5.711841   -1.916373   -0.344176
 H   -6.649798   -0.895731   -1.214222
 H   -1.776153   -0.561123    1.534866
 H    2.564035    1.772309   -1.548380
 H    1.688341    2.539458   -2.825136
 H    4.374262   -2.484585   -1.885780
