57 
4nk9_ligand_xtb.xyz
 C   92.125639    1.810978   18.998245
 O   91.364890    1.475584   17.865848
 C   90.771049    2.477631   17.151353
 C   90.029107    2.070671   16.047461
 C   90.870031    3.828481   17.464741
 C   90.219974    4.764812   16.666346
 O   90.250108    6.110386   16.889012
 C   90.974572    6.601458   17.987374
 C   89.479467    4.351750   15.562885
 C   89.381907    3.004969   15.255037
 C   88.616634    2.571076   14.039520
 C   89.551243    2.513337   12.815101
 C   88.800905    2.085740   11.607163
 C   88.167998    2.823080   10.631466
 N   88.547273    0.788273   11.324490
 N   87.791421    0.636195   10.228438
 C   87.552397    1.870114    9.799919
 N   86.758176    2.050199    8.686951
 C   86.285000    3.217984    8.180576
 C   85.305233    3.193764    7.168920
 C   84.826354    4.413819    6.750444
 N   85.261247    5.569547    7.237191
 N   86.751234    4.370499    8.655353
 C   86.226573    5.486459    8.153726
 N   86.726850    6.667211    8.596244
 C   87.716394    6.741878    9.632939
 C   87.210255    6.298420   10.970634
 C   85.970405    5.970608   11.433441
 O   88.107528    6.130350   11.956791
 N   87.468575    5.688064   13.069093
 C   86.198877    5.583152   12.781321
 C   85.204722    5.107327   13.773480
 H   92.487103    0.866037   19.401474
 H   92.982591    2.441412   18.737495
 H   91.519472    2.316795   19.757454
 H   89.968016    1.015359   15.832814
 H   91.443771    4.146284   18.318943
 H   90.851719    7.683258   17.961832
 H   90.582166    6.218486   18.935878
 H   92.040376    6.359648   17.911281
 H   88.981043    5.090645   14.955868
 H   87.822632    3.287974   13.831836
 H   88.173901    1.586565   14.203751
 H   90.371149    1.820210   13.018136
 H   89.967202    3.506969   12.648937
 H   88.142066    3.880821   10.509686
 H   88.863865   -0.025030   11.826101
 H   86.396897    1.192238    8.295245
 H   84.937752    2.263892    6.767594
 H   84.052372    4.489640    5.997103
 H   86.197161    7.484648    8.344867
 H   88.557468    6.091853    9.362280
 H   88.086266    7.768959    9.699695
 H   85.041221    5.985967   10.905014
 H   85.690224    4.951107   14.732598
 H   84.405661    5.838050   13.884935
 H   84.763866    4.170399   13.435678
