57 
4nk9_ligand_dft.xyz
 C   91.557252    1.687471   19.319517
 O   90.908183    1.351256   18.116571
 C   90.515675    2.358846   17.292164
 C   89.878853    1.963359   16.116432
 C   90.718518    3.711850   17.572732
 C   90.271554    4.662758   16.648861
 O   90.417244    6.002222   16.825476
 C   91.058255    6.459368   17.991590
 C   89.636397    4.275161   15.470894
 C   89.437272    2.920172   15.206722
 C   88.771157    2.495301   13.919792
 C   89.667639    2.722586   12.685965
 C   88.989695    2.288736   11.426649
 C   88.190568    2.989536   10.546601
 N   88.987587    1.006788   10.992603
 N   88.246325    0.811954    9.882188
 C   87.759955    2.019137    9.617565
 N   86.907980    2.123010    8.516053
 C   86.225200    3.212656    8.067443
 C   85.263230    3.068573    7.045371
 C   84.601911    4.217736    6.668411
 N   84.828591    5.422955    7.203268
 N   86.484413    4.403161    8.612792
 C   85.772178    5.436237    8.152165
 N   86.027578    6.656796    8.722452
 C   87.213360    6.902268    9.504405
 C   87.080008    6.424655   10.918734
 C   86.037457    6.024520   11.686058
 O   88.222360    6.332353   11.614633
 N   87.944674    5.853789   12.884405
 C   86.646957    5.670343   12.923590
 C   86.000286    5.142681   14.163286
 H   91.780229    0.742117   19.816136
 H   92.495436    2.227843   19.136307
 H   90.913959    2.293288   19.971394
 H   89.734382    0.902742   15.935692
 H   91.210235    4.017771   18.485852
 H   91.068419    7.547969   17.922176
 H   90.513467    6.162133   18.897743
 H   92.091763    6.093768   18.056568
 H   89.307950    5.037126   14.769268
 H   87.845492    3.060112   13.768694
 H   88.492743    1.436463   13.976481
 H   90.615877    2.186741   12.818316
 H   89.904469    3.787454   12.608944
 H   87.953717    4.036742   10.565365
 H   89.480224    0.223314   11.388693
 H   86.705067    1.236828    8.077265
 H   85.044709    2.108209    6.592948
 H   83.840736    4.180693    5.891573
 H   85.583950    7.431473    8.255500
 H   88.089090    6.411327    9.061521
 H   87.406197    7.980066    9.503963
 H   84.998218    5.962870   11.404411
 H   86.748279    4.982485   14.943925
 H   85.248633    5.845649   14.535924
 H   85.496445    4.192580   13.957952
