57 
4nka_ligand_dft.xyz
 C   85.162938    3.328330   12.891061
 C   84.507410    3.357148   11.626353
 C   85.331202    4.109678   10.855356
 N   88.820035   -0.146438    9.520584
 C   84.634436    0.159029    7.213122
 C   85.582976    0.711363    8.092337
 C   87.547548    0.325593    9.522101
 C   87.404792    1.061834   10.675266
 C   88.668329    0.976515   11.308655
 C   89.059112    1.579655   12.621937
 C   88.248676    0.992330   13.791897
 C   88.595078    1.613397   15.124695
 C   89.194913    0.877157   16.139018
 C   89.508703    1.483903   17.356232
 C   88.309827    2.967956   15.345184
 C   87.720481    5.649820   15.847879
 C   90.560480    4.305549   18.803764
 O   89.493917    3.371538   18.804161
 C   89.221829    2.820247   17.580168
 C   88.607633    3.574334   16.560640
 O   88.337293    4.873162   16.852552
 N   89.521475    0.238650   10.608831
 N   86.676508   -0.021770    8.484787
 C   83.569703    0.977553    6.886297
 N   83.411440    2.220732    7.347027
 N   85.461691    1.947328    8.566553
 C   84.386625    2.635436    8.167927
 N   84.264063    3.901223    8.661856
 C   85.306144    4.543256    9.420022
 O   86.386516    4.513244   11.572619
 N   86.278154    4.018042   12.860791
 C   84.737257    2.634121   14.144470
 H   83.586445    2.876685   11.335479
 H   89.288512   -0.651942    8.786578
 H   84.723132   -0.847233    6.820163
 H   86.523948    1.589038   11.003137
 H   90.127382    1.409146   12.787393
 H   88.897644    2.663351   12.585416
 H   87.181470    1.141741   13.582933
 H   88.412385   -0.090642   13.830717
 H   89.423044   -0.174165   15.985544
 H   89.975689    0.923240   18.160127
 H   87.837633    3.535695   14.549506
 H   87.586985    6.643120   16.278665
 H   88.345480    5.719261   14.948970
 H   86.744790    5.239676   15.560097
 H   90.691531    4.622909   19.840381
 H   91.488175    3.837722   18.447647
 H   90.329761    5.176591   18.181877
 H   86.688741   -0.986710    8.189647
 H   82.791449    0.618685    6.215805
 H   83.487878    4.436128    8.308367
 H   86.287184    4.324825    8.983215
 H   85.154625    5.626150    9.369297
 H   85.505167    2.730191   14.916047
 H   83.801370    3.057851   14.522635
 H   84.568396    1.569770   13.953212
