49 
4nks_ligand_dft.xyz
 C   84.727951    1.910649   14.257851
 C   85.212464    2.914820   13.264232
 C   84.613246    3.305076   12.033392
 C   85.492924    4.196109   11.517419
 C   85.573387    4.961111   10.231277
 N   84.573864    4.551464    9.277110
 C   84.708454    3.419377    8.514556
 N   83.891698    3.330581    7.458305
 C   84.032861    2.207946    6.744563
 C   84.926133    1.204332    7.052918
 C   85.720449    1.411159    8.200182
 N   86.607717    0.454304    8.593218
 C   87.321239    0.367738    9.790839
 C   87.502557    1.305138   10.828622
 C   88.287044    0.643160   11.753094
 C   88.828693    1.080287   13.076780
 C   89.660739    2.372200   12.982922
 C   90.206222    2.776646   14.331518
 C   91.515197    2.463144   14.700925
 C   92.001593    2.800415   15.961456
 C   91.178930    3.456595   16.871984
 C   89.870260    3.772380   16.513316
 C   89.386508    3.434984   15.253330
 N   88.521683   -0.581981   11.231394
 N   87.940007   -0.782976   10.031595
 N   85.622211    2.531386    8.919287
 O   86.528268    4.355155   12.355437
 N   86.346363    3.541525   13.463141
 H   85.393041    1.886178   15.124251
 H   83.715834    2.152104   14.596362
 H   84.703029    0.913954   13.805591
 H   83.700757    2.946030   11.584746
 H   86.586170    4.834229    9.826413
 H   85.434833    6.027873   10.434228
 H   83.980441    5.254850    8.866849
 H   83.383112    2.114428    5.876680
 H   85.001166    0.302395    6.456611
 H   86.641012   -0.393435    8.045791
 H   87.118910    2.306670   10.883655
 H   87.998963    1.253890   13.771513
 H   89.444141    0.281413   13.509904
 H   90.479455    2.221320   12.269886
 H   89.023233    3.166742   12.581936
 H   92.163443    1.953833   13.990777
 H   93.024802    2.553242   16.230256
 H   91.556193    3.723522   17.855006
 H   89.223625    4.288379   17.217694
 H   88.365093    3.679507   14.969946
 H   89.061085   -1.327851   11.639244
