63 
4nku_ligand_xtb.xyz
 O   -2.625328    2.631141   -0.754427
 C   -1.490437    2.954462    0.023649
 C   -0.914829    1.688154    0.669349
 O   -1.821783    1.127708    1.614517
 C   -0.625375    0.564776   -0.331390
 O    0.375966   -0.270260    0.211725
 C   -1.975802   -0.152120   -0.384682
 O   -1.872617   -1.484051   -0.768785
 C   -2.484779    0.030631    1.066382
 N   -3.916359    0.216414    1.068969
 C   -4.676353    1.141808    1.726852
 N   -5.951332    1.013069    1.524825
 C   -6.070736   -0.061196    0.679576
 C   -7.159316   -0.726234    0.086307
 N   -8.433850   -0.364264    0.288162
 N   -6.905369   -1.769761   -0.712126
 C   -5.656971   -2.141134   -0.917510
 N   -4.550751   -1.611650   -0.419798
 C   -4.795145   -0.566481    0.381779
 P    0.922837   -1.458738   -0.707797
 O    0.845496   -1.246157   -2.151497
 O    0.359609   -2.840700   -0.159591
 O    2.400525   -1.502656   -0.089039
 C    3.256278   -2.497308   -0.628484
 C    4.704002   -2.176271   -0.248767
 O    5.163282   -0.981810   -0.871283
 C    4.879511   -1.939788    1.258685
 O    6.172498   -2.290591    1.653910
 C    4.629503   -0.425578    1.385325
 O    5.432275    0.114901    2.389048
 C    4.986071    0.106655   -0.031949
 N    3.941234    1.014944   -0.533364
 C    3.653723    2.109634    0.249821
 O    4.235460    2.345636    1.291608
 N    2.670646    2.923459   -0.235629
 C    1.936573    2.765399   -1.413079
 O    1.062719    3.563937   -1.683985
 C    2.342077    1.615968   -2.179932
 C    3.304312    0.798382   -1.714583
 H   -2.872366    3.409827   -1.264772
 H   -0.713818    3.414850   -0.595747
 H   -1.772404    3.642814    0.832149
 H   -0.008886    1.953075    1.223018
 H   -0.319166    0.920383   -1.316627
 H   -2.632270    0.410252   -1.060994
 H   -2.806648   -1.816842   -0.808595
 H   -2.250637   -0.871060    1.659878
 H   -4.226768    1.891160    2.345742
 H   -9.167784   -0.879665   -0.163192
 H   -8.633717    0.418320    0.883886
 H   -5.519160   -2.987523   -1.576755
 H   -0.544486   -2.945614   -0.469131
 H    2.980173   -3.477824   -0.230034
 H    3.149549   -2.516018   -1.718247
 H    5.359654   -2.980136   -0.593363
 H    4.138774   -2.508643    1.835347
 H    6.468891   -1.615916    2.283472
 H    3.564445   -0.247848    1.578150
 H    5.242889    1.068059    2.416131
 H    5.922770    0.685096    0.008649
 H    2.451063    3.734459    0.333185
 H    1.847225    1.417634   -3.113763
 H    3.641922   -0.068585   -2.260424
