24 
4nl1_ligand_dft.xyz
 F   -2.997024   -1.351376    0.445179
 F   -3.056105    0.689245    1.175204
 F   -3.343076    0.282633   -0.930241
 C    3.019281    0.457089   -0.849266
 N    3.798963    0.294468    0.451091
 C    3.743131   -1.075280    1.052097
 C    0.897958   -0.897406   -0.867506
 C    1.546078    0.310924   -0.604166
 C    0.820868    1.387290   -0.084949
 C   -0.534904    1.252271    0.182468
 C   -0.460240   -1.032565   -0.605551
 C   -1.171656    0.040729   -0.077017
 C   -2.661278   -0.087837    0.159370
 H    3.411483   -0.298122   -1.533968
 H    3.279045    1.448496   -1.228968
 H    3.429484    0.969957    1.127972
 H    4.777121    0.553534    0.290103
 H    2.700993   -1.319348    1.254764
 H    4.165622   -1.781814    0.337336
 H    4.322940   -1.077645    1.975125
 H    1.447863   -1.734140   -1.290492
 H    1.305554    2.345238    0.092915
 H   -1.098084    2.086926    0.584688
 H   -0.964345   -1.970161   -0.811263
