93 
4nld_ligand_xtb.xyz
 C   -2.128154    1.659053   -1.158356
 C   -1.544486    2.866905   -0.731996
 C   -0.187558    2.986872   -0.567948
 C   -1.338608    0.555052   -1.465403
 C    0.027126    0.666663   -1.262297
 C    0.626264    1.868024   -0.780164
 C    2.004135    1.585516   -0.571975
 C    2.191493    0.265216   -0.933627
 N    1.000907   -0.278893   -1.359418
 C    0.847429   -1.663501   -1.712899
 C    3.035619    2.492848    0.023582
 C    2.632894    2.953181    1.431363
 C    3.727471    3.829684    2.033656
 C    3.999826    5.036336    1.140595
 C    4.398971    4.582665   -0.260084
 C    3.308212    3.708354   -0.869679
 C    3.491364   -1.803968   -0.350495
 C    3.421742   -0.517721   -0.905058
 C    4.584843    0.040279   -1.436033
 C    5.795404   -0.620289   -1.403196
 C    5.874662   -1.882760   -0.818517
 C    4.710317   -2.457104   -0.306943
 O    6.995774   -2.625993   -0.709153
 C    8.207251   -2.115236   -1.220604
 C    0.976417   -2.528370   -0.469679
 C    2.319642   -2.544231    0.211512
 C    1.845343   -3.755682   -0.544922
 C   -0.297188   -2.738399    0.314053
 N   -0.564209   -1.927597    1.380122
 O   -1.068014   -3.628050    0.034485
 C    0.093912   -0.773934    1.937143
 C   -0.938493    0.370795    1.937831
 N   -2.097162    0.037146    2.799169
 C   -2.647200   -1.299410    2.454983
 C   -1.511942   -2.321407    2.404746
 C    0.425996   -1.219990    3.376318
 C   -0.650795   -2.283093    3.684526
 C   -3.136151    1.079482    2.760515
 C   -3.579611    1.473764   -1.011589
 O   -4.199156    1.978137   -0.092001
 N   -4.203607    0.584792   -1.850361
 S   -5.183115   -0.603905   -1.088044
 N   -6.710041   -0.049503   -1.020282
 O   -4.651315   -0.755560    0.237458
 O   -5.104465   -1.708677   -1.976199
 C   -7.020550    0.906354    0.016654
 C   -7.278096    0.216254   -2.322321
 H   -2.200533    3.698017   -0.527303
 H    0.234858    3.927759   -0.255713
 H   -1.788044   -0.381807   -1.762938
 H   -0.121195   -1.819064   -2.190204
 H    1.634053   -1.935068   -2.423791
 H    3.966565    1.925032    0.123959
 H    2.466714    2.075948    2.064763
 H    1.701301    3.518588    1.388120
 H    4.643104    3.243576    2.139164
 H    3.428209    4.163090    3.029623
 H    4.794253    5.645186    1.574504
 H    3.101107    5.654541    1.080009
 H    4.573556    5.451316   -0.896926
 H    5.331064    4.015600   -0.204660
 H    2.394561    4.292559   -0.985582
 H    3.610091    3.371143   -1.863515
 H    4.527175    1.005973   -1.913572
 H    6.662814   -0.150237   -1.836980
 H    4.778546   -3.444032    0.123258
 H    8.147778   -1.950223   -2.300344
 H    8.491296   -1.183893   -0.721865
 H    8.956367   -2.877094   -1.013989
 H    2.336645   -2.633584    1.293072
 H    1.528333   -4.627587    0.005705
 H    2.322367   -3.985089   -1.485104
 H    0.967691   -0.468534    1.361271
 H   -1.310634    0.527620    0.924138
 H   -0.481820    1.297307    2.290762
 H   -1.743264   -0.028351    3.759665
 H   -3.381477   -1.582813    3.210590
 H   -3.164144   -1.236607    1.491454
 H   -1.916779   -3.306974    2.168798
 H    0.426035   -0.384918    4.076421
 H    1.421117   -1.659792    3.406777
 H   -1.239756   -2.057137    4.572556
 H   -0.191098   -3.256657    3.843312
 H   -2.708956    2.044803    3.024142
 H   -3.571964    1.148543    1.762081
 H   -3.929243    0.834415    3.463270
 H   -3.691554    0.228389   -2.642219
 H   -8.097560    0.911211    0.176926
 H   -6.516616    0.578964    0.921255
 H   -6.678675    1.913658   -0.235807
 H   -6.959242    1.188053   -2.713037
 H   -6.947766   -0.574992   -2.990128
 H   -8.364239    0.195952   -2.246717
