87 
4no9_ligand_dft.xyz
 C    1.790871    1.461428    0.925262
 O    1.347198    1.658798    2.048168
 O    2.875650    0.736342    0.646822
 C    3.428836   -0.009814    1.753419
 C    4.564210   -0.834745    1.216964
 C    5.699788   -0.217946    0.686526
 C    6.748930   -0.982205    0.189458
 C    6.675290   -2.373842    0.225568
 C    5.548248   -2.993805    0.755070
 C    4.493485   -2.227251    1.246161
 N    1.243598    1.963100   -0.213406
 C    0.018859    2.746988   -0.210768
 C   -1.182841    1.790509   -0.050730
 O   -1.882211    1.465878   -1.015857
 C   -0.108453    3.584205   -1.482898
 C    0.723319    4.875347   -1.510064
 C    2.234781    4.637832   -1.440142
 C    0.368839    5.679662   -2.764406
 N   -1.360473    1.337788    1.205766
 C   -2.326126    0.316617    1.623843
 C   -1.903803   -1.053718    1.067074
 O   -1.360104   -1.882894    1.798383
 C   -3.784587    0.690638    1.332206
 C   -4.206743    2.072041    1.850643
 C   -5.682245    2.313738    1.522842
 C   -3.947950    2.242316    3.349472
 N   -2.137611   -1.238120   -0.243018
 C   -1.607790   -2.339631   -1.030811
 C   -2.727560   -3.035278   -1.810148
 C   -3.931878   -3.470248   -0.965551
 C   -3.528128   -4.387477    0.192520
 C   -4.976994   -4.143307   -1.858473
 C   -0.512568   -1.795283   -1.976753
 C    0.762212   -1.332470   -1.248198
 C    1.766415   -0.753377   -2.248610
 C    1.415844   -2.451287   -0.401853
 O    1.284296   -2.284832    0.990880
 O   -1.045204   -0.779603   -2.808997
 H    2.641888   -0.641933    2.166683
 H    3.763944    0.703142    2.512514
 H    5.756674    0.867383    0.658825
 H    7.627014   -0.494489   -0.223646
 H    7.496350   -2.971625   -0.159436
 H    5.483783   -4.077635    0.782492
 H    3.597742   -2.703667    1.635595
 H    1.620317    1.644830   -1.094416
 H    0.057782    3.404639    0.665338
 H    0.134941    2.958998   -2.353861
 H   -1.165655    3.841742   -1.601503
 H    0.433246    5.472615   -0.633091
 H    2.773399    5.587042   -1.533253
 H    2.537252    4.168792   -0.500306
 H    2.564089    3.988094   -2.261524
 H   -0.705228    5.888566   -2.817746
 H    0.901402    6.636375   -2.779863
 H    0.647897    5.127544   -3.670478
 H   -0.601557    1.542169    1.854444
 H   -2.192419    0.219356    2.702129
 H   -4.410898   -0.082686    1.797847
 H   -3.981070    0.651034    0.257228
 H   -3.614357    2.824065    1.312912
 H   -6.322479    1.604972    2.062612
 H   -5.987590    3.325445    1.810586
 H   -5.876366    2.194158    0.451328
 H   -2.879246    2.219883    3.587987
 H   -4.341043    3.200878    3.704514
 H   -4.440731    1.446901    3.923012
 H   -2.486390   -0.437137   -0.758167
 H   -1.167645   -3.045192   -0.322966
 H   -3.059542   -2.362047   -2.610256
 H   -2.294234   -3.917544   -2.302544
 H   -4.384100   -2.565681   -0.536570
 H   -2.869315   -3.882277    0.906245
 H   -4.412674   -4.729600    0.741121
 H   -3.006341   -5.277571   -0.183108
 H   -5.282849   -3.485852   -2.680181
 H   -5.872891   -4.409261   -1.286571
 H   -4.576224   -5.065143   -2.298621
 H   -0.238605   -2.607910   -2.662486
 H    0.480326   -0.540397   -0.542218
 H    1.317176    0.043122   -2.850311
 H    2.646662   -0.368890   -1.722478
 H    2.107403   -1.526298   -2.947938
 H    2.494091   -2.456057   -0.587422
 H    1.039096   -3.437825   -0.722009
 H    0.345229   -2.317093    1.252146
 H   -1.147422    0.035340   -2.288906
