39 
4np9_ligand_dft.xyz
 C   -2.049505   -0.570530   -0.279318
 C   -1.314330   -1.842168    0.149912
 C    0.080379   -1.936965   -0.465070
 C    0.872768   -0.653473   -0.206206
 C    0.132929    0.565043   -0.731970
 C   -1.215516    0.684227   -0.026690
 O   -3.239277   -0.525297    0.505272
 O   -1.107255   -1.858931    1.549133
 O    0.785136   -3.042742    0.073558
 O    2.115098   -0.739831   -0.879471
 O    0.799860    1.821349   -0.580341
 O   -1.926539    1.803984   -0.526256
 P   -4.606474    0.060071   -0.165702
 O   -4.782655   -0.371486   -1.562517
 O   -4.564355    1.606570    0.174115
 O   -5.706961   -0.454464    0.869105
 P    3.441250   -1.193378   -0.065050
 O    3.611225   -2.737807   -0.362413
 O    3.323029   -0.811413    1.371820
 O    4.594005   -0.533850   -0.903705
 P    2.174123    2.183615    0.171758
 O    1.851915    3.728566    0.408919
 O    3.437033    1.937436   -0.567183
 O    2.091490    1.516798    1.601868
 H   -2.308255   -0.631775   -1.343741
 H   -1.911319   -2.709490   -0.161762
 H    0.008236   -2.104960   -1.543937
 H    1.025288   -0.562163    0.872112
 H   -0.022561    0.455867   -1.811230
 H   -1.044985    0.791297    1.052517
 H   -1.969588   -1.755511    1.974949
 H    0.577651   -3.056071    1.022643
 H   -1.328248    2.565025   -0.485296
 H   -3.676299    1.960569   -0.053913
 H   -6.275417   -1.108278    0.440461
 H    2.737928   -3.167453   -0.245594
 H    4.439252    0.442481   -0.899377
 H    2.666174    4.249040    0.382826
 H    2.654319    0.688933    1.665074
