39 
4np9_ligand_xtb.xyz
 C    2.079343   -0.707185    0.200625
 C    1.492856   -2.101788   -0.028241
 C    0.067674   -2.224930    0.533067
 C   -0.845694   -1.122798   -0.037383
 C   -0.230127    0.270191    0.082727
 C    1.193918    0.345937   -0.464794
 O    3.363283   -0.688524   -0.379279
 O    1.427581   -2.393666   -1.404980
 O   -0.454859   -3.490153    0.263191
 O   -2.035523   -1.145233    0.717006
 O   -0.989032    1.180912   -0.688638
 O    1.742548    1.620549   -0.228901
 P    4.416737    0.368704    0.261519
 O    4.178660    0.615702    1.683044
 O    4.459961    1.599587   -0.723074
 O    5.789112   -0.325530   -0.101565
 P   -3.461421   -0.882214    0.020253
 O   -4.000558   -2.318247   -0.356379
 O   -3.437727   -0.006379   -1.156912
 O   -4.346097   -0.462834    1.244502
 P   -2.079583    2.111595   -0.000617
 O   -1.188171    3.403232    0.298663
 O   -2.725586    1.609343    1.223352
 O   -2.990504    2.575257   -1.181984
 H    2.169390   -0.478232    1.268865
 H    2.134677   -2.841949    0.475065
 H    0.080796   -2.124009    1.622334
 H   -1.065243   -1.319179   -1.093206
 H   -0.247955    0.566896    1.138510
 H    1.157746    0.153408   -1.548498
 H    2.292770   -2.189776   -1.783138
 H   -0.312338   -3.669200   -0.677181
 H    1.035398    2.270739   -0.354647
 H    3.620172    2.066343   -0.669254
 H    6.211299   -0.628594    0.701040
 H   -4.026413   -2.907543    0.398041
 H   -4.001630    0.395080    1.546218
 H   -1.634601    4.001983    0.894790
 H   -3.442613    1.784075   -1.516633
