26 
4nra_ligand_xtb.xyz
 C   -3.051094    1.170584   -0.008071
 C   -2.090718    2.119583   -0.009066
 C   -0.732961    1.717586   -0.005472
 N    0.357598    2.435181    0.000745
 C    1.407404    1.541337    0.002964
 C    2.764822    1.831695    0.012802
 C    3.663343    0.781528    0.011563
 C    3.216684   -0.537973    0.001041
Cl    4.385539   -1.817019   -0.002969
 C    1.870322   -0.860181   -0.005764
 C    0.965894    0.186805   -0.004320
 C   -0.468623    0.271107   -0.007576
 C   -1.481491   -0.622047   -0.007307
 N   -2.782807   -0.188028   -0.004811
 C   -3.891105   -1.063147    0.005711
 O   -5.010966   -0.621051    0.015489
 C   -3.590735   -2.535596    0.003989
 H   -4.104014    1.405605   -0.008589
 H   -2.349523    3.164905   -0.011695
 H    3.103639    2.854879    0.021727
 H    4.724840    0.975457    0.019048
 H    1.548749   -1.890299   -0.012028
 H   -1.306445   -1.684910   -0.007450
 H   -3.024383   -2.819646    0.888681
 H   -4.539197   -3.066881    0.009323
 H   -3.034079   -2.819142   -0.886942
