22 
4nrc_ligand_xtb.xyz
 C    3.561458   -1.725244   -0.059943
 N    2.234510   -1.164855   -0.061980
 C    2.019753    0.170159   -0.014009
 C    0.601654    0.561560   -0.002808
 C   -0.552528   -0.184368    0.007547
 C   -1.725568    0.617884    0.019103
 C   -1.444431    1.952245    0.030823
 S    0.242901    2.254265    0.019934
 O   -2.985795    0.087421    0.011134
 C   -2.979454   -1.274112   -0.367710
 C   -1.884656   -2.038011    0.376662
 O   -0.601587   -1.554164    0.017889
 O    2.910907    0.998426    0.018286
 H    4.265056   -0.894050   -0.045013
 H    3.718985   -2.348539    0.823043
 H    3.728612   -2.326403   -0.955942
 H    1.445192   -1.790660   -0.075872
 H   -2.147914    2.758173    0.049185
 H   -2.809750   -1.360984   -1.450040
 H   -3.965959   -1.666474   -0.118483
 H   -1.895348   -3.096214    0.112810
 H   -2.032422   -1.923253    1.458763
