22 
4nrc_ligand_dft.xyz
 C    3.598449   -1.707612   -0.035833
 N    2.258827   -1.165987   -0.031907
 C    2.022878    0.173130   -0.018945
 C    0.594141    0.567124   -0.004426
 C   -0.554875   -0.179342    0.004696
 C   -1.742501    0.614671    0.024815
 C   -1.472220    1.949829    0.037190
 S    0.221563    2.257593    0.020562
 O   -2.988967    0.065638    0.047148
 C   -2.976944   -1.294854   -0.360508
 C   -1.870811   -2.060173    0.346138
 O   -0.592228   -1.542131   -0.018826
 O    2.905016    1.022931   -0.018458
 H    4.294728   -0.869839   -0.084722
 H    3.796646   -2.282410    0.875888
 H    3.756011   -2.355314   -0.905031
 H    1.467818   -1.793221   -0.017411
 H   -2.191426    2.755796    0.052016
 H   -2.838051   -1.359559   -1.448048
 H   -3.954381   -1.704670   -0.098796
 H   -1.870170   -3.110464    0.049284
 H   -1.997256   -1.988047    1.433494
