39 
4nrl_ligand_xtb.xyz
 C   -2.419448   -2.020967    0.775502
 C   -2.228680   -1.455297   -0.628671
 C   -2.863539   -0.066732   -0.747307
 C   -2.049915    0.972842    0.036451
 C   -0.590380    0.915676   -0.448848
 C   -0.058037   -0.521613   -0.345604
 C    1.375724   -0.648838   -0.932163
 C    2.344709   -1.113141    0.173567
 C    3.763541   -1.271977   -0.375258
 C    0.399149    3.088677    0.146484
 C    1.502484    3.736995    0.945731
 N    0.285567    1.760165    0.342953
 O   -1.547498   -2.321597    1.543989
 O   -3.715859   -2.167154    1.057419
 O   -2.642967    2.229230   -0.144288
 O   -0.879985   -1.449978   -1.032626
 O    1.438398   -1.505031   -2.035603
 O    2.329680   -0.150683    1.207432
 O    4.595665   -1.611800    0.717800
 O   -0.347038    3.706190   -0.594621
 H   -2.727042   -2.146780   -1.318624
 H   -3.887295   -0.085464   -0.377500
 H   -2.878655    0.234245   -1.796006
 H   -2.067144    0.720211    1.112247
 H   -0.568685    1.258432   -1.493635
 H   -0.026424   -0.785805    0.719278
 H    1.717323    0.337379   -1.274325
 H    2.011833   -2.085713    0.566137
 H    3.764528   -2.048766   -1.145491
 H    4.087152   -0.322693   -0.823421
 H    1.660744    4.749675    0.586722
 H    2.422180    3.163961    0.864715
 H    1.207862    3.776456    1.992386
 H    0.953982    1.281816    0.933520
 H   -3.831689   -2.525452    1.952860
 H   -1.963934    2.876865   -0.415896
 H    0.662870   -2.081943   -2.000579
 H    3.088483   -0.355847    1.770873
 H    5.478132   -1.808920    0.390755
