59 
4nru_ligand_xtb.xyz
 O    0.848529    1.534904    2.994785
 S    1.212787    0.440939    1.872313
 O    0.437591    0.702801    0.704633
 O    1.044913   -0.840286    2.514145
 C    2.946301    0.778956    1.563175
 C    3.643465    0.188407    0.482595
 C    3.529714    1.723214    2.361188
 C    4.847811    2.141498    2.131398
 C    5.533701    1.658979    1.052824
 C    4.947005    0.703899    0.196922
 C    5.624396    0.258654   -0.954014
 S    7.247373    0.928245   -1.277090
 O    8.165907    0.436132   -0.304579
 O    7.176537    2.342301   -1.501699
 O    7.606689    0.261810   -2.702663
 C    5.071331   -0.660773   -1.796906
 C    3.835938   -1.230159   -1.486593
 C    3.139178   -0.853714   -0.353748
 N    1.964102   -1.516807   -0.036948
 C    0.952049   -1.769535   -0.943657
 O    1.065350   -1.618585   -2.137084
 C   -0.295362   -2.211217   -0.273077
 C   -1.492567   -1.679020   -0.724384
 C   -0.304652   -3.098140    0.798741
 C   -1.506266   -3.455937    1.375469
 C   -2.718848   -2.923998    0.947183
 C   -3.998459   -3.370143    1.574230
 C   -2.690880   -1.995570   -0.098388
 N   -3.866939   -1.384127   -0.584172
 C   -4.761762   -0.692172    0.177595
 O   -4.698465   -0.581929    1.382296
 C   -5.870401   -0.066248   -0.613761
 C   -6.441586    1.097882   -0.115319
 C   -6.371806   -0.628164   -1.785887
 C   -7.420594   -0.025611   -2.463049
 C   -7.978395    1.145095   -1.983887
 C   -7.482089    1.696194   -0.808473
 N   -8.068020    2.916224   -0.298160
 O   -7.569097    3.409708    0.687678
 O   -9.021927    3.368362   -0.893542
 H    0.292940    1.132522    3.666722
 H    2.960295    2.162920    3.161967
 H    5.296000    2.867893    2.790166
 H    6.529585    2.001784    0.824229
 H    7.609925    0.944260   -3.377269
 H    5.606491   -0.976603   -2.677183
 H    3.415627   -1.986008   -2.128552
 H    1.684460   -1.539772    0.937138
 H   -1.473701   -0.983560   -1.550255
 H    0.615159   -3.533459    1.157454
 H   -1.512435   -4.171621    2.184184
 H   -3.844826   -4.275076    2.155837
 H   -4.384495   -2.589810    2.230010
 H   -4.754461   -3.557911    0.812814
 H   -3.843114   -1.162302   -1.569952
 H   -6.077039    1.527492    0.805916
 H   -5.962694   -1.554657   -2.161717
 H   -7.804429   -0.472418   -3.367044
 H   -8.791397    1.636329   -2.495910
