45 
4nuc_ligand_xtb.xyz
 C    5.833561   -0.457994   -1.060425
 C    4.516836   -0.857148   -1.127792
 C    3.593696   -0.462634   -0.151690
 C    4.019318    0.354965    0.904307
 C    5.330347    0.767745    0.995657
 C    6.240283    0.356226    0.008749
 O    7.542503    0.726077    0.043549
 C    5.791361    1.642702    2.128968
 N    2.306028   -0.912168   -0.315635
 N    1.473951   -0.632354    0.598276
 C    0.153483   -0.942479    0.414671
 C   -0.611470   -1.245631    1.551503
 C   -1.969345   -1.442693    1.433718
 C   -2.571199   -1.322742    0.191955
 C   -1.839593   -1.014360   -0.940313
 C   -0.477433   -0.828862   -0.834817
 S   -4.343840   -1.469281    0.096193
 O   -4.823946   -2.389905    1.079495
 O   -4.749919   -1.628378   -1.265641
 N   -4.848155    0.047869    0.643185
 C   -4.374737    1.221173    0.086666
 N   -4.090311    2.201292    0.936523
 C   -3.656131    3.350462    0.443238
 C   -3.466082    3.579572   -0.906872
 C   -3.763702    2.549011   -1.791371
 C   -4.230255    1.348108   -1.297352
 C    6.845904   -0.865748   -2.083777
 H    4.174527   -1.485156   -1.935422
 H    3.293800    0.652072    1.646474
 H    7.707744    1.278837    0.817425
 H    4.957351    1.865173    2.788219
 H    6.563118    1.146104    2.720175
 H    6.188503    2.589885    1.759029
 H   -0.113701   -1.340657    2.503767
 H   -2.580462   -1.698211    2.285019
 H   -2.348017   -0.946007   -1.888646
 H    0.126576   -0.582855   -1.695037
 H   -4.939818    0.090338    1.647872
 H   -3.448885    4.115217    1.180292
 H   -3.103798    4.531910   -1.259802
 H   -3.639717    2.687685   -2.855583
 H   -4.497033    0.523244   -1.935646
 H    6.378676   -1.426667   -2.887459
 H    7.336870    0.014487   -2.494796
 H    7.616952   -1.479763   -1.620765
