51 
4nw6_ligand_xtb.xyz
 C  -24.412933   -0.776470  -24.675099
 O  -23.950739    0.505612  -24.332647
 C  -22.642095    0.660952  -24.005359
 C  -21.700131   -0.356884  -24.028207
 C  -22.268702    1.962300  -23.627375
 O  -23.264630    2.905972  -23.562230
 C  -23.080021    4.075916  -24.333426
 C  -20.935519    2.216091  -23.276944
 O  -20.633537    3.488111  -22.891101
 C  -19.324083    3.773663  -22.458209
 C  -19.994292    1.192589  -23.325574
 C  -20.374696   -0.088379  -23.697210
 N  -19.478546   -1.155437  -23.745076
 C  -18.141792   -1.188867  -23.576295
 O  -17.421015   -0.053978  -23.394157
 N  -17.457931   -2.293333  -23.594341
 C  -16.153366   -1.898809  -23.406411
 C  -14.975582   -2.626430  -23.319328
 C  -13.809017   -1.913104  -23.114599
 C  -13.802457   -0.528788  -22.989719
 C  -14.970815    0.230233  -23.068323
 C  -16.130364   -0.497198  -23.286598
 C  -14.980630    1.691420  -22.939940
 C  -14.214267    2.356586  -21.983524
 N  -13.375761    1.916468  -20.991195
 C  -12.927533    3.030023  -20.344157
 N  -13.393811    4.135854  -20.827049
 C  -14.217455    3.766370  -21.861686
 C  -14.990737    4.544106  -22.716623
 C  -15.752502    3.886443  -23.659626
 C  -15.756014    2.496119  -23.764526
 H  -25.477696   -0.660211  -24.870623
 H  -23.920608   -1.156681  -25.576934
 H  -24.272949   -1.489214  -23.855779
 H  -21.975827   -1.359908  -24.311376
 H  -24.004508    4.641283  -24.230450
 H  -22.240551    4.673413  -23.971031
 H  -22.920578    3.828648  -25.388536
 H  -19.333062    4.825762  -22.177877
 H  -19.047339    3.172093  -21.587465
 H  -18.588612    3.618116  -23.252601
 H  -18.972433    1.389056  -23.060188
 H  -19.871417   -2.067755  -23.927807
 H  -14.981856   -3.699379  -23.411274
 H  -12.870434   -2.443826  -23.051497
 H  -12.858928   -0.017198  -22.866795
 H  -13.171255    0.956828  -20.768514
 H  -12.248025    2.973509  -19.515348
 H  -14.986703    5.618438  -22.633857
 H  -16.360001    4.460265  -24.344433
 H  -16.363247    2.026610  -24.524063
