32 
4nwc_ligand_dft.xyz
 O   -3.134802   -0.874929    1.261311
 C   -2.437709   -1.410723    0.445359
 O   -2.863440   -2.235185   -0.518797
 C   -0.911567   -1.288131    0.409338
 N   -0.447332   -1.332816   -1.011774
 C   -0.397427   -0.059701    1.168004
 C   -0.441071    1.327653    0.479091
 C   -1.735738    1.536692   -0.282514
 O   -2.053709    0.867859   -1.256461
 O   -2.472878    2.527896    0.178171
 C    0.726640    1.663290   -0.484463
 C    2.129546    1.497826    0.103448
 C    2.750844    0.131985   -0.090580
 O    2.198751   -0.839459   -0.594103
 O    3.989499    0.098353    0.345579
 C    4.710763   -1.139202    0.200675
 H   -3.831175   -2.311403   -0.458392
 H   -0.514350   -2.185476    0.895119
 H    0.587922   -1.178699   -1.033412
 H   -0.935113   -0.560743   -1.509431
 H   -0.694352   -2.218924   -1.457708
 H    0.627510   -0.253192    1.491223
 H   -1.005888   -0.012680    2.074911
 H   -0.411182    2.064358    1.286452
 H   -3.276984    2.601017   -0.365719
 H    0.602577    2.712792   -0.769487
 H    0.652561    1.098170   -1.418214
 H    2.155517    1.730952    1.175090
 H    2.815451    2.215045   -0.359496
 H    4.187655   -1.943075    0.721416
 H    5.683571   -0.956351    0.651346
 H    4.814544   -1.386487   -0.857018
