79 
4nwm_ligand_xtb.xyz
 C   11.779443   20.413686   22.050046
 C   10.891484   20.523343   20.999967
 C   17.895420   22.864626   19.666088
 C   17.794234   20.480232   19.783946
 C    4.923962   17.405782   20.449671
 C    7.150196   17.415669   21.336152
 C   19.276255   22.810669   19.690291
 C   19.173929   20.434356   19.798998
 C   13.134736   20.512439   21.803573
 C    5.326026   18.254722   19.439013
 C    7.562838   18.259705   20.323448
 C    8.352090   22.108666   15.035938
 C   11.344277   20.702301   19.693075
 C    5.835047   16.972968   21.406563
 C   17.133875   21.703969   19.728909
 C   19.946160   21.594413   19.764034
 C   12.717902   20.779229   19.422018
 C    8.309451   20.979313   16.906425
 C    6.649414   18.692649   19.364710
 C   13.599048   20.714143   20.508610
 C    9.556097   21.624176   16.710521
 C    8.158278   20.205759   18.065072
 C   10.316431   20.805680   18.646122
 C    5.382197   16.111950   22.545639
 C   15.649229   21.835456   19.702038
 C    4.737878   13.877817   23.267625
 C    5.492104   14.156540   20.997630
 C    3.452010   13.250485   22.722317
 C    4.177994   13.518226   20.526125
 C   13.257603   20.869203   18.035497
 C   21.876685   20.780611   21.102420
 C   22.153992   22.849006   19.756297
 C   21.936121   20.666147   18.592826
 C   21.461774   21.484289   19.802192
 N    7.555685   21.314299   15.807417
 N   10.558887   21.538644   17.575651
 N    9.175580   20.146191   18.905528
 N    9.531357   22.311002   15.529872
 N    5.271752   14.788916   22.276050
 N    6.990743   19.532987   18.312937
 N   14.994376   20.804347   20.323556
 O    5.137015   16.572892   23.644231
 O   15.087857   22.777969   19.186710
 O    3.680156   12.613693   21.482584
 H   11.419684   20.265258   23.056965
 H    9.828888   20.475997   21.177755
 H   17.382272   23.812377   19.600667
 H   17.236843   19.553573   19.785680
 H    3.893937   17.083899   20.501234
 H    7.859213   17.092359   22.083248
 H   19.823849   23.737655   19.647692
 H   19.653923   19.467787   19.836887
 H   13.844707   20.444788   22.616756
 H    4.607333   18.586752   18.701617
 H    8.583608   18.596004   20.263966
 H    8.012577   22.518611   14.104537
 H    5.474939   13.092799   23.469939
 H    4.541492   14.445394   24.178035
 H    6.245957   13.368853   21.119972
 H    5.848192   14.885182   20.269805
 H    2.686456   14.032719   22.605247
 H    3.079535   12.478107   23.396212
 H    3.437292   14.311048   20.336146
 H    4.333154   12.942710   19.612170
 H   13.452269   21.911857   17.787529
 H   14.199269   20.326403   17.959379
 H   12.548392   20.481811   17.312239
 H   21.524705   21.344505   21.963903
 H   21.464632   19.776951   21.160399
 H   22.960636   20.706869   21.158042
 H   21.867706   23.462552   20.607350
 H   23.232512   22.708953   19.791667
 H   21.914839   23.378457   18.837084
 H   21.528831   19.659121   18.608879
 H   21.622437   21.146202   17.668299
 H   23.021625   20.593854   18.593569
 H    6.609887   21.039668   15.600511
 H    6.239271   19.713954   17.662536
 H   15.543551   20.250800   20.965749
