134 
4nxq_ligand_xtb.xyz
 N    1.438384   -0.995232   -0.279095
 C    1.187583   -1.455013   -1.665025
 C    0.594077   -2.879789   -1.650294
 O    0.964485   -3.760196   -2.390087
 C    2.474223   -1.372477   -2.473819
 C    2.809421    0.088106   -2.764115
 O    2.004981    0.981463   -2.540039
 N    4.013807    0.307958   -3.283752
 N   -0.393464   -3.000591   -0.746160
 C   -1.043280   -4.251911   -0.391668
 C   -2.430630   -3.785641    0.047203
 O   -2.584184   -3.267750    1.143753
 C   -0.328737   -4.965735    0.764146
 C    0.998635   -5.600137    0.353968
 C    2.153758   -4.623247    0.264031
 O    2.091215   -3.451375    0.611063
 N    3.284608   -5.155895   -0.212361
 N   -3.388996   -3.847077   -0.891034
 C   -4.715640   -3.238765   -0.819982
 C   -4.639845   -1.706250   -0.833000
 O   -5.313777   -1.052301   -1.630968
 C   -5.537085   -3.706514    0.400257
 C   -6.747509   -2.809707    0.681625
 C   -7.787419   -2.796497   -0.446555
 C   -8.611724   -1.513259   -0.472877
 N   -7.792295   -0.362767   -0.954076
 N   -3.876983   -1.158331    0.103937
 C   -3.571072    0.250905    0.153553
 C   -2.155610    0.495165   -0.387704
 O   -1.231425   -0.273181   -0.135750
 C   -3.594349    0.765386    1.599461
 C   -5.007117    0.784689    2.198095
 C   -5.861929    1.810694    1.494564
 O   -5.548910    3.029646    1.837792
 O   -6.721349    1.533846    0.676387
 N   -2.046998    1.589479   -1.129560
 C   -0.787058    2.248561   -1.414858
 C   -0.067212    2.472894   -0.070047
 O   -0.691273    2.819887    0.912895
 C   -1.061324    3.612716   -2.098028
 C   -2.231285    4.298888   -1.449793
 C   -3.522913    4.011826   -1.896169
 C   -2.082591    5.109008   -0.331948
 C   -4.632437    4.453810   -1.201726
 C   -3.187251    5.568692    0.361799
 C   -4.464790    5.208567   -0.046265
 O   -5.585725    5.531093    0.667986
 N    1.248016    2.213644   -0.126829
 C    2.244868    2.548728    0.874020
 C    3.529727    1.799445    0.516503
 O    3.494089    0.706869   -0.039315
 C    1.829746    2.199281    2.324292
 C    1.651616    0.727197    2.572452
 C    0.390134    0.148900    2.490704
 C    2.733237   -0.070676    2.925764
 C    0.212511   -1.199837    2.755760
 C    2.557690   -1.416136    3.196942
 C    1.296898   -1.983055    3.114747
 N    4.650406    2.408066    0.914738
 C    6.008315    1.994338    0.600296
 C    6.317324    2.276848   -0.870951
 O    7.600292    2.537032   -1.043277
 C    6.261405    0.500172    0.897627
 C    7.696283    0.137100    0.628321
 C    8.688649    0.464241    1.542923
 C    8.050923   -0.507470   -0.549037
 C   10.011525    0.153605    1.284131
 C    9.373519   -0.819747   -0.809638
 C   10.356694   -0.487324    0.106389
 O    5.501261    2.262902   -1.754466
 H    2.211239   -0.269633   -0.239975
 H    1.738678   -1.812570    0.294231
 H    0.582632   -0.575094    0.119555
 H    0.446917   -0.787304   -2.120104
 H    3.291232   -1.838824   -1.923300
 H    2.347654   -1.916714   -3.411556
 H    4.343432    1.258773   -3.368470
 H    4.670154   -0.437597   -3.434856
 H   -0.649402   -2.205720   -0.174351
 H   -1.069968   -4.891541   -1.279275
 H   -0.994871   -5.744184    1.138325
 H   -0.162120   -4.244927    1.565864
 H    1.276372   -6.354142    1.094331
 H    0.898080   -6.100938   -0.610641
 H    3.341385   -6.116795   -0.501359
 H    4.117607   -4.593304   -0.275984
 H   -3.155071   -4.287180   -1.767464
 H   -5.228341   -3.530134   -1.740529
 H   -4.889395   -3.700560    1.276512
 H   -5.865070   -4.732283    0.231038
 H   -7.221065   -3.157982    1.599819
 H   -6.396269   -1.793554    0.867102
 H   -8.463571   -3.642209   -0.326131
 H   -7.304568   -2.906735   -1.417120
 H   -9.001007   -1.286839    0.520232
 H   -9.457352   -1.648277   -1.147416
 H   -8.299941    0.196574   -1.640094
 H   -7.486191    0.290189   -0.193465
 H   -6.892036   -0.698638   -1.394694
 H   -3.359554   -1.770971    0.740516
 H   -4.303811    0.776048   -0.467666
 H   -3.167644    1.770193    1.628839
 H   -2.963780    0.113025    2.205849
 H   -4.933659    1.066803    3.247976
 H   -5.465935   -0.201124    2.120882
 H   -6.023803    3.747585    1.362415
 H   -2.855256    2.200300   -1.215945
 H   -0.171502    1.627474   -2.070798
 H   -1.271994    3.434159   -3.153112
 H   -0.158872    4.219326   -2.027699
 H   -3.664096    3.452350   -2.811327
 H   -1.096374    5.374784    0.013100
 H   -5.630693    4.224201   -1.540108
 H   -3.056022    6.190668    1.235240
 H   -5.369712    6.175924    1.353538
 H    1.628218    1.916367   -1.025207
 H    2.432483    3.632284    0.839184
 H    0.894092    2.718328    2.530356
 H    2.600583    2.591449    2.990280
 H   -0.455436    0.773141    2.246406
 H    3.713893    0.371299    3.023276
 H   -0.774017   -1.636713    2.702233
 H    3.401433   -2.019393    3.492915
 H    1.160692   -3.025522    3.354725
 H    4.561075    3.332362    1.309814
 H    6.696089    2.590960    1.204908
 H    7.830995    2.686352   -1.975393
 H    5.592940   -0.101242    0.282507
 H    6.020813    0.325677    1.948066
 H    8.424246    0.958957    2.466491
 H    7.283360   -0.767608   -1.266230
 H   10.773999    0.411171    2.002756
 H    9.637358   -1.322887   -1.727725
 H   11.388204   -0.729311   -0.096173
