42 
4nxu_ligand_xtb.xyz
 P   -2.503902   -1.294143   -0.615955
 O   -1.503685   -1.967653   -1.440518
 O   -3.566361   -2.205828    0.092397
 O   -3.376770   -0.172001   -1.248693
 P   -0.703158   -1.457664    1.390809
 O   -0.390564   -0.611215    2.687064
 O   -1.208695   -2.814588    1.598229
 O   -1.767390   -0.519020    0.642880
 O    0.654131   -1.267477    0.619239
 C    1.251558   -2.281233   -0.192938
 C    2.581808   -1.739008   -0.731795
 O    2.384364   -0.767049   -1.748471
 C    3.421027   -1.019165    0.338722
 O    4.777949   -1.074883    0.008508
 C    2.864565    0.414950    0.268507
 O    3.850951    1.365708    0.549145
 C    2.331792    0.507763   -1.189031
 N    0.975777    1.019467   -1.201762
 C   -0.054407    0.604756   -1.984543
 N   -1.185982    1.188863   -1.711092
 C   -0.907868    2.040838   -0.669384
 C   -1.689325    2.874525    0.149592
 N   -3.020282    3.017310    0.006630
 N   -1.067916    3.579560    1.099287
 C    0.237715    3.453911    1.253693
 N    1.071256    2.666556    0.596465
 C    0.455270    1.952721   -0.351045
 H   -3.101819   -2.906930    0.565267
 H   -2.732885    0.434261   -1.700362
 H   -0.922996   -0.896520    3.428565
 H    0.581439   -2.516306   -1.024081
 H    1.414975   -3.176112    0.411040
 H    3.146655   -2.554862   -1.189327
 H    3.254275   -1.456306    1.332257
 H    5.157718   -0.207475    0.210224
 H    2.029344    0.503771    0.966796
 H    3.393619    2.198340    0.733105
 H    2.968252    1.178493   -1.788751
 H    0.074141   -0.139006   -2.744469
 H   -3.505753    3.525850    0.726135
 H   -3.523657    2.336457   -0.536433
 H    0.678366    4.062865    2.031621
