43 
4nyj_ligand_xtb.xyz
 C  -29.280026   33.095693  -64.236561
 C  -29.864078   33.924530  -63.303458
 C  -30.441963   35.141562  -63.675822
 C  -30.452389   35.559225  -64.987073
 C  -29.868137   34.742729  -65.955862
 C  -29.284623   33.513246  -65.561208
 N  -28.784932   32.915872  -66.681347
 C  -29.029719   33.718741  -67.761023
 C  -29.692995   34.845640  -67.371007
 C  -30.108244   35.975596  -68.255444
 N  -28.956723   36.766876  -68.667459
 C  -29.289144   37.716468  -69.708592
 C  -28.024548   38.389838  -70.231871
 C  -28.328993   37.436255  -67.545779
 C  -27.027412   38.095554  -67.985522
 C  -27.313974   39.115763  -69.088592
 N  -26.101112   39.776388  -69.538701
 C  -25.045542   39.170295  -70.106531
 O  -24.956239   37.985364  -70.353438
 C  -23.901399   40.143834  -70.410439
 N  -24.380486   41.514509  -70.531328
 H  -28.832437   32.154773  -63.950592
 H  -29.877147   33.631986  -62.263865
 H  -30.887707   35.762542  -62.912342
 H  -30.901383   36.502253  -65.262230
 H  -28.306756   32.031721  -66.708344
 H  -28.708150   33.434980  -68.744068
 H  -30.861969   36.594916  -67.735884
 H  -30.568460   35.573824  -69.163384
 H  -29.994436   38.490021  -69.342851
 H  -29.776850   37.176307  -70.524360
 H  -27.349961   37.633344  -70.630486
 H  -28.279627   39.092485  -71.027699
 H  -29.001336   38.202311  -67.109517
 H  -28.121842   36.691615  -66.774906
 H  -26.353583   37.337900  -68.383501
 H  -26.549731   38.582161  -67.133099
 H  -27.970788   39.901060  -68.694786
 H  -25.998726   40.771439  -69.397595
 H  -23.210262   40.094763  -69.563011
 H  -23.368720   39.767695  -71.295557
 H  -23.597618   42.158003  -70.573153
 H  -24.907832   41.620925  -71.392710
