67 
4nzn_ligand_xtb.xyz
 O   -3.467174   -4.740139    1.842763
 P   -2.543535   -3.700638    1.051860
 O   -1.921960   -4.296606   -0.151926
 O   -1.523171   -3.185926    2.127231
 C   -3.800555   -2.407362    0.728964
 C   -3.201452   -1.514691   -0.300400
 O   -3.680180   -1.215920   -1.366886
 O   -1.985330   -1.159071    0.099137
 C   -1.172152   -0.331357   -0.722259
 C    0.235974   -0.859737   -0.456222
 O    0.387015   -2.087226   -1.123651
 P    1.087773   -3.296710   -0.316934
 O    0.919345   -3.146813    1.141174
 O    0.507709   -4.558253   -1.012508
 O    2.581963   -3.373167   -0.826611
 C    1.384307    0.052799   -0.861757
 O    2.521284   -0.546854   -0.288475
 P    3.859444   -0.818958   -1.128095
 O    4.741492   -1.703047   -0.369917
 O    4.426967    0.609072   -1.505942
 O    3.392297   -1.288121   -2.565661
 C   -1.340651    1.145995   -0.332047
 O   -2.495295    1.705616   -0.909703
 P   -3.973496    1.502663   -0.236570
 O   -4.502545    2.968158    0.013658
 O   -3.975666    0.597141    0.910056
 O   -4.865428    1.168437   -1.483883
 C   -0.176026    1.984507   -0.860552
 O   -0.284650    3.335219   -0.493993
 P   -1.583712    4.091562    0.045973
 O   -2.273887    3.515103    1.213627
 O   -0.886876    5.472608    0.377432
 O   -2.464628    4.476637   -1.200819
 C    1.158871    1.460012   -0.301208
 O    1.103445    1.411514    1.100269
 C    1.953121    2.335478    1.771614
 C    3.413030    2.037527    1.538333
 C    4.241220    2.957180    0.908861
 C    5.571640    2.650928    0.669012
 C    6.079611    1.417987    1.051517
 C    5.256494    0.495670    1.683059
 C    3.929533    0.803963    1.921775
 H   -3.045252   -5.593537    1.948257
 H   -0.589623   -3.134413    1.800370
 H   -3.978152   -1.833778    1.636354
 H   -4.724165   -2.857484    0.375237
 H   -1.456452   -0.472969   -1.773285
 H    0.329242   -1.020574    0.626020
 H   -0.452957   -4.614367   -0.803825
 H    3.251529   -3.066850   -0.200175
 H    1.486658    0.088185   -1.951522
 H    5.081832    0.894185   -0.857665
 H    3.183254   -2.226420   -2.559170
 H   -1.391878    1.222228    0.759108
 H   -4.016141    3.298323    0.789217
 H   -4.753141    0.248856   -1.753230
 H   -0.176788    1.928775   -1.957753
 H   -0.853983    5.608191    1.323339
 H   -3.317091    4.026405   -1.204037
 H    1.970105    2.119198   -0.634462
 H    1.698243    2.208073    2.826786
 H    1.711366    3.361200    1.463820
 H    3.848745    3.919864    0.613428
 H    6.211210    3.376167    0.188415
 H    7.118075    1.181799    0.873060
 H    5.650544   -0.460140    1.987343
 H    3.282065    0.090034    2.405709
