67 
4nzn_ligand_dft.xyz
 O   -4.709295   -3.990822    1.811301
 P   -3.509574   -3.297253    1.003714
 O   -3.115796   -3.962128   -0.272982
 O   -2.353476   -3.178157    2.075585
 C   -4.249453   -1.663256    0.719935
 C   -3.436765   -0.868863   -0.263642
 O   -3.833983   -0.428357   -1.320161
 O   -2.192086   -0.720363    0.190514
 C   -1.209522   -0.026227   -0.582101
 C    0.041840   -0.873954   -0.371288
 O   -0.109268   -2.055706   -1.150216
 P    0.170488   -3.522734   -0.525167
 O    0.045971   -3.514244    0.958173
 O   -0.776589   -4.447567   -1.356337
 O    1.586723   -3.973825   -1.101016
 C    1.336935   -0.187271   -0.763553
 O    2.362962   -1.049273   -0.304846
 P    3.552908   -1.643567   -1.203567
 O    4.059941   -2.851402   -0.517536
 O    4.551875   -0.447956   -1.503735
 O    2.944072   -1.837833   -2.663672
 C   -1.071047    1.421816   -0.078550
 O   -2.077708    2.263750   -0.654109
 P   -3.573563    2.460937    0.028095
 O   -3.707348    4.021362    0.147101
 O   -3.716413    1.602577    1.218818
 O   -4.553759    2.209721   -1.192763
 C    0.270917    2.033953   -0.500608
 O    0.465639    3.301699    0.120265
 P   -0.305057    4.641242   -0.286270
 O   -1.340808    5.078665    0.681510
 O    0.913319    5.655617   -0.416200
 O   -0.781791    4.446039   -1.794319
 C    1.453228    1.167433   -0.074680
 O    1.426554    0.974396    1.317297
 C    2.421808    1.683598    2.048637
 C    3.812031    1.155721    1.778932
 C    4.797153    1.971624    1.225520
 C    6.063893    1.460393    0.939924
 C    6.348202    0.121670    1.203195
 C    5.362622   -0.704027    1.753510
 C    4.104675   -0.186665    2.038078
 H   -4.441212   -4.828007    2.215969
 H   -1.434406   -3.292416    1.698293
 H   -4.294389   -1.105137    1.660168
 H   -5.257722   -1.796951    0.325049
 H   -1.503979   -0.025092   -1.635676
 H    0.109888   -1.129381    0.690212
 H   -1.722145   -4.345216   -1.047257
 H    2.364127   -3.809483   -0.520697
 H    1.389425   -0.066561   -1.851812
 H    5.103675   -0.230727   -0.729261
 H    2.387491   -2.637550   -2.671999
 H   -1.150616    1.434253    1.011402
 H   -2.905792    4.472147    0.520907
 H   -4.584409    1.256633   -1.408342
 H    0.283889    2.160625   -1.590810
 H    0.657419    6.537379   -0.112259
 H   -1.537600    3.830295   -1.824587
 H    2.383627    1.651372   -0.395095
 H    2.147794    1.534923    3.096026
 H    2.360082    2.755755    1.827847
 H    4.575205    3.014236    1.011090
 H    6.823784    2.105310    0.509408
 H    7.332019   -0.281522    0.982545
 H    5.567930   -1.753708    1.933552
 H    3.328886   -0.835777    2.432038
