70 
4nzo_ligand_dft.xyz
 C    4.946686   -2.438472   -0.893083
 C    6.206941   -1.892531   -0.662431
 C    6.462410   -1.211976    0.527974
 C    5.456417   -1.092594    1.487804
 C    4.203980   -1.653443    1.254489
 C    3.932864   -2.321403    0.058372
 C    2.552273   -2.855487   -0.237112
 O    1.733338   -1.874387   -0.867918
 C    0.880726   -1.132373   -0.035431
 C   -0.548874   -1.643910   -0.233202
 O   -0.556480   -2.949390    0.354093
 P   -1.229727   -4.239274   -0.302437
 O   -0.024047   -5.122487   -0.866109
 O   -2.245749   -3.929926   -1.346514
 O   -1.692750   -5.037167    0.973309
 C   -1.588624   -0.771655    0.465309
 O   -2.899928   -1.147777    0.043107
 P   -3.873456   -2.163860    0.793260
 O   -3.227198   -2.987321    1.851795
 O   -4.556604   -2.923595   -0.405033
 O   -5.033479   -1.221740    1.359257
 C    1.058986    0.361378   -0.316665
 O    2.347954    0.684088    0.194622
 P    3.385737    1.716271   -0.474018
 O    4.092260    2.291639    0.821098
 O    2.745892    2.678263   -1.405153
 O    4.512901    0.879245   -1.201953
 C   -0.007142    1.175835    0.425605
 O    0.057430    2.539923    0.038453
 P    0.786695    3.702056    0.849676
 O    1.300902    4.631022   -0.311114
 O    1.775112    3.227560    1.858885
 O   -0.399968    4.540722    1.515444
 C   -1.407729    0.689524    0.053303
 O   -1.525866    0.822837   -1.341383
 C   -2.804902    1.205729   -1.850486
 C   -3.327543    2.482331   -1.240019
 C   -2.586021    3.663022   -1.337945
 C   -3.050127    4.834376   -0.753466
 C   -4.265502    4.839991   -0.069739
 C   -5.007250    3.668226    0.035755
 C   -4.533997    2.491066   -0.541011
 H    4.743104   -2.948154   -1.830915
 H    6.984252   -1.984514   -1.414468
 H    7.439068   -0.772939    0.706264
 H    5.646797   -0.557901    2.412646
 H    3.423965   -1.552808    2.003863
 H    2.068159   -3.224606    0.673565
 H    2.607808   -3.691499   -0.939163
 H    1.138207   -1.286307    1.022632
 H   -0.784721   -1.695450   -1.298833
 H   -0.191506   -5.358382   -1.788596
 H   -2.283168   -4.445202    1.508167
 H   -1.492390   -0.890572    1.551078
 H   -3.850837   -3.381511   -0.935062
 H   -5.363471   -1.559966    2.202543
 H    0.993988    0.571276   -1.386995
 H    3.393310    2.690593    1.401084
 H    4.980991    0.254732   -0.621591
 H    0.162227    1.077751    1.505096
 H    1.887986    4.082297   -0.901382
 H   -0.144121    4.826831    2.402507
 H   -2.144992    1.308710    0.577640
 H   -2.628008    1.333202   -2.921755
 H   -3.526031    0.393496   -1.714778
 H   -1.630104    3.652259   -1.852971
 H   -2.459224    5.742192   -0.823906
 H   -4.629600    5.756949    0.384418
 H   -5.950862    3.665388    0.573581
 H   -5.100749    1.568381   -0.439111
