67 
4o05_ligand_xtb.xyz
 N    3.523496    1.142515    0.944567
 C    4.430711    3.020367    2.137372
 O   -5.531400   -0.351290    0.162001
 C   -4.461380   -0.920091    0.142781
 C   -4.298549   -2.412076    0.342982
 C   -2.978395   -2.829679    1.012403
 C   -2.911369   -4.355856    1.081553
 C   -2.911026   -2.258231    2.429993
 C   -1.789019   -2.312619    0.174981
 C   -1.971267   -0.868593   -0.099195
 C   -3.202219   -0.233550   -0.105695
 C   -2.958451    1.143182   -0.337769
 C   -3.917233    2.273605   -0.494719
 C   -3.141114    3.587955   -0.519207
 N   -1.943111    3.467333   -1.403089
 C   -1.376625    4.778045   -1.751619
 C   -0.925239    2.576077   -0.779504
 C   -1.601206    1.286110   -0.452737
 N   -0.999892    0.054381   -0.316234
 C    0.392143   -0.187289   -0.398147
 C    1.258327    0.561086    0.371633
 C    0.864229   -1.163270   -1.269222
 C    2.225698   -1.406061   -1.341561
 C    2.760905   -2.447774   -2.281146
 C    3.953279   -3.144881   -1.639164
 N    4.902689   -2.143221   -1.219588
 C    4.569276   -0.973056   -0.639331
 O    5.445758   -0.235070   -0.196200
 C    3.123268   -0.664688   -0.574616
 C    2.650655    0.368406    0.283871
 C    3.244023    2.070842    2.015655
 C    2.998641    1.327353    3.332010
 H    4.501570    0.881058    0.804851
 H    5.328538    2.464584    2.394892
 H    4.603448    3.536068    1.196027
 H    4.246888    3.758902    2.912649
 H   -5.149833   -2.779018    0.917780
 H   -4.359493   -2.865163   -0.652020
 H   -1.977590   -4.675488    1.538126
 H   -3.731533   -4.744392    1.679103
 H   -2.976164   -4.795125    0.088577
 H   -3.752264   -2.615600    3.017860
 H   -2.943356   -1.171216    2.418496
 H   -1.994140   -2.572096    2.923757
 H   -0.845195   -2.490490    0.694914
 H   -1.756459   -2.868279   -0.768018
 H   -4.497079    2.141994   -1.412969
 H   -4.637498    2.272375    0.324403
 H   -2.789802    3.844577    0.481641
 H   -3.769767    4.398534   -0.890135
 H   -2.263747    3.000873   -2.259707
 H   -2.111971    5.380980   -2.281274
 H   -0.500745    4.655043   -2.386388
 H   -1.082452    5.302008   -0.843467
 H   -0.542495    3.087452    0.110623
 H   -0.089068    2.420814   -1.468220
 H    0.859456    1.287692    1.060071
 H    0.176245   -1.720667   -1.883592
 H    3.083862   -1.958134   -3.205088
 H    1.988855   -3.173863   -2.533984
 H    4.437396   -3.816416   -2.349950
 H    3.617402   -3.738155   -0.776211
 H    5.883944   -2.379096   -1.194078
 H    2.350352    2.655309    1.757233
 H    2.167187    0.632757    3.232774
 H    3.886089    0.763291    3.606884
 H    2.773885    2.030845    4.128827
