68 
4o07_ligand_xtb.xyz
 O   -5.601862    0.076337   -0.006351
 C   -4.595691   -0.598606   -0.016536
 C   -4.594516   -2.109466    0.076229
 C   -3.362418   -2.708116    0.775250
 C   -3.449189   -4.234090    0.727639
 C   -3.318108   -2.251515    2.234656
 C   -2.081883   -2.256700    0.040048
 C   -2.102156   -0.784923   -0.124882
 C   -3.261336   -0.029187   -0.145462
 C   -2.871395    1.330195   -0.244938
 C   -3.705175    2.561225   -0.346805
 C   -2.809099    3.785124   -0.178449
 N   -1.573931    3.638735   -1.004923
 C   -0.857668    4.912933   -1.163499
 C   -0.687967    2.584563   -0.438508
 C   -1.502770    1.344763   -0.271251
 N   -1.031774    0.049962   -0.208013
 C    0.330442   -0.323469   -0.200962
 C    1.218614    0.310608    0.652748
 C    0.783442   -1.328708   -1.045017
 C    2.118166   -1.694831   -1.023274
 C    2.619299   -2.809815   -1.893067
 C    3.658034   -3.604447   -1.108256
 N    4.686100   -2.694510   -0.667330
 C    4.462886   -1.437503   -0.226621
 O    5.384132   -0.714313    0.099462
 C    3.022927   -1.028310   -0.188761
 C    2.572963   -0.008661    0.660657
 C    3.474718    0.764639    1.569693
 C    4.142506    1.959510    0.859224
 C    3.109937    2.935714    0.301375
 C    5.072718    2.669459    1.836754
 H   -4.644798   -2.481560   -0.952382
 H   -5.509202   -2.425931    0.579123
 H   -2.579797   -4.679912    1.205144
 H   -3.498417   -4.590923   -0.298728
 H   -4.336947   -4.579421    1.250206
 H   -2.460729   -2.686164    2.743653
 H   -4.217883   -2.570205    2.753882
 H   -3.250768   -1.168490    2.307190
 H   -1.192898   -2.572713    0.590384
 H   -2.055099   -2.740830   -0.941996
 H   -4.221644    2.581637   -1.310994
 H   -4.483736    2.550656    0.417074
 H   -2.500726    3.894143    0.862680
 H   -3.332357    4.690949   -0.487482
 H   -1.882240    3.309880   -1.927303
 H   -0.576356    5.297878   -0.184526
 H   -1.491330    5.645633   -1.659715
 H    0.044500    4.769147   -1.755720
 H    0.160379    2.414946   -1.108527
 H   -0.297189    2.961873    0.512738
 H    0.851108    1.052195    1.345410
 H    0.098639   -1.822444   -1.716381
 H    3.087831   -2.391123   -2.788867
 H    1.799531   -3.455503   -2.206804
 H    4.109094   -4.376524   -1.732886
 H    3.180128   -4.091632   -0.246420
 H    5.647830   -2.999773   -0.657299
 H    2.898942    1.136143    2.420635
 H    4.271839    0.121592    1.938999
 H    4.740494    1.564501    0.035154
 H    2.489915    2.450889   -0.451289
 H    3.612650    3.781093   -0.162201
 H    2.472747    3.314230    1.100153
 H    5.569940    3.504210    1.349131
 H    4.517862    3.050850    2.692230
 H    5.834083    1.982901    2.194786
