59 
4o0b_ligand_dft.xyz
 C   -2.953073    1.817340   -1.423197
 O    4.864323   -1.029221    0.632361
 C   -1.606118    1.608683   -1.487881
 C   -2.437076   -0.104145   -0.301208
 C   -3.482867    0.722935   -0.662603
 C   -4.849667    0.453040   -0.230595
 C   -5.026856   -0.843783    0.557528
 C    4.004152   -1.568666   -0.052055
 N    4.241003   -2.783967   -0.626451
 C    3.313133   -3.476347   -1.497274
 C    1.914919   -3.331111   -0.915129
 C    1.604821   -1.871358   -0.683428
 C    0.310094   -1.403827   -0.860684
 C    2.635344   -0.993293   -0.297399
 C    2.364615    0.381572   -0.124870
 C    3.423151    1.392712    0.261770
 C    3.510229    1.638052    1.782530
 C    4.285977    2.969769    1.925222
 C    4.338459    3.586292    0.503749
 C    3.283044    2.815545   -0.299858
 C    1.048460    0.815253   -0.289840
 C    0.028771   -0.059718   -0.643960
 N   -1.287522    0.434103   -0.809835
 C   -2.553725   -1.321979    0.556485
 C   -3.823033   -1.240882    1.437575
 C   -4.081872   -2.615566    2.063073
 C   -3.624865   -0.209919    2.559223
 O   -5.797744    1.176106   -0.489720
 C   -3.728732    2.944926   -2.026604
 H   -0.830558    2.166943   -1.992473
 H   -5.212562   -1.639776   -0.179661
 H   -5.936997   -0.749298    1.158602
 H    5.180487   -3.130155   -0.498959
 H    3.605218   -4.528310   -1.550511
 H    3.342112   -3.066650   -2.517405
 H    1.866040   -3.877280    0.036073
 H    1.174572   -3.774421   -1.588199
 H   -0.474473   -2.077410   -1.190350
 H    4.395386    1.011439   -0.056441
 H    3.992519    0.796854    2.284072
 H    2.496549    1.737557    2.190950
 H    5.293950    2.803180    2.315942
 H    3.780536    3.639803    2.627682
 H    5.326280    3.421536    0.058690
 H    4.160851    4.665821    0.503010
 H    2.291795    3.235087   -0.087827
 H    3.439400    2.864835   -1.382486
 H    0.796609    1.856254   -0.122635
 H   -1.665078   -1.446579    1.187404
 H   -2.618274   -2.222627   -0.072110
 H   -4.968025   -2.588648    2.706904
 H   -4.247678   -3.378999    1.293798
 H   -3.230080   -2.931710    2.677075
 H   -3.405250    0.786577    2.163592
 H   -4.528467   -0.136212    3.174367
 H   -2.795563   -0.505006    3.212536
 H   -3.066845    3.636794   -2.556601
 H   -4.480070    2.571773   -2.729160
 H   -4.273092    3.499455   -1.256426
