44 
4o0y_ligand_xtb.xyz
 C    5.462319   -2.139276    1.261406
 C    5.035908   -1.997946   -0.197862
 N    4.062083   -0.947529   -0.378090
 C    2.752215   -1.198654   -0.268157
 N    2.206511   -2.376900   -0.269241
 C    0.846787   -2.170747   -0.218265
 C   -0.182043   -3.100141   -0.192882
 C   -1.478921   -2.630644   -0.133620
 C   -1.757293   -1.258984   -0.099197
 C   -0.728391   -0.312901   -0.126113
 C    0.560738   -0.787849   -0.184578
 N    1.806612   -0.148845   -0.210387
 C    2.048522    1.185437   -0.128690
 N    3.326784    1.597925   -0.068198
 C    3.486868    2.904099    0.023380
 N    2.535852    3.807371    0.051618
 C    1.292344    3.302539   -0.018307
 N    1.005518    2.005236   -0.103870
 N    0.272350    4.167301    0.001583
 C   -3.101287   -0.824305   -0.024048
 C   -4.240108   -0.442619    0.041819
 C   -5.627632   -0.003928    0.149350
 C   -5.707311    1.166314    1.143755
 C   -6.133166    0.434453   -1.234884
 O   -6.379556   -1.112280    0.624696
 H    5.880304   -1.204381    1.629495
 H    4.602994   -2.403574    1.872276
 H    6.212590   -2.918937    1.358215
 H    4.576490   -2.925018   -0.544105
 H    5.901675   -1.764559   -0.823602
 H    4.329389    0.020574   -0.221380
 H    0.036457   -4.155342   -0.217164
 H   -2.306456   -3.324094   -0.109517
 H   -0.942217    0.741821   -0.099215
 H    4.507647    3.262022    0.081066
 H    0.467805    5.149578    0.063964
 H   -0.668872    3.823468   -0.051988
 H   -5.373557    0.835187    2.124585
 H   -5.071582    1.983795    0.813645
 H   -6.732970    1.525588    1.222170
 H   -5.496743    1.217706   -1.638263
 H   -6.118500   -0.414245   -1.914915
 H   -7.153248    0.810590   -1.161071
 H   -7.302019   -0.842944    0.695694
