50 
4o12_ligand_dft.xyz
 C   -5.621145    0.816127    0.209773
 C   -6.565550    0.060031   -0.482016
 C   -6.709853   -1.290730   -0.205510
 C   -5.917854   -1.902480    0.763127
 C   -4.977922   -1.151512    1.449895
 C   -4.820468    0.212703    1.181636
 C   -3.508480    2.179155    1.607259
 C   -2.644115    2.262459    0.353287
 C   -1.381543    1.406539    0.444701
 C   -0.518717    1.494952   -0.812935
 C    0.748421    0.645676   -0.718495
 C    1.599189    0.763943   -1.979213
 C    3.763100    0.142386   -0.962590
 C    3.771301    2.523273   -0.422014
 C    5.723454   -1.142719   -0.154103
 C    5.947335   -0.345941    0.973197
 O   -3.886665    0.848382    1.932621
 N    2.771890   -0.116084   -1.972411
 N    4.385683    1.482774   -0.987860
 N    3.227337    3.398347    0.121697
 N    4.813416   -0.822507   -1.161288
 C    6.893780   -0.764734    1.902471
 N    7.617324   -1.880512    1.806865
 C    7.392581   -2.630724    0.723287
 C    6.478445   -2.317616   -0.269280
Cl   -7.893763   -2.237132   -1.081970
 H   -5.526855    1.870074   -0.023348
 H   -7.186483    0.529748   -1.237189
 H   -6.036495   -2.959437    0.975532
 H   -4.349961   -1.605455    2.209083
 H   -4.395693    2.821024    1.529071
 H   -2.937598    2.513280    2.477943
 H   -2.373663    3.316235    0.204387
 H   -3.226671    1.961337   -0.526125
 H   -1.666251    0.362623    0.623723
 H   -0.790062    1.722143    1.315227
 H   -0.235656    2.542023   -0.988029
 H   -1.110696    1.179082   -1.683649
 H    0.492643   -0.408794   -0.556337
 H    1.317045    0.980636    0.157858
 H    1.872873    1.820377   -2.131854
 H    0.996678    0.463587   -2.843415
 H    3.292559    0.062692    0.025400
 H    5.416583    0.584788    1.129260
 H    3.224617   -0.075584   -2.883235
 H    5.019615    1.668668   -1.754592
 H    4.459703   -1.632698   -1.653622
 H    7.075939   -0.153597    2.784244
 H    7.981061   -3.542496    0.643579
 H    6.352778   -2.974911   -1.125285
