50 
4o12_ligand_xtb.xyz
 C   -5.668833    0.809010    0.497237
 C   -6.692694    0.390477   -0.335942
 C   -6.967683   -0.957497   -0.472503
 C   -6.226246   -1.899567    0.225293
 C   -5.208771   -1.481359    1.055115
 C   -4.913873   -0.123084    1.203614
 C   -3.431365    1.487661    2.189330
 C   -2.568147    1.920453    1.001830
 C   -1.312212    1.059869    0.885635
 C   -0.486299    1.420689   -0.345629
 C    0.782434    0.577749   -0.442104
 C    1.597574    0.949672   -1.679361
 C    3.858561    0.282993   -0.995503
 C    4.253440    2.664497   -0.704004
 C    5.705463   -1.172180   -0.217119
 C    6.104340   -0.327241    0.820804
 O   -3.903326    0.160929    2.065085
 N    2.736846    0.055313   -1.859191
 N    4.585135    1.528839   -1.272145
 N    3.964321    3.634201   -0.161613
 N    4.774790   -0.807145   -1.163430
 C    7.084691   -0.770448    1.690666
 N    7.681321   -1.946850    1.602166
 C    7.306298   -2.744508    0.614301
 C    6.335574   -2.417170   -0.310629
Cl   -8.245235   -1.473352   -1.520269
 H   -5.480044    1.866839    0.586788
 H   -7.275247    1.118370   -0.878731
 H   -6.446117   -2.949834    0.117073
 H   -4.621250   -2.194837    1.610640
 H   -4.264539    2.184367    2.341504
 H   -2.825205    1.473411    3.099395
 H   -2.292782    2.967874    1.136428
 H   -3.147498    1.835753    0.080170
 H   -1.606669    0.009856    0.832776
 H   -0.702989    1.190123    1.782544
 H   -0.210799    2.476888   -0.300777
 H   -1.090528    1.272052   -1.243674
 H    0.525783   -0.481405   -0.496365
 H    1.378690    0.734383    0.458140
 H    1.908401    2.003291   -1.609476
 H    0.965657    0.841992   -2.563465
 H    3.494894    0.361059    0.040021
 H    5.672118    0.651954    0.947243
 H    3.041779    0.062706   -2.827819
 H    5.136072    1.561387   -2.117237
 H    4.436208   -1.548951   -1.757546
 H    7.413524   -0.141561    2.507582
 H    7.812761   -3.699789    0.567658
 H    6.062989   -3.106973   -1.095658
