58 
4o1d_ligand_dft.xyz
 C   -7.831123   -0.184021   -0.728143
 C   -8.775558   -1.104733   -1.170299
 C   -8.907443   -2.331801   -0.525256
 C   -8.106506   -2.628271    0.575174
 C   -7.175095   -1.701080    1.028414
 C   -7.018279   -0.482308    0.367742
 C   -6.043538    0.510278    0.937710
 O   -5.994962    0.691724    2.146895
 N   -5.270675    1.228273    0.054564
 C   -4.790020    0.683637   -1.212708
 C   -3.399448    0.065026   -1.045509
 C   -4.367786    2.225425    0.620838
 C   -2.970831    1.647939    0.852721
 C   -2.391341    1.049283   -0.436759
 C   -1.032930    0.370466   -0.225610
 C    0.092848    1.316382    0.200173
 C    1.439982    0.624327    0.427124
 C    2.036885    0.011017   -0.842730
 N    3.363419   -0.540115   -0.635056
 C    4.469945    0.257801   -0.622490
 O    4.415654    1.455333   -0.871377
 C    5.744521   -0.445887   -0.302443
 C    6.886007    0.247494   -0.252220
 C    8.226056   -0.265996    0.043844
 C    8.524211   -1.616015    0.260278
 C    9.831066   -1.985147    0.537285
 C   10.808644   -0.993354    0.589220
 N   10.555363    0.299850    0.384053
 C    9.294583    0.636804    0.119013
 H   -7.733195    0.778516   -1.222691
 H   -9.411933   -0.862071   -2.016048
 H   -9.640782   -3.052779   -0.874266
 H   -8.215378   -3.579789    1.086899
 H   -6.566471   -1.905698    1.903448
 H   -4.752755    1.503119   -1.942953
 H   -5.491560   -0.060519   -1.588292
 H   -3.041330   -0.288870   -2.020421
 H   -3.486637   -0.816141   -0.393899
 H   -4.802512    2.582588    1.553802
 H   -4.315358    3.063744   -0.086756
 H   -3.039382    0.870101    1.624947
 H   -2.320173    2.438269    1.242793
 H   -2.252982    1.872447   -1.156998
 H   -0.756344   -0.131953   -1.162488
 H   -1.145150   -0.423748    0.527799
 H   -0.187116    1.826281    1.129059
 H    0.213756    2.102692   -0.558239
 H    1.331857   -0.156658    1.192479
 H    2.161104    1.353965    0.810452
 H    2.121245    0.780178   -1.616207
 H    1.403231   -0.790401   -1.235008
 H    3.443251   -1.490453   -0.308757
 H    5.710985   -1.517455   -0.114652
 H    6.808654    1.315690   -0.451313
 H    7.745171   -2.371094    0.208917
 H   10.094970   -3.023436    0.709119
 H   11.843606   -1.250257    0.803883
 H    9.109843    1.697594   -0.045890
