34 
4o24_ligand_xtb.xyz
 C    3.569797   -2.185617    1.145268
 C    4.318124   -1.054722    0.444353
 C    4.607013    0.080532    1.422074
 C    3.568952   -0.568691   -0.808303
 N    2.219013   -0.110497   -0.547423
 C    1.156098   -0.995207   -0.635711
 O    1.274774   -2.158087   -0.948547
 C    1.915716    1.190567   -0.312811
 S    2.948949    2.451649   -0.336258
 S    0.187523    1.379543   -0.026591
 C   -0.111184   -0.317361   -0.331940
 C   -1.274963   -1.003579   -0.343177
 C   -2.622261   -0.568818   -0.110622
 C   -3.654850   -1.514332   -0.221832
 C   -4.969481   -1.164758   -0.028894
 C   -5.301701    0.153814    0.286781
 O   -6.605210    0.460958    0.465192
 C   -4.288402    1.102762    0.407142
 C   -2.971934    0.747554    0.211949
 H    2.654617   -1.816599    1.605197
 H    3.303861   -2.970603    0.442251
 H    4.190620   -2.613750    1.928579
 H    5.273658   -1.445120    0.076625
 H    5.135412    0.893241    0.930399
 H    3.684974    0.476332    1.842505
 H    5.221250   -0.284203    2.241979
 H    3.477241   -1.398960   -1.514227
 H    4.117099    0.255279   -1.271679
 H   -1.154416   -2.056232   -0.579273
 H   -3.407144   -2.536215   -0.467201
 H   -5.762653   -1.889679   -0.117071
 H   -6.705559    1.398075    0.675280
 H   -4.540021    2.125546    0.654461
 H   -2.207648    1.501479    0.310892
