34 
4o24_ligand_dft.xyz
 C    3.640398   -2.357778    1.020369
 C    4.332040   -1.121893    0.439491
 C    4.577429   -0.075675    1.528432
 C    3.608126   -0.550517   -0.791372
 N    2.247948   -0.064617   -0.535061
 C    1.161036   -0.946611   -0.668951
 O    1.282815   -2.107607   -0.993577
 C    1.943968    1.250599   -0.301203
 S    2.962330    2.537418   -0.264402
 S    0.205746    1.449128   -0.053235
 C   -0.111814   -0.250195   -0.371377
 C   -1.266798   -0.941034   -0.387339
 C   -2.638938   -0.529649   -0.139078
 C   -3.643969   -1.509832   -0.233292
 C   -4.975901   -1.212456   -0.014583
 C   -5.344620    0.095346    0.309863
 O   -6.659464    0.338837    0.514772
 C   -4.366762    1.087861    0.410171
 C   -3.034438    0.776196    0.188127
 H    2.677235   -2.095085    1.472580
 H    3.451503   -3.116727    0.256580
 H    4.262450   -2.799020    1.806494
 H    5.309500   -1.437747    0.047833
 H    5.112254    0.796379    1.142082
 H    3.631588    0.276584    1.955973
 H    5.166067   -0.512184    2.342639
 H    3.508790   -1.326289   -1.554627
 H    4.170281    0.289287   -1.205811
 H   -1.129651   -1.993621   -0.633033
 H   -3.365095   -2.529368   -0.485456
 H   -5.744859   -1.973395   -0.089468
 H   -6.787217    1.271004    0.729540
 H   -4.647496    2.107738    0.662213
 H   -2.305553    1.574007    0.274977
