17 
4o3a_ligand_dft.xyz
 N    0.773848    1.731587    0.064312
 C    0.664317    0.444259    0.839250
 C    1.366382   -0.668519    0.048408
 O    1.021204   -1.812774    0.085543
 C   -0.795623    0.092719    1.113912
 C   -1.604292    0.029041   -0.167166
 O   -1.273220    0.611642   -1.189093
 O   -2.697833   -0.686473   -0.046333
 O    2.408566   -0.175023   -0.630908
 H    1.720608    1.850338   -0.312228
 H    0.089753    1.639929   -0.724851
 H    0.531650    2.549164    0.630303
 H    1.208663    0.577959    1.778746
 H   -0.830877   -0.875367    1.618094
 H   -1.259219    0.822521    1.788313
 H   -3.190568   -0.671025   -0.886470
 H    2.858617   -0.898612   -1.102190
