20 
4o3b_ligand_xtb.xyz
 N    0.801919    1.683672    0.412230
 C    1.138848    0.313496    0.873973
 C    1.727032   -0.496979   -0.296092
 O    1.661017   -1.682389   -0.385499
 C   -0.071534   -0.370845    1.523412
 C   -1.130366   -0.945956    0.575499
 C   -1.908694    0.035467   -0.254563
 O   -1.535438    1.169504   -0.530732
 O   -3.038145   -0.450106   -0.682855
 O    2.335156    0.306725   -1.166809
 H   -0.196943    1.614467   -0.041794
 H    0.774237    2.355958    1.181933
 H    1.481173    1.993640   -0.292702
 H    1.943181    0.373922    1.618217
 H    0.304267   -1.209318    2.110453
 H   -0.536911    0.332944    2.216125
 H   -0.665442   -1.657795   -0.113299
 H   -1.850756   -1.523035    1.157768
 H   -3.540317    0.165932   -1.245393
 H    2.761643   -0.193389   -1.883134
