34 
4o43_ligand_xtb.xyz
 C    3.141131    1.590221   -2.124952
 C    2.797475    2.294765   -0.817651
 C    2.945611    1.368770    0.392684
 C    2.679845    2.087502    1.711734
 N    2.063461    0.207788    0.261068
 C    0.685974    0.345226    0.211655
 O    0.136620    1.424357    0.294285
 C    2.573256   -1.047846    0.157980
 S    4.152288   -1.465326    0.194825
 S    1.284658   -2.213750   -0.024982
 C    0.041130   -0.961365    0.045583
 C   -1.252268   -1.358165   -0.069064
 C   -2.517467   -0.680574   -0.048943
 C   -3.664764   -1.473190   -0.240605
 C   -4.925561   -0.929849   -0.229286
 C   -5.091539    0.440663   -0.019890
 O   -6.346546    0.940413   -0.011013
 C   -3.966654    1.239901    0.171283
 C   -2.702552    0.692914    0.155765
 H    2.437433    0.786365   -2.333863
 H    3.102296    2.293587   -2.952768
 H    4.141638    1.164683   -2.079698
 H    3.473213    3.138371   -0.669807
 H    1.778257    2.680366   -0.856278
 H    3.962137    0.959810    0.403552
 H    1.681976    2.516887    1.718911
 H    2.774851    1.394488    2.545174
 H    3.406964    2.884298    1.839739
 H   -1.357514   -2.430939   -0.203464
 H   -3.552316   -2.535336   -0.402052
 H   -5.801673   -1.540466   -0.378073
 H   -6.327709    1.893541    0.143431
 H   -4.089044    2.302612    0.333597
 H   -1.848171    1.330431    0.302687
