71 
4o45_ligand_xtb.xyz
 N   -1.052750   -2.277959    0.187152
 C   -0.296775   -2.860299    1.307508
 C    0.765280   -1.837870    1.736274
 O    0.586376   -1.085077    2.665525
 C    0.269190   -4.225993    0.929812
 N    1.886747   -1.771027    0.963698
 C    3.008412   -0.964882    1.420927
 C    2.734549    0.546734    1.368821
 O    3.471909    1.333133    1.916224
 C    4.318115   -1.282351    0.678748
 C    4.612758   -0.498460   -0.608145
 C    3.928910   -0.992498   -1.887323
 N    2.527111   -0.635459   -1.920877
 C    1.486259   -1.451839   -1.898993
 N    0.252961   -1.000476   -1.749797
 N    1.644064   -2.797659   -2.010295
 N    1.679209    0.902878    0.608949
 C    1.191850    2.260240    0.493209
 C   -0.267221    2.162983    0.044444
 O   -0.560752    1.569324   -0.981087
 C    1.974795    3.078259   -0.573656
 O    2.362793    2.184044   -1.606540
 C    3.173745    3.801265    0.030203
 N   -1.149169    2.814724    0.816116
 C   -2.583076    2.667678    0.627908
 C   -2.926014    1.168133    0.709818
 O   -2.085427    0.334423    0.985598
 C   -3.020734    3.293224   -0.698232
 N   -4.215095    0.859987    0.496048
 C   -4.653263   -0.521531    0.451373
 C   -4.284604   -1.138386   -0.898844
 O   -3.756862   -2.207555   -1.042653
 C   -6.159610   -0.615089    0.664657
 O   -4.619249   -0.340142   -1.907081
 H   -1.821733   -2.892654   -0.070238
 H   -0.403123   -1.610250   -1.189406
 H   -1.475135   -1.406500    0.512286
 H   -0.939504   -2.983983    2.192051
 H   -0.548583   -4.928331    0.784176
 H    0.844403   -4.185156    0.008189
 H    0.900067   -4.603738    1.730293
 H    2.098011   -2.544327    0.353988
 H    3.163979   -1.176369    2.489239
 H    4.365237   -2.356338    0.482695
 H    5.124741   -1.045033    1.372924
 H    4.373349    0.553702   -0.459183
 H    5.687586   -0.563910   -0.783756
 H    4.421442   -0.524180   -2.745477
 H    4.056321   -2.072411   -1.971507
 H    2.346550    0.359161   -1.763894
 H    0.094678    0.000837   -1.617689
 H    2.470704   -3.158285   -2.457389
 H    0.798467   -3.317159   -2.187739
 H    1.032232    0.183211    0.326195
 H    1.297015    2.768581    1.457054
 H    1.279328    3.822285   -0.995985
 H    2.842962    2.689397   -2.271840
 H    2.833400    4.576550    0.709859
 H    3.763582    4.271321   -0.754780
 H    3.798065    3.107237    0.585722
 H   -0.833588    3.164850    1.706443
 H   -3.077768    3.177713    1.460285
 H   -2.611349    2.727785   -1.530473
 H   -4.102821    3.324357   -0.782136
 H   -2.647930    4.313090   -0.752694
 H   -4.866732    1.557382    0.174254
 H   -4.115363   -1.072365    1.230639
 H   -6.686466   -0.079589   -0.122198
 H   -6.473091   -1.655247    0.648548
 H   -6.424594   -0.187835    1.628067
 H   -4.401569   -0.739972   -2.764407
