78 
4o74_ligand_xtb.xyz
 N   -1.388462   -1.557709   -0.173631
 N   -5.044368    0.252820   -0.110423
 C   -2.489596   -2.294436   -0.348285
 C   -6.177682   -0.577675    0.237056
 C   -6.145898   -1.916516   -0.490643
 C    0.844026    0.329458    0.143217
 C   -5.083206    1.702063    0.032548
 C   -7.570749   -1.438054    2.181035
 C   -6.177340    3.799121   -0.106433
 C   -4.492317    2.406083   -1.204266
 C    3.077778    1.237041    0.339955
 C    1.396109   -0.944765    0.000876
 C    5.074958   -0.166215    0.269791
 C    6.983491   -1.817523    0.631988
 C    8.015631   -0.715411   -1.437213
 C    8.821487   -0.056285    0.753183
 O    5.789334    0.858763    0.146774
 N    5.597624   -1.392536    0.465232
 C    7.811715   -0.887904    1.545756
 N    8.176083    0.397709   -0.484887
 C    8.822996    1.555004   -1.097839
 C    7.704312   -2.027037   -0.709882
 C    3.625005   -0.054646    0.221006
 C    1.719021    1.438267    0.314463
 O    1.102415    2.646877    0.443074
 C    1.898960    3.794559    0.630986
 C    2.758074   -1.137158    0.045421
 N   -0.491546    0.586773    0.121153
 C   -1.565579   -0.257961   -0.028603
 N   -2.736665    0.380326   -0.000666
 C   -3.839012   -0.346922   -0.136072
 C   -5.201878    3.768680   -1.289003
 C   -6.470862    2.325585    0.156648
 C   -6.230721   -0.853127    1.757492
 O   -7.160054   -2.470032   -0.854996
 N   -4.912409   -2.476614   -0.627875
 C   -4.809449   -3.819335   -1.159386
 C   -3.756694   -1.754244   -0.350448
 H   -2.308815   -3.348888   -0.494333
 H   -7.100634   -0.078777   -0.063457
 H   -4.485160    1.971500    0.913346
 H   -8.371343   -0.725806    1.996566
 H   -7.789350   -2.344289    1.622697
 H   -7.559285   -1.676622    3.241359
 H   -5.699565    4.241670    0.768666
 H   -7.078757    4.367595   -0.326288
 H   -4.701148    1.802886   -2.088102
 H   -3.413388    2.503582   -1.115706
 H    3.763118    2.059199    0.466341
 H    0.718941   -1.769658   -0.144742
 H    6.911978   -2.796742    1.113405
 H    7.206750   -0.452432   -2.122756
 H    8.933025   -0.831848   -2.021986
 H    9.718503   -0.634087    0.513035
 H    9.124098    0.812885    1.338519
 H    4.918806   -2.130851    0.560828
 H    7.135023   -0.228452    2.089807
 H    8.347519   -1.483177    2.283543
 H    7.096452    0.674011   -0.163162
 H    8.283910    1.838690   -1.999455
 H    9.858155    1.329552   -1.359369
 H    8.805358    2.394162   -0.405758
 H    8.627458   -2.566935   -0.498035
 H    7.098093   -2.661176   -1.356254
 H    1.200185    4.624063    0.720807
 H    2.558854    3.966984   -0.224122
 H    2.494198    3.721367    1.545775
 H    3.128588   -2.141807   -0.097985
 H   -0.755754    1.558481    0.231685
 H   -5.748225    3.852774   -2.227765
 H   -4.495968    4.596140   -1.242163
 H   -6.936319    2.156645    1.126015
 H   -7.126465    1.949872   -0.629610
 H   -6.056573    0.088852    2.282386
 H   -5.419182   -1.535332    2.025592
 H   -4.413261   -4.500627   -0.404762
 H   -5.814452   -4.134440   -1.436029
 H   -4.166217   -3.833121   -2.039773
