72 
4o76_ligand_xtb.xyz
 O    0.995936    3.387825    0.855467
 S    0.535894    2.210846    0.171510
 O    1.398197    1.728049   -0.888780
 N    0.333160    0.918935    1.179974
 C    0.000368    1.042831    2.596471
 C    1.235389    1.472837    3.394078
 C   -0.498653   -0.325767    3.067134
 C   -1.108645    2.082681    2.742347
 C   -1.095193    2.479499   -0.498720
 C   -1.456670    3.731869   -0.950027
 C   -2.731459    3.898348   -1.473648
 C   -3.610924    2.834652   -1.524066
 C   -1.947922    1.398933   -0.553661
 C   -3.236165    1.568135   -1.059749
 N   -4.175557    0.554143   -1.091287
 C   -4.092081   -0.740631   -0.652375
 N   -2.902696   -1.249092   -0.351418
 C   -2.860586   -2.496715    0.107471
 N   -3.913627   -3.278898    0.322429
 C   -5.093854   -2.778499   -0.012587
 C   -5.272293   -1.508918   -0.531106
 C   -6.624405   -0.984790   -0.901170
 N   -1.657600   -3.042618    0.450124
 C   -0.384690   -2.587709    0.154466
 C   -0.126921   -1.733285   -0.915048
 C    1.158069   -1.306982   -1.185827
 C    2.224389   -1.704751   -0.383773
 C    1.971697   -2.579461    0.672287
 C    0.691522   -3.025711    0.928503
 N    3.535082   -1.211852   -0.570832
 C    3.737117   -0.040908   -1.389172
 C    5.002322    0.660408   -0.909038
 N    6.167193   -0.259280   -1.034686
 C    7.432677    0.387523   -0.659079
 C    5.912418   -1.493341   -0.251070
 C    4.617137   -2.150125   -0.733531
 H    0.944078    0.151407    0.953724
 H    0.988539    1.584705    4.446155
 H    2.024568    0.728733    3.298551
 H    1.596796    2.423866    3.011663
 H   -0.810924   -0.270785    4.106070
 H   -1.343763   -0.642669    2.461609
 H    0.288066   -1.071446    2.976681
 H   -1.985958    1.782809    2.174904
 H   -1.385140    2.180427    3.788758
 H   -0.765353    3.047214    2.380178
 H   -0.757232    4.548044   -0.878156
 H   -3.043129    4.865773   -1.835381
 H   -4.605509    2.982684   -1.920319
 H   -1.627001    0.440100   -0.188780
 H   -5.096247    0.837175   -1.396440
 H   -5.938174   -3.435062    0.152284
 H   -6.885530   -0.111035   -0.302433
 H   -6.663543   -0.709785   -1.956097
 H   -7.375522   -1.750436   -0.725241
 H   -1.740804   -3.904501    0.970830
 H   -0.938015   -1.416337   -1.547046
 H    1.314845   -0.651408   -2.025201
 H    2.779073   -2.908356    1.310191
 H    0.517763   -3.711280    1.744748
 H    2.894160    0.647422   -1.261304
 H    3.835399   -0.286790   -2.460976
 H    4.894542    0.935211    0.140620
 H    5.186127    1.559633   -1.496962
 H    6.217385   -0.535618   -2.023414
 H    7.601114    1.270265   -1.273193
 H    7.391343    0.691737    0.385380
 H    8.266134   -0.300019   -0.793283
 H    5.813138   -1.211309    0.798391
 H    6.757816   -2.174410   -0.364631
 H    4.738575   -2.459442   -1.788881
 H    4.427469   -3.047153   -0.145423
