52 
4o78_ligand_dft.xyz
 N   15.092609   18.455987   18.419877
 N   17.925232   15.492093   16.338082
 C   16.171982   18.992604   19.167933
 C   15.258185   17.490767   17.455481
 C   14.407216   16.271541   15.768715
 C   15.614218   15.623062   15.573643
 C   16.656583   16.014765   16.433750
 C   19.296768   17.207358   17.410993
 C   21.832768   16.614616   20.161822
 C   20.614636   15.252771   18.845846
 C   16.474436   20.348962   19.067112
 C   18.399587   19.997754   20.500233
 C   19.407817   20.846423   22.425715
 C   18.629318   16.516359   21.487951
 O   18.891637   17.900765   21.382867
 C   18.056523   18.645433   20.620193
 C   16.929519   18.146806   19.971941
 N   14.191371   17.215383   16.691653
 C   18.969412   15.838729   17.235338
 C   20.239300   17.596879   18.332629
 C   20.901989   16.608917   19.075525
 C   22.408378   17.813413   20.839551
 N   22.100304   15.384976   20.549209
 N   21.374039   14.564074   19.742785
 C   19.635416   14.841807   17.927175
 N   16.461257   16.927187   17.377109
 C   17.583181   20.854314   19.753020
 O   17.970149   22.154172   19.731894
 C   17.214659   23.052360   18.953834
 O   19.552145   20.469124   21.066100
 H   14.250037   19.002245   18.320100
 H   18.027808   14.637889   15.812346
 H   13.553798   16.027375   15.138897
 H   15.744942   14.878420   14.797030
 H   18.750542   17.948090   16.842303
 H   15.872090   20.981739   18.425893
 H   20.386665   21.201719   22.754130
 H   18.673595   21.654698   22.529938
 H   19.105951   19.990625   23.040836
 H   18.567181   16.046646   20.500124
 H   19.476318   16.094095   22.030153
 H   17.700475   16.331308   22.043126
 H   16.663464   17.101182   20.027186
 H   20.444296   18.649187   18.503261
 H   23.076379   18.364239   20.167641
 H   21.603260   18.493410   21.139748
 H   22.976352   17.511443   21.722553
 H   21.423909   13.571393   19.893642
 H   19.363384   13.797375   17.804794
 H   16.173489   23.109905   19.297884
 H   17.688080   24.027218   19.077056
 H   17.228354   22.776396   17.891385
