33 
4o7a_ligand_dft.xyz
 C    0.561668    2.810144   -1.171788
 C   -0.643902    2.121138   -1.109371
 C   -0.921176    1.283917   -0.024449
 C    0.007323    1.189074    1.017838
 C    1.210891    1.871721    0.929308
 C    1.508523    2.681154   -0.160264
Cl    2.382507    1.702245    2.221855
 C   -2.141010    0.463325    0.003250
 C   -2.290570   -0.864046    0.263471
 C   -3.759987   -1.220432    0.220145
 O   -4.222706   -2.320631    0.424937
 N   -4.406011   -0.058359   -0.101386
 C   -3.491032    1.007467   -0.274475
 O   -3.816619    2.125877   -0.591912
 N   -1.444257   -1.884922    0.515736
 C   -0.039593   -1.832681    0.322817
 C    0.477337   -1.375265   -0.888416
 C    1.843111   -1.205141   -1.041077
 C    2.723005   -1.518003    0.002575
 C    2.196121   -2.022375    1.192182
 C    0.825432   -2.167952    1.358790
 O    4.043425   -1.319407   -0.193027
Cl    2.472563   -0.580263   -2.535233
 H    0.776912    3.445239   -2.025055
 H   -1.371107    2.218658   -1.908014
 H   -0.201101    0.566705    1.880493
 H    2.459047    3.199834   -0.213123
 H   -5.403030    0.035947   -0.219300
 H   -1.895309   -2.772826    0.703628
 H   -0.189222   -1.109815   -1.701190
 H    2.867953   -2.271326    2.009463
 H    0.424806   -2.512257    2.306902
 H    4.517096   -1.489857    0.629994
