60 
4o7b_ligand_xtb.xyz
 C   -3.580134   -0.674928    3.248728
 C   -3.711527   -0.964291    1.786452
 C   -2.721728   -1.695711    1.118411
 C   -2.872895   -1.917674   -0.252605
 C   -4.002122   -1.478763   -0.935709
 C   -4.993050   -0.793895   -0.255635
 C   -4.833098   -0.521111    1.093307
 O   -1.954802   -2.643909   -0.987368
 C   -0.699340   -2.199630   -1.080523
 N    0.137404   -3.017289   -1.696213
 C    1.374093   -2.577127   -1.856031
 C    1.796172   -1.344820   -1.388644
 C    0.846501   -0.561979   -0.724052
 N   -0.416629   -0.994654   -0.602953
 C    1.180761    0.736241   -0.181136
 C    2.418785    1.279345    0.153079
 N    2.257796    2.584384    0.499081
 C    0.987967    2.840064    0.409256
 N    0.266197    1.759508    0.023568
 C   -1.154935    1.676052   -0.199822
 C   -1.489673    1.889873   -1.684704
 C   -2.981820    1.704410   -1.901434
 N   -3.735599    2.664871   -1.047928
 C   -3.430482    2.484947    0.398270
 C   -1.941903    2.688776    0.635150
 C    3.740710    0.673454    0.254735
 C    4.857392    1.434224   -0.089363
 C    6.128705    0.907479    0.023945
 C    6.274510   -0.383726    0.501705
 C    5.184904   -1.151149    0.878992
 C    3.918059   -0.616104    0.755557
 F    7.506632   -0.906316    0.611972
 C   -1.554480   -2.256652    1.866590
 H   -3.691099   -1.592676    3.824638
 H   -2.601226   -0.259365    3.480304
 H   -4.347916    0.020519    3.577517
 H   -4.100022   -1.720624   -1.982769
 H   -5.889540   -0.484441   -0.772358
 H   -5.610052    0.005641    1.629185
 H    2.042329   -3.245694   -2.380196
 H    2.802787   -0.998553   -1.537705
 H    0.563352    3.797018    0.633921
 H   -1.454422    0.656714    0.073966
 H   -0.953462    1.155564   -2.285201
 H   -1.165441    2.883229   -2.004742
 H   -3.278971    0.690325   -1.614183
 H   -3.248297    1.873155   -2.946040
 H   -4.742161    2.548463   -1.204670
 H   -3.474514    3.620356   -1.323215
 H   -3.730526    1.471117    0.685013
 H   -4.013647    3.205105    0.974804
 H   -1.661569    3.709282    0.366127
 H   -1.726216    2.551186    1.694365
 H    4.711764    2.441306   -0.446084
 H    7.001341    1.480368   -0.245718
 H    5.339100   -2.145060    1.267536
 H    3.061512   -1.196043    1.065735
 H   -0.814956   -1.481210    2.071585
 H   -1.879900   -2.672863    2.816877
 H   -1.071933   -3.046275    1.296503
