60 
4o7b_ligand_dft.xyz
 C   -4.091811   -0.176486    2.989348
 C   -4.017549   -0.733344    1.588532
 C   -2.901303   -1.490947    1.185709
 C   -2.880003   -1.970297   -0.129594
 C   -3.941913   -1.774962   -1.008362
 C   -5.052437   -1.051194   -0.587995
 C   -5.076936   -0.520198    0.699044
 O   -1.863396   -2.780124   -0.594967
 C   -0.616979   -2.296603   -0.799733
 N    0.200216   -3.174934   -1.360798
 C    1.431941   -2.718518   -1.591029
 C    1.850394   -1.439261   -1.252363
 C    0.913250   -0.617477   -0.622539
 N   -0.346750   -1.053180   -0.428628
 C    1.252523    0.731292   -0.161948
 C    2.481124    1.302846    0.141186
 N    2.327749    2.631973    0.432855
 C    1.045453    2.868606    0.336255
 N    0.326118    1.764278    0.004107
 C   -1.107420    1.702321   -0.224916
 C   -1.435406    1.729418   -1.721780
 C   -2.921598    1.507168   -1.932972
 N   -3.725040    2.522624   -1.151497
 C   -3.366752    2.585896    0.314456
 C   -1.873329    2.818144    0.487738
 C    3.816558    0.685980    0.240728
 C    4.922971    1.354397   -0.292590
 C    6.197490    0.812263   -0.190131
 C    6.354516   -0.402248    0.462174
 C    5.280502   -1.081801    1.020276
 C    4.012739   -0.526422    0.910386
 F    7.577264   -0.931727    0.562773
 C   -1.789191   -1.805084    2.149853
 H   -4.203399   -0.977834    3.728370
 H   -3.184325    0.376622    3.257925
 H   -4.949222    0.492481    3.104781
 H   -3.890210   -2.221483   -1.995926
 H   -5.904155   -0.928590   -1.251007
 H   -5.953230    0.024837    1.042950
 H    2.114150   -3.413698   -2.073433
 H    2.857625   -1.104672   -1.458884
 H    0.588164    3.831385    0.516257
 H   -1.445966    0.742951    0.172302
 H   -0.908152    0.922242   -2.236514
 H   -1.101729    2.675792   -2.167046
 H   -3.230910    0.528295   -1.557756
 H   -3.220759    1.602066   -2.978709
 H   -4.718954    2.291101   -1.237432
 H   -3.599787    3.448860   -1.571250
 H   -3.674397    1.623431    0.730799
 H   -3.967520    3.382715    0.757350
 H   -1.603499    3.808648    0.099634
 H   -1.655656    2.817896    1.559947
 H    4.779131    2.310346   -0.785392
 H    7.064331    1.316307   -0.602200
 H    5.448928   -2.017489    1.541268
 H    3.166895   -1.037767    1.360412
 H   -1.084177   -0.969659    2.232159
 H   -2.183890   -2.012681    3.147861
 H   -1.224551   -2.681834    1.827649
