51 
4o7c_ligand_xtb.xyz
 C   -4.300784   -1.452527    1.178581
 C   -5.714453   -2.007674    1.125447
 N   -6.382836   -1.432853   -0.073273
 C   -5.724813   -1.903596   -1.322153
 C   -4.310474   -1.348464   -1.340375
 C   -3.505294   -1.745775   -0.098847
 C   -2.279864   -0.881314   -0.066630
 N   -1.034918   -1.335682   -0.020181
 C   -0.273701   -0.205545    0.000574
 C    1.164200   -0.298312   -0.059076
 C    1.946712    0.686638   -0.677368
 C    3.317887    0.572241   -0.753392
 C    3.935909   -0.553006   -0.210945
 C    5.315656   -0.931846   -0.155172
 C    5.458624   -2.264989    0.518741
 C    4.024791   -2.679478    0.890043
 C    3.158031   -1.556897    0.390364
 C    1.793421   -1.437847    0.464158
 N    6.327394   -0.257126   -0.610648
 O    7.551689   -0.597001   -0.565880
 C   -1.140350    0.909019   -0.013854
 C   -0.887991    2.322447    0.112153
 C    0.209784    2.845495    0.805997
 C    0.350118    4.215216    0.901596
 N   -0.500923    5.089995    0.381299
 C   -1.551386    4.597608   -0.261423
 C   -1.792930    3.249398   -0.420398
 N   -2.420756    0.448561   -0.069173
 H   -3.770993   -1.872341    2.032296
 H   -4.324882   -0.367889    1.310729
 H   -6.282341   -1.733669    2.017014
 H   -5.708323   -3.094711    1.027253
 H   -6.245474   -0.413601   -0.030256
 H   -7.384667   -1.643772   -0.078079
 H   -6.299428   -1.553681   -2.182327
 H   -5.720460   -2.995097   -1.317575
 H   -4.330563   -0.256497   -1.380411
 H   -3.788951   -1.696873   -2.230584
 H   -3.213435   -2.796962   -0.141478
 H    1.459729    1.543514   -1.119363
 H    3.897875    1.344958   -1.240044
 H    6.121308    0.649690   -1.056556
 H    6.110254   -2.173659    1.390247
 H    5.938318   -2.973991   -0.159536
 H    3.908088   -2.804579    1.968249
 H    3.741922   -3.622620    0.418881
 H    1.180416   -2.204141    0.913431
 H    0.927741    2.186388    1.270395
 H    1.190067    4.649162    1.431653
 H   -2.230770    5.337713   -0.670326
 H   -2.663237    2.893642   -0.950860
