58 
4o7f_ligand_xtb.xyz
 C   -0.980581   -2.447560    2.700642
 O   -1.371418   -2.325276    1.350720
 C   -2.573564   -1.786560    1.060006
 C   -3.446920   -1.223609    1.984953
 C   -4.678344   -0.724519    1.585172
 C   -5.062767   -0.779676    0.257663
 C   -4.195190   -1.319665   -0.683022
 C   -2.959089   -1.809257   -0.297564
 O   -2.155474   -2.380118   -1.257374
 C   -0.878568   -1.982825   -1.323966
 N   -0.074401   -2.753415   -2.031921
 C    1.174555   -2.333106   -2.154258
 C    1.637445   -1.169373   -1.565096
 C    0.711059   -0.423874   -0.827949
 N   -0.561158   -0.833026   -0.745775
 C    1.065962    0.817224   -0.174468
 C    2.310641    1.325362    0.187841
 N    2.159774    2.593447    0.656034
 C    0.889322    2.857983    0.613376
 N    0.158011    1.819591    0.140257
 C   -1.269890    1.749505   -0.040204
 C   -1.659186    2.050523   -1.496357
 C   -3.156190    1.858772   -1.669954
 N   -3.888149    2.756219   -0.732497
 C   -3.528494    2.489755    0.687310
 C   -2.034157    2.702873    0.881322
 C    3.632631    0.712124    0.217334
 C    4.746774    1.503794   -0.058709
 C    6.019323    0.971207   -0.000742
 C    6.168837   -0.358959    0.352777
 C    5.081920   -1.160762    0.659705
 C    3.813587   -0.618754    0.593199
 F    7.402513   -0.886900    0.409922
 H   -0.839591   -1.467308    3.166615
 H   -1.706424   -3.029752    3.274179
 H   -0.029706   -2.976381    2.681619
 H   -3.185476   -1.197831    3.030062
 H   -5.347414   -0.318154    2.328580
 H   -6.037301   -0.428731   -0.045783
 H   -4.479936   -1.410053   -1.720312
 H    1.820137   -2.962024   -2.751015
 H    2.654935   -0.842737   -1.683323
 H    0.470681    3.789789    0.934449
 H   -1.558889    0.714502    0.179221
 H   -1.138290    1.359539   -2.158300
 H   -1.356858    3.065291   -1.766637
 H   -3.429795    0.825826   -1.432794
 H   -3.463298    2.085785   -2.692082
 H   -4.898784    2.641014   -0.861421
 H   -3.643633    3.729618   -0.955666
 H   -3.803310    1.455783    0.919630
 H   -4.100121    3.161924    1.329701
 H   -1.777365    3.741289    0.661110
 H   -1.776946    2.508651    1.922253
 H    4.598035    2.539836   -0.317713
 H    6.890020    1.568797   -0.218012
 H    5.239828   -2.186724    0.951558
 H    2.958795   -1.226152    0.851255
