58 
4o7f_ligand_dft.xyz
 C   -1.474780   -2.140155    2.994251
 O   -1.683696   -2.222094    1.596140
 C   -2.807134   -1.703450    1.080834
 C   -3.813777   -1.066388    1.809255
 C   -4.980716   -0.629259    1.173119
 C   -5.149059   -0.803186   -0.194663
 C   -4.131476   -1.415370   -0.934699
 C   -2.969343   -1.839923   -0.313964
 O   -2.050353   -2.523767   -1.069348
 C   -0.779993   -2.066356   -1.178917
 N    0.017606   -2.879521   -1.851429
 C    1.262192   -2.426342   -2.010189
 C    1.709134   -1.217673   -1.495362
 C    0.783934   -0.462257   -0.770410
 N   -0.486077   -0.888724   -0.648651
 C    1.143318    0.811905   -0.140076
 C    2.378701    1.328986    0.226120
 N    2.240080    2.611925    0.685870
 C    0.959928    2.870661    0.628738
 N    0.228472    1.824348    0.162673
 C   -1.209117    1.799747   -0.045011
 C   -1.567577    2.046182   -1.514723
 C   -3.058397    1.853428   -1.725995
 N   -3.843983    2.737210   -0.782970
 C   -3.456150    2.574597    0.668174
 C   -1.960484    2.792766    0.842357
 C    3.709587    0.694371    0.241164
 C    4.821594    1.421161   -0.195558
 C    6.092725    0.862660   -0.163579
 C    6.241086   -0.429072    0.320796
 C    5.161509   -1.170784    0.780022
 C    3.897270   -0.597904    0.742845
 F    7.460704   -0.974505    0.352958
 H   -1.414243   -1.095837    3.324384
 H   -2.267685   -2.658671    3.544734
 H   -0.522096   -2.634075    3.179921
 H   -3.721625   -0.956572    2.883830
 H   -5.772131   -0.187095    1.771593
 H   -6.078014   -0.519925   -0.680481
 H   -4.238152   -1.602381   -1.999054
 H    1.931449   -3.064817   -2.581029
 H    2.725980   -0.884572   -1.650129
 H    0.512143    3.806545    0.932676
 H   -1.540333    0.792007    0.212940
 H   -1.050895    1.324018   -2.151981
 H   -1.243484    3.048515   -1.823894
 H   -3.357468    0.829342   -1.488519
 H   -3.380752    2.101563   -2.739160
 H   -4.840755    2.525823   -0.884489
 H   -3.721387    3.716860   -1.057230
 H   -3.748382    1.556966    0.942876
 H   -4.051905    3.289102    1.239814
 H   -1.705022    3.832700    0.601539
 H   -1.717673    2.633435    1.897069
 H    4.684690    2.435269   -0.556343
 H    6.963573    1.412148   -0.502715
 H    5.322907   -2.169229    1.170388
 H    3.046792   -1.160434    1.116683
