16 
4ob0_ligand_xtb.xyz
 B    7.682147   67.204508   -3.959163
 O    6.411170   66.742734   -3.976140
 O    8.447696   66.862252   -5.020197
 C    8.220524   68.750440   -0.428123
 C    9.233720   69.665373   -0.658476
 C    9.754973   69.801982   -1.933760
 C    9.268067   69.022226   -2.967314
 C    8.243608   68.096900   -2.762882
 C    7.731055   67.983314   -1.469891
 H    5.868865   66.998608   -3.231878
 H    9.349621   67.177711   -4.997239
 H    7.810647   68.636498    0.565224
 H    9.615106   70.269162    0.151979
 H   10.543831   70.516272   -2.121628
 H    9.680769   69.147340   -3.960424
 H    6.944200   67.266678   -1.271087
