68 
4oba_ligand_xtb.xyz
 C   -3.698312   -0.398033   -0.443304
 C   -4.938818   -0.992123   -0.617817
Cl   -5.050649   -2.428050   -1.571901
 C   -6.078406   -0.457898   -0.040069
 C   -5.964409    0.691240    0.723354
 C   -4.733610    1.297099    0.898480
 C   -3.591219    0.760474    0.313222
 C   -2.264016    1.447529    0.580686
 O   -1.818172    1.207564    1.899761
 C   -1.559879   -0.158165    2.131623
 C   -0.875309   -0.299184    3.504635
 C    0.586385   -0.676816    3.389422
 O    0.881776   -1.727524    4.141734
 O    1.416068   -0.080629    2.747992
 C   -0.695049   -0.816560    1.056491
 O   -0.164868   -1.889500    1.302554
 N   -0.567767   -0.196312   -0.126623
 C    0.390084   -0.792359   -1.078210
 C    0.111082   -0.391165   -2.504334
 C   -1.029218   -1.030182   -3.247363
 C    0.380820   -1.368698   -3.610191
 C    1.813367   -0.445482   -0.654650
 S    3.027820   -1.750587   -1.133907
 O    4.025166   -1.089976   -1.938722
 O    2.328830   -2.849350   -1.753566
 C    3.844280   -2.385735    0.403600
 C    4.356838   -1.189321    1.181454
 C    2.810217   -3.208816    1.141735
 C    4.980696   -3.242115   -0.129720
 C   -1.149917    1.100188   -0.427769
 C   -0.117900    2.208154   -0.427298
 C   -0.099375    3.131288   -1.465909
 C    0.810144    4.172799   -1.472506
 C    1.709248    4.293650   -0.424770
Cl    2.850069    5.590618   -0.426272
 C    1.699352    3.386674    0.622544
 C    0.784284    2.349749    0.619310
 H   -2.833089   -0.852190   -0.896850
 H   -7.034418   -0.935139   -0.184443
 H   -6.843982    1.116265    1.181886
 H   -4.648302    2.190517    1.498168
 H   -2.423343    2.532340    0.546079
 H   -2.512713   -0.715833    2.148381
 H   -1.369087   -1.053246    4.113633
 H   -0.943842    0.673252    3.996644
 H    1.811725   -1.986029    4.034317
 H    0.275985   -1.878867   -0.979183
 H    0.330407    0.648558   -2.718092
 H   -1.609059   -1.784013   -2.736253
 H   -1.611334   -0.421915   -3.924314
 H    0.783508   -0.978325   -4.531660
 H    0.771679   -2.335220   -3.338261
 H    2.180095    0.465327   -1.119447
 H    1.875957   -0.358853    0.424778
 H    3.556196   -0.677084    1.709828
 H    5.098880   -1.506219    1.913338
 H    4.829565   -0.490474    0.494363
 H    3.242620   -3.647964    2.039948
 H    2.460161   -4.010741    0.496564
 H    1.945480   -2.610134    1.415060
 H    5.519190   -3.723757    0.684903
 H    5.669868   -2.623850   -0.699747
 H    4.581632   -4.006471   -0.792559
 H   -1.605897    1.045984   -1.423152
 H   -0.804258    3.040046   -2.280144
 H    0.823805    4.884529   -2.282702
 H    2.400651    3.489351    1.435076
 H    0.782474    1.648216    1.437730
