48 
4obq_ligand_xtb.xyz
 C    2.787040   -1.427910   -0.950299
 C    4.002372   -2.048599   -0.963795
 C    5.124332   -1.434069   -0.371657
 C    4.970541   -0.153731    0.225250
 C    3.714410    0.464115    0.216507
 C    2.624237   -0.158597   -0.357399
 C    1.306966    0.489010   -0.355490
 C    0.152131   -0.255247   -0.124459
 C   -1.097501    0.350540   -0.125833
 C   -1.225073    1.713003   -0.354961
 C   -0.066446    2.437270   -0.581060
 C    1.186617    1.858891   -0.586316
 N   -2.217192   -0.481897    0.118913
 C   -3.502310   -0.152061    0.109754
 O   -4.002567    0.941413   -0.107505
 C   -4.501426   -1.306901    0.415223
 N   -5.827512   -0.696303    0.284064
 C   -6.712320   -0.721253    1.467327
 C   -8.058608   -0.214962    0.940498
 C   -7.996623   -0.425825   -0.586145
 C   -6.687382   -1.175187   -0.817598
 C    6.168331    0.395656    0.799780
 N    7.307055   -0.274639    0.768280
 C    7.313514   -1.469262    0.180182
 N    6.309822   -2.077283   -0.386137
 N    6.196605    1.596155    1.403420
 F   -0.177860    3.753645   -0.806407
 H    1.938220   -1.895605   -1.427926
 H    4.142520   -3.013675   -1.423204
 H    3.579940    1.425370    0.691926
 H    0.237106   -1.313529    0.074704
 H   -2.178758    2.210482   -0.364249
 H    2.052059    2.467083   -0.793447
 H   -1.970547   -1.445442    0.310543
 H   -4.341843   -1.680647    1.428298
 H   -4.373262   -2.125910   -0.294134
 H   -5.551766    0.319893    0.076599
 H   -6.304792   -0.101645    2.265011
 H   -6.791922   -1.752542    1.818394
 H   -8.200028    0.837611    1.176617
 H   -8.879421   -0.766838    1.391611
 H   -7.982570    0.531709   -1.104469
 H   -8.846737   -0.991665   -0.957542
 H   -6.825568   -2.253539   -0.709113
 H   -6.234552   -0.962174   -1.784968
 H    8.266056   -1.983047    0.176410
 H    5.404796    2.210276    1.420914
 H    7.084085    1.918210    1.748913
