48 
4obq_ligand_dft.xyz
 C    2.735506   -1.432681   -0.944626
 C    3.942370   -2.078653   -0.987712
 C    5.097453   -1.484411   -0.423038
 C    4.974318   -0.217820    0.193935
 C    3.725214    0.435599    0.212929
 C    2.608343   -0.153536   -0.344330
 C    1.295317    0.534994   -0.320044
 C    0.127335   -0.182237   -0.049396
 C   -1.108939    0.460765   -0.023169
 C   -1.216639    1.828367   -0.259900
 C   -0.040795    2.516159   -0.524055
 C    1.201697    1.907981   -0.564302
 N   -2.240436   -0.355433    0.265464
 C   -3.528138    0.003265    0.353120
 O   -4.003559    1.118697    0.170085
 C   -4.503305   -1.122502    0.756012
 N   -5.856949   -0.616293    0.427543
 C   -6.980409   -1.080366    1.312096
 C   -8.259086   -0.787690    0.506591
 C   -7.783799   -0.428797   -0.924355
 C   -6.328806   -0.878920   -0.975955
 C    6.187776    0.309586    0.764249
 N    7.333039   -0.340759    0.663848
 C    7.311859   -1.529123    0.023599
 N    6.285405   -2.147563   -0.506617
 N    6.215888    1.511920    1.395997
 F   -0.124809    3.826286   -0.763349
 H    1.866498   -1.887502   -1.412435
 H    4.056348   -3.045604   -1.465603
 H    3.626915    1.415138    0.673050
 H    0.196487   -1.245760    0.166144
 H   -2.161517    2.351066   -0.246335
 H    2.076489    2.497675   -0.814274
 H   -2.021359   -1.327852    0.438134
 H   -4.446228   -1.291225    1.835437
 H   -4.329009   -2.067612    0.236704
 H   -5.733827    0.413513    0.497313
 H   -6.909654   -0.557975    2.267385
 H   -6.831188   -2.149597    1.479327
 H   -8.825749    0.033006    0.949199
 H   -8.904655   -1.667556    0.506432
 H   -7.848057    0.649056   -1.097851
 H   -8.374738   -0.920825   -1.698050
 H   -6.230394   -1.953706   -1.152791
 H   -5.695763   -0.326795   -1.672064
 H    8.274192   -2.031492   -0.043623
 H    5.379693    1.907180    1.791884
 H    7.085004    1.737739    1.857944
