98 
4oc6_ligand_dft.xyz
 C    1.202927    0.660239    0.744548
 C    2.570999    0.073939    0.526747
 O    0.844245    1.076341    1.837209
 C    5.230503   -0.786244    0.255844
 C    4.751406    0.287447   -0.531561
 C    3.434811    0.699671   -0.388514
 C    7.081992   -2.095355    0.918071
 C    5.241923    1.968325   -2.110607
 C    0.481408    3.046570   -2.034225
 C    1.085749    3.821006   -1.039901
 C    2.278769    3.626981   -3.542554
 C   -0.811107    2.315501   -1.751218
 C   -0.796789    1.492379   -0.452979
 C   -2.030308    0.573238   -0.377566
 C    2.635021    5.088827    0.972003
 C    2.058662    4.893073    3.676754
 C   -2.222054    0.023184    1.057734
 C    1.091761    2.942697   -3.283259
 C   -4.534370   -0.912990    1.080716
 C   -5.134981   -0.987265   -0.335935
 N    0.431833    0.717525   -0.371191
 C    3.051078   -0.997670    1.258065
 C    4.370657   -1.430117    1.130438
Br    1.922462   -1.988999    2.406527
 O    6.521260   -1.126433    0.057944
 O    5.647537    0.826586   -1.383932
 C    2.292211    4.468429   -1.292528
 C    2.885511    4.388733   -2.554061
 O    2.951330    5.229092   -0.367383
 C    2.242969    6.224566    1.668905
 C    1.964303    6.122078    3.029543
 C    2.449285    3.761833    2.963676
 C    2.754698    3.858895    1.611504
 O   -1.988145   -0.436027   -1.358075
 N   -3.095274   -1.135228    1.116923
 C   -6.595182   -0.625728   -0.312935
 C   -7.054349    0.693950   -0.353441
 C   -8.404810    1.019629   -0.297157
 C   -9.331089   -0.008134   -0.185330
 C   -8.924914   -1.335716   -0.130389
 C   -7.567594   -1.623328   -0.194707
Cl   -5.915727    2.024474   -0.482893
Cl  -11.031776    0.384693   -0.114129
 C   -2.667851   -2.412091    0.889045
 O   -3.453716   -3.345004    0.760766
 C   -1.174553   -2.680785    0.827184
 C   -0.859813   -3.643596   -0.319020
 N    0.559049   -3.632098   -0.636311
 C    1.157719   -2.660503   -1.410149
 C    1.500049   -4.537887   -0.110696
 C    2.812478   -4.128590   -0.693341
 C    2.601967   -3.006381   -1.486377
 C    3.628103   -2.408544   -2.191898
 C    4.897078   -2.984044   -2.085063
 C    5.107936   -4.115039   -1.294981
 C    4.062128   -4.705512   -0.577656
 O    1.242544   -5.449762    0.633309
 O    0.582078   -1.715205   -1.927220
 H    3.052565    1.533965   -0.969467
 H    6.998997   -1.789934    1.968384
 H    8.134243   -2.167060    0.641824
 H    6.603310   -3.073563    0.785940
 H    4.405128    1.742306   -2.782985
 H    4.945886    2.783267   -1.439171
 H    6.108937    2.273837   -2.696936
 H    0.628362    3.903424   -0.059555
 H    2.740440    3.557575   -4.523353
 H   -1.044687    1.639479   -2.581478
 H   -1.641587    3.029580   -1.689032
 H   -0.798194    2.150463    0.422005
 H   -2.913376    1.172693   -0.629144
 H    1.824842    4.814331    4.733805
 H   -1.264018   -0.201622    1.526648
 H   -2.662335    0.814572    1.673497
 H    0.632852    2.335548   -4.058475
 H   -5.015557   -1.669034    1.706932
 H   -4.730233    0.067762    1.524465
 H   -4.582261   -0.333185   -1.013641
 H   -5.009785   -2.008622   -0.702027
 H    0.797127    0.301208   -1.218514
 H    4.699112   -2.284869    1.706785
 H    3.814764    4.920185   -2.731967
 H    2.161113    7.169047    1.141419
 H    1.660776    7.007249    3.580516
 H    2.502918    2.792135    3.446402
 H    3.065205    2.981929    1.053534
 H   -1.119633   -0.873727   -1.361306
 H   -8.724882    2.053836   -0.339256
 H   -9.658615   -2.128891   -0.041698
 H   -7.240811   -2.658687   -0.152239
 H   -0.578777   -1.780518    0.694918
 H   -0.866663   -3.127297    1.778252
 H   -1.402650   -3.351597   -1.221404
 H   -1.139121   -4.666385   -0.067379
 H    3.452490   -1.526343   -2.797782
 H    5.734547   -2.533327   -2.606784
 H    6.103317   -4.545513   -1.239974
 H    4.215281   -5.587216    0.035872
