98 
4oc6_ligand_xtb.xyz
 C    1.240912    0.828344    0.853312
 C    2.520498    0.055480    0.725814
 O    0.971839    1.498835    1.828025
 C    4.985003   -1.263278    0.545427
 C    4.648692   -0.246422   -0.382805
 C    3.421006    0.384182   -0.287796
 C    6.620968   -2.804225    1.307455
 C    5.368005    1.084119   -2.212295
 C    0.584345    2.821695   -1.956907
 C    1.149534    3.689463   -1.032799
 C    2.555278    3.025475   -3.322911
 C   -0.767560    2.217704   -1.695679
 C   -0.796292    1.449346   -0.364279
 C   -2.025756    0.515642   -0.309721
 C    2.329308    5.832582    0.494701
 C    1.034858    7.561133    2.232354
 C   -2.180512   -0.081715    1.120642
 C    1.297793    2.489065   -3.101638
 C   -4.400946   -1.167935    1.098157
 C   -4.972476   -1.332084   -0.322346
 N    0.428093    0.692141   -0.214049
 C    2.873416   -0.924363    1.632637
 C    4.085479   -1.597206    1.540335
Br    1.686215   -1.419199    3.028524
 O    6.197137   -1.842148    0.369917
 O    5.594949    0.021532   -1.316098
 C    2.413990    4.223967   -1.250641
 C    3.119843    3.888632   -2.403991
 O    3.054219    5.019870   -0.344893
 C    1.209784    6.537223    0.066636
 C    0.566864    7.394979    0.940061
 C    2.158338    6.867957    2.650796
 C    2.807006    6.004254    1.788499
 O   -1.989607   -0.464812   -1.310089
 N   -2.955644   -1.297759    1.126865
 C   -6.426897   -0.985172   -0.345498
 C   -6.866256    0.334317   -0.424024
 C   -8.211470    0.662387   -0.430652
 C   -9.147639   -0.354770   -0.346450
 C   -8.747865   -1.678228   -0.254635
 C   -7.397830   -1.975878   -0.254645
Cl   -5.722756    1.626093   -0.522956
Cl  -10.827456    0.041494   -0.356122
 C   -2.459399   -2.546665    0.954874
 O   -3.194249   -3.511787    0.852040
 C   -0.946621   -2.722789    0.931455
 C   -0.578994   -3.816480   -0.074856
 N    0.813650   -3.729374   -0.462780
 C    1.315314   -2.723557   -1.251441
 C    1.788148   -4.659653   -0.093554
 C    3.031768   -4.208688   -0.765845
 C    2.736991   -3.047663   -1.486202
 C    3.689722   -2.426440   -2.265592
 C    4.962545   -2.987849   -2.302008
 C    5.259133   -4.129956   -1.576661
 C    4.293785   -4.762573   -0.796793
 O    1.596776   -5.614576    0.608269
 O    0.681845   -1.762828   -1.644614
 H    3.145497    1.165922   -0.978310
 H    6.676800   -2.383412    2.315903
 H    7.617025   -3.103756    0.987081
 H    5.961871   -3.678250    1.312037
 H    4.506248    0.891397   -2.859260
 H    5.212691    2.029490   -1.684719
 H    6.269059    1.150552   -2.819511
 H    0.616698    3.940866   -0.127974
 H    3.099814    2.773283   -4.221240
 H   -1.023564    1.524889   -2.499957
 H   -1.530265    2.998389   -1.663863
 H   -0.837962    2.134659    0.487803
 H   -2.916386    1.112406   -0.536204
 H    0.527327    8.231231    2.909434
 H   -1.205543   -0.255896    1.574111
 H   -2.689850    0.656579    1.744475
 H    0.866038    1.811697   -3.823561
 H   -4.822617   -1.948667    1.737137
 H   -4.667926   -0.191169    1.502804
 H   -4.416263   -0.692682   -1.007221
 H   -4.828230   -2.368669   -0.624578
 H    0.718357    0.117879   -0.994767
 H    4.310162   -2.366103    2.261111
 H    4.098332    4.315032   -2.560766
 H    0.854097    6.417358   -0.946781
 H   -0.302705    7.940076    0.603792
 H    2.530028    6.995606    3.656311
 H    3.682101    5.455365    2.099230
 H   -1.140661   -0.934087   -1.301495
 H   -8.524375    1.692130   -0.499026
 H   -9.484686   -2.462341   -0.186040
 H   -7.079896   -3.004802   -0.184089
 H   -0.431251   -1.809316    0.651036
 H   -0.621998   -3.007964    1.934424
 H   -1.192324   -3.703175   -0.974020
 H   -0.745923   -4.808530    0.345477
 H    3.445571   -1.545628   -2.838349
 H    5.732063   -2.520516   -2.895795
 H    6.256717   -4.539697   -1.620944
 H    4.515166   -5.661066   -0.241375
