48 
4ock_ligand_dft.xyz
 P   -0.185934   -2.293797    0.172821
 O    0.264144   -2.612530    1.668420
 O    0.030230   -0.901716   -0.279329
 O    0.441892   -3.469622   -0.698094
 P   -2.993377   -1.650160   -0.394809
 O   -3.038852   -1.237088   -1.819268
 O   -4.279419   -2.448486    0.112616
 N   -1.820021   -2.686808    0.141618
 P   -3.204057    1.169879    0.061795
 O   -4.644598    1.427971    0.053362
 O   -2.416173    1.303013   -1.325855
 O   -2.827522   -0.358881    0.559515
 O   -2.373264    2.061640    1.064113
 C   -1.014178    1.811712    1.463227
 C   -0.076926    2.811309    0.795057
 O    1.147304    2.826464    1.553022
 C    0.322088    2.477439   -0.658399
 O   -0.380860    3.221435   -1.617999
 C    1.791697    2.904781   -0.696942
 O    1.893146    4.300830   -0.818265
 C    2.235283    2.553780    0.720222
 N    2.552410    1.109649    0.853391
 C    2.122362    0.336426    1.891229
 N    2.405873   -0.938028    1.767528
 C    3.066291   -1.011819    0.557197
 C    3.501643   -2.083623   -0.225937
 N    3.224552   -3.403907    0.115778
 N    4.099411   -1.851111   -1.388693
 C    4.218545   -0.575813   -1.791364
 N    3.777103    0.520158   -1.185539
 C    3.187303    0.252005   -0.020442
 H    1.027897   -2.030887    1.934559
 H    1.403831   -3.581853   -0.504723
 H   -5.080665   -2.143861   -0.338742
 H   -2.108439   -3.635806    0.348994
 H   -2.542324    0.481231   -1.863848
 H   -0.725827    0.783436    1.225123
 H   -0.994641    1.959027    2.545277
 H   -0.515286    3.813098    0.834060
 H    0.237304    1.399198   -0.839195
 H   -1.224005    2.768230   -1.770359
 H    2.369524    2.385459   -1.466633
 H    1.175510    4.563975   -1.414677
 H    3.093230    3.141346    1.050504
 H    1.582070    0.771151    2.718193
 H    3.180063   -3.582417    1.113100
 H    3.817873   -4.061910   -0.378213
 H    4.726252   -0.429365   -2.740113
