16 
4oct_ligand_xtb.xyz
 C   -2.444103    0.367564   -0.053676
 O   -3.456785   -0.403360    0.307593
 O   -2.531869    1.511944   -0.393081
 C   -1.102373   -0.407630   -0.000268
 O   -1.149074   -1.582440    0.293626
 C    0.117455    0.383254   -0.303827
 C    1.365057   -0.473853   -0.496153
 C    2.591599    0.187913    0.114693
 O    2.547207    1.153610    0.817106
 O    3.756809   -0.409653   -0.175117
 H   -3.110764   -1.297623    0.517915
 H    0.283998    1.056484    0.549368
 H   -0.087000    1.036525   -1.153886
 H    1.542072   -0.679597   -1.554086
 H    1.217447   -1.432459    0.014553
 H    3.658135   -1.187627   -0.739479
