45 
4od0_ligand_xtb.xyz
 F    6.991500    0.219171    1.182515
 C    6.883560   -0.683720    0.185205
 F    8.122606   -1.006157   -0.169956
 F    6.347886   -1.775220    0.766122
 O    6.217459   -0.251797   -0.860259
 C    4.860632    0.095781   -0.614060
 C    3.865127   -0.827595   -0.883568
 C    2.541643   -0.487554   -0.682143
 C    4.552550    1.358215   -0.136193
 C    3.229175    1.694433    0.066532
 C    2.210026    0.779099   -0.203015
 N    0.899394    1.176918    0.033448
 C   -0.266337    0.475426   -0.219363
 O   -0.311885   -0.634423   -0.698244
 N   -1.384262    1.186555    0.107822
 C   -2.702940    0.598863   -0.003314
 C   -3.717552    1.623600   -0.540466
 C   -5.048465    1.531123    0.210462
 N   -5.439677    0.151572    0.400052
 C   -4.515054   -0.685531    1.137448
 C   -3.178584    0.025116    1.336527
 C   -6.616883   -0.282746   -0.122752
 O   -7.352118    0.463669   -0.738848
 C   -6.947105   -1.744735    0.120686
 C   -8.332807   -2.087532   -0.410642
 H    4.128372   -1.806471   -1.251005
 H    1.758167   -1.195218   -0.893276
 H    5.339262    2.065630    0.073135
 H    2.983729    2.678616    0.438975
 H    0.803706    2.119574    0.383585
 H   -1.308160    2.036842    0.643165
 H   -2.588632   -0.232006   -0.706856
 H   -3.886228    1.450662   -1.602654
 H   -3.321173    2.634424   -0.428775
 H   -5.844651    2.010233   -0.362139
 H   -4.978240    2.027378    1.184770
 H   -4.336054   -1.611469    0.580605
 H   -4.938883   -0.954682    2.114636
 H   -3.267848    0.823345    2.075464
 H   -2.445881   -0.694747    1.703266
 H   -6.891320   -1.951713    1.191751
 H   -6.195332   -2.360511   -0.379872
 H   -9.086005   -1.486040    0.091060
 H   -8.388009   -1.872425   -1.474135
 H   -8.552495   -3.139912   -0.248316
