45 
4od0_ligand_dft.xyz
 F    6.915512    0.248949    1.151746
 C    6.803320   -0.759369    0.274636
 F    8.019656   -1.117906   -0.112992
 F    6.243384   -1.786609    0.928042
 O    6.107952   -0.407818   -0.826763
 C    4.788430    0.009724   -0.628433
 C    3.760657   -0.918378   -0.682508
 C    2.440122   -0.506583   -0.547579
 C    4.522677    1.358033   -0.443972
 C    3.206337    1.772807   -0.307378
 C    2.154009    0.850053   -0.356163
 N    0.853139    1.353062   -0.192868
 C   -0.344104    0.662033   -0.279931
 O   -0.438855   -0.521236   -0.562934
 N   -1.441844    1.461089   -0.039979
 C   -2.763958    0.857801    0.018515
 C   -3.846789    1.937872   -0.157398
 C   -5.151356    1.525497    0.542384
 N   -5.338049    0.084581    0.488905
 C   -4.325917   -0.729005    1.159252
 C   -3.016347    0.056301    1.300015
 C   -6.462216   -0.426620   -0.107493
 O   -7.303207    0.292528   -0.628136
 C   -6.609553   -1.944085   -0.094932
 C   -7.953798   -2.388317   -0.657725
 H    3.994836   -1.966099   -0.834788
 H    1.631897   -1.221623   -0.599970
 H    5.339544    2.069850   -0.409056
 H    2.995695    2.829414   -0.160106
 H    0.790603    2.358700   -0.138282
 H   -1.308100    2.285859    0.528659
 H   -2.811069    0.157249   -0.819946
 H   -4.018184    2.115679   -1.222969
 H   -3.506789    2.888755    0.274350
 H   -6.020224    1.980883    0.069294
 H   -5.136809    1.845976    1.592771
 H   -4.128030   -1.622802    0.559807
 H   -4.676328   -1.064545    2.145764
 H   -3.054066    0.734407    2.162381
 H   -2.195394   -0.645744    1.465895
 H   -6.478328   -2.315864    0.929148
 H   -5.790651   -2.382381   -0.681099
 H   -8.777521   -1.977347   -0.068386
 H   -8.079643   -2.035656   -1.683874
 H   -8.027320   -3.480129   -0.648240
