58 
4oex_ligand_dft.xyz
 C    5.583240   -1.932083    0.608173
 C   -0.461865    4.056624    0.513841
 C   -2.624387    1.828560    2.464459
 O    5.009616    1.906073   -1.016828
 O   -3.373572   -2.875751   -1.125799
 O   -2.810480   -0.930003   -2.677329
 C   -0.560662   -2.878820   -0.229308
 C    0.714962   -2.869674    0.318119
 C   -0.200318   -0.637809   -1.055990
 C    3.002940    3.082522   -0.665343
 C    4.738820   -2.350233    1.810283
 C    0.779236    4.225484   -0.359808
 C    3.330951   -2.759295    1.416997
 C   -4.163887   -0.099792    1.968904
 C   -3.943799    1.752101    0.331466
 C   -3.217933   -0.931465    1.120353
 C   -2.991710    0.888616   -0.474590
 N    1.019116    1.793258   -0.387511
 N    3.098547    0.692237   -0.745735
 O    2.714910   -1.617825    0.819578
 C    1.636764    2.986256   -0.466944
 C   -1.014605   -1.758850   -0.918199
 C    1.522461   -1.724702    0.232951
 C    1.050432   -0.587198   -0.462688
 C    1.783624    0.706619   -0.529628
 C    3.695892    1.877854   -0.807133
 N   -3.887144    1.378296    1.797852
 N   -3.336258   -0.511968   -0.267276
 S   -2.704569   -1.622746   -1.409535
 H    5.708419   -2.763720   -0.094073
 H    5.093988   -1.110937    0.075304
 H    6.577997   -1.606610    0.925474
 H   -1.115876    3.283799    0.098010
 H   -0.183487    3.758114    1.530733
 H   -1.016720    4.998349    0.568509
 H   -2.661435    1.535260    3.514232
 H   -1.762973    1.373964    1.977252
 H   -2.556371    2.913486    2.378166
 H    5.311980    0.988135   -1.102570
 H   -1.199574   -3.749744   -0.126337
 H    1.067401   -3.748508    0.843643
 H   -0.531729    0.219661   -1.629915
 H    3.522166    4.031687   -0.719225
 H    4.675162   -1.530004    2.534094
 H    5.200836   -3.198316    2.328487
 H    1.393168    5.051067    0.014319
 H    0.472881    4.510433   -1.374801
 H    2.748463   -3.075804    2.292066
 H    3.352710   -3.581673    0.689678
 H   -4.067593   -0.331046    3.031632
 H   -5.195929   -0.259791    1.649066
 H   -4.974858    1.591643    0.008855
 H   -3.690011    2.811418    0.254183
 H   -3.530623   -1.975226    1.201397
 H   -2.182696   -0.860503    1.492379
 H   -1.945988    1.113333   -0.210772
 H   -3.127868    1.129924   -1.530691
 H   -4.652876    1.874550    2.259685
