22 
4ojq_ligand_xtb.xyz
 O  -15.228390  -30.915301   35.548524
 C  -16.379261  -30.806914   35.872010
 O  -16.914336  -31.491210   36.888500
 C  -17.406773  -29.939613   35.176889
 C  -17.931184  -30.718245   34.010682
 C  -18.881578  -31.782564   34.065860
 C  -19.597789  -32.376599   35.104258
 C  -20.448996  -33.406013   34.776666
Br  -21.449195  -34.255459   36.165550
 C  -17.563744  -30.593622   32.702074
 N  -18.237179  -31.503373   31.935044
 C  -19.049997  -32.247672   32.737160
 C  -19.919442  -33.288219   32.432371
 C  -20.619929  -33.865685   33.468075
 H  -16.257188  -32.079275   37.293402
 H  -16.923323  -29.028194   34.827385
 H  -18.210858  -29.706152   35.874196
 H  -19.479922  -32.046957   36.124261
 H  -16.864826  -29.910009   32.260755
 H  -18.140834  -31.609969   30.939750
 H  -20.043969  -33.636474   31.418399
 H  -21.304287  -34.677482   33.277191
