19 
4olc_ligand_dft.xyz
 C    2.817628   -1.104243   -0.306226
 C    1.350414   -1.240324    0.074409
 N    0.505688   -0.062749   -0.219873
 C   -0.826462   -0.217299   -0.065679
 S   -1.966952    1.138487   -0.254057
 S   -1.583855   -1.660019    0.284347
 C    1.151491    1.228028   -0.453581
 C    1.427375    2.000472    0.835267
 H    2.952593   -0.932359   -1.378725
 H    3.337988   -0.317191    0.248518
 H    3.308631   -2.051251   -0.063363
 H    1.254648   -1.471100    1.142328
 H    0.914089   -2.087590   -0.458664
 H   -1.150494    2.207146   -0.298351
 H    0.541786    1.807815   -1.149289
 H    2.086133    1.042996   -0.982249
 H    0.504859    2.195141    1.390813
 H    2.095320    1.431332    1.489547
 H    1.904879    2.959000    0.608763
