58 
4olh_ligand_dft.xyz
 C   -5.530038   -0.712763    1.657874
 C   -5.938427    0.399725    2.359265
 C   -6.206405    1.585895    1.642335
 N   -6.636316    2.715460    2.280290
 N   -6.100193    1.669279    0.308789
 C   -5.708783    0.584491   -0.352682
 C   -5.404787   -0.623573    0.267216
 S   -4.788384   -1.988650   -0.674517
 O   -5.059465   -3.202577    0.077082
 O   -5.227096   -1.813449   -2.048221
 N   -3.121222   -1.809518   -0.688880
 C   -2.446324   -2.031831    0.591816
 C   -0.944565   -2.154014    0.363352
 C   -2.625215   -0.632228   -1.405069
 C   -1.123534   -0.770825   -1.597935
 N   -0.471145   -0.948566   -0.302206
 C    0.874767   -0.616071   -0.174888
 N    1.692982   -1.558796    0.294369
 C    2.990865   -1.291224    0.423249
 C    3.561182   -0.077266    0.058508
 C    5.049204    0.196436    0.175720
 C    5.493160    0.169385    1.661579
 F    5.388917   -1.042068    2.215410
 F    4.752865    1.019654    2.371428
 F    6.777086    0.559143    1.770101
 C    5.866261   -0.804831   -0.682449
 F    5.414562   -0.806014   -1.935546
 F    5.817428   -2.056575   -0.216660
 F    7.159827   -0.433985   -0.716470
 O    5.307018    1.480588   -0.319463
 C    2.696947    0.925361   -0.380195
 C    1.333944    0.691659   -0.479110
 C    0.422848    1.813945   -0.816398
 C    0.650512    2.640761   -1.916137
 C   -0.226258    3.689684   -2.169715
 C   -1.304295    3.875183   -1.312124
 N   -1.535981    3.105372   -0.244276
 C   -0.686241    2.108131   -0.011759
 H   -5.327817   -1.652178    2.162475
 H   -6.065399    0.367643    3.436508
 H   -6.450128    2.820479    3.264631
 H   -6.615222    3.560114    1.728559
 H   -5.644845    0.673023   -1.434196
 H   -2.831464   -2.955640    1.025970
 H   -2.637221   -1.197159    1.287250
 H   -0.725872   -3.054183   -0.229643
 H   -0.436079   -2.255884    1.322809
 H   -2.834196    0.294764   -0.846287
 H   -3.121182   -0.585416   -2.375886
 H   -0.746356    0.122596   -2.094770
 H   -0.916137   -1.637969   -2.244369
 H    3.593964   -2.098576    0.825830
 H    6.255358    1.651318   -0.236227
 H    3.090005    1.911529   -0.600160
 H    1.495802    2.451971   -2.572818
 H   -0.081516    4.346630   -3.020901
 H   -2.017340    4.677815   -1.485528
 H   -0.895832    1.490849    0.858171
