57 
4ool_ligand_dft.xyz
 C    4.264330    0.847668   -0.052240
 C    3.213383    0.090274    0.349158
 C    4.211469   -1.441994   -0.891219
 C   -2.384171   -0.991875    2.017554
 C   -1.249672   -3.003898    0.493326
 C   -2.527321   -2.617280    0.220219
 C   -1.100593   -1.415323    2.270520
 C   -3.187630   -1.596319    1.011675
 C   -1.573404    3.285681    1.214400
 C    2.148327    0.562339    1.239444
 C   -2.117369    1.243692   -1.994698
 C    1.741525    2.027503    1.170651
 C   -3.352904    0.537552   -1.510748
 C    0.031446   -0.935243   -1.647895
 C   -0.233509   -0.776329    3.322517
 C   -1.358639    0.594883   -3.121696
 C   -0.888673   -0.843212   -2.834181
 C   -0.270726    3.912953   -0.892460
 C   -0.194974    3.419569    0.559954
 N    3.174522   -1.209017   -0.133854
 N    1.580491   -0.302459    1.989054
 N   -1.808976    2.317605   -1.376012
 N   -0.572176   -2.406218    1.514322
 N    4.456657   -2.643385   -1.483671
 N    0.504452    2.171330    0.667338
 O   -3.856164    1.019317   -0.390241
 O   -0.090322   -0.263514   -0.641882
 O   -4.375234   -1.296663    0.719186
 O   -1.853076    2.414671    1.996152
 O    2.504358    2.928496    1.486929
 O   -3.777659   -0.432619   -2.108587
 O    0.989148   -1.851169   -1.775339
 O   -3.226722   -3.131451   -0.799902
 O    0.690247   -2.897948    1.764769
 O    0.600608    0.246506    2.786988
 O   -0.621914    2.876117   -1.796367
 S    5.312998   -0.092104   -1.064299
 H    4.477924    1.872381    0.214550
 H   -2.788945   -0.161968    2.584375
 H   -0.701987   -3.748854   -0.066071
 H   -2.290743    4.087815    0.951232
 H    0.375898   -1.519926    3.845083
 H   -0.867086   -0.250900    4.035712
 H   -0.508181    1.225561   -3.385190
 H   -2.028427    0.549827   -3.986921
 H   -1.756127   -1.479398   -2.623008
 H   -0.387537   -1.252752   -3.714268
 H   -0.979318    4.747849   -0.975023
 H    0.714624    4.242101   -1.226820
 H    0.357875    4.174813    1.135490
 H    5.025246   -2.662211   -2.316079
 H    3.682749   -3.293168   -1.480924
 H   -0.016380    1.331561    0.434317
 H   -4.382503    0.284469    0.027555
 H    1.586039   -1.765489   -0.989624
 H   -4.043140   -2.587064   -0.823414
 H    1.285730   -2.113758    1.668240
