178 
4ory_ligand_xtb.xyz
 O  -11.589994    1.638524   -1.069764
 C  -10.989242    2.902587   -0.944375
 C   -9.492356    2.788047   -0.645001
 O   -8.977519    4.087686   -0.441628
 C   -7.613566    4.117508   -0.086257
 C   -6.660359    3.668364   -1.204528
 O   -6.604827    2.275264   -1.426368
 C   -5.714414    1.526765   -0.635588
 C   -6.272944    1.051561    0.711705
 O   -5.975092    1.997728    1.725393
 C   -6.387925    1.619533    3.012535
 C   -7.882310    1.830504    3.282011
 O   -8.630023    0.814703    2.650033
 C  -10.021454    0.973936    2.795734
 C  -10.706658   -0.156403    2.011692
 O  -11.911062    0.232114    1.400686
 C  -12.983266    0.479853    2.289583
 C  -14.237715    0.752018    1.468723
 O  -14.152402    2.053828    0.927233
 C  -15.131435    2.334915   -0.047612
 C  -14.856586    1.680879   -1.405911
 O  -15.336565    0.343299   -1.403205
 C  -14.743945   -0.494991   -2.369502
 C  -13.385627   -1.031235   -1.902557
 O  -12.799856   -1.778531   -2.950300
 C  -11.578753   -2.377914   -2.599006
 C  -10.379888   -1.417263   -2.573887
 O   -9.325122   -2.100977   -1.925299
 C   -8.099026   -1.408513   -1.948461
 C   -7.078504   -2.281588   -1.224879
 O   -5.806773   -1.678386   -1.301173
 C   -4.793320   -2.465902   -0.722260
 C   -3.475203   -1.687721   -0.823948
 O   -2.335917   -2.468618   -0.567939
 C   -2.183604   -2.880855    0.772550
 C   -0.766082   -3.456353    0.902951
 O   -0.578160   -4.246503    2.048983
 C   -0.443441   -3.517657    3.259160
 C   -0.343523   -4.515599    4.422114
 O    0.968408   -4.816876    4.816312
 C    1.773805   -5.477066    3.852794
 C    3.066461   -4.682951    3.604724
 O    2.913684   -3.566239    2.762518
 C    2.861065   -3.865498    1.385030
 C    2.996218   -2.559810    0.607693
 O    4.365410   -2.297144    0.401169
 C    4.615738   -1.004560   -0.093798
 C    6.122159   -0.903303   -0.352548
 O    6.526467    0.350254   -0.859958
 C    6.621330    1.385837    0.100635
 C    7.377561    2.550305   -0.534439
 O    7.676115    3.477695    0.476728
 C    8.554791    4.500543    0.067703
 C    9.178016    5.130768    1.307212
 O   10.088036    4.207252    1.849932
 C   10.727489    4.660801    3.016571
 C   11.572033    3.523022    3.576260
 O   12.736691    3.381044    2.798569
 C   13.472097    2.227287    3.122534
 C   14.708461    2.170867    2.216784
 O   15.474694    1.010115    2.443198
 C   15.074427   -0.139665    1.728815
 C   15.763340   -0.223029    0.351941
 O   15.547061   -1.472457   -0.268349
 C   14.408893   -1.571366   -1.094596
 C   14.654319   -0.956195   -2.490354
 O   13.939992   -1.591680   -3.523544
 C   12.653219   -1.101750   -3.807703
 C   11.557285   -1.595397   -2.839191
 O   10.304758   -1.747440   -3.463387
 C    9.666605   -0.538981   -3.812990
 C    8.361173   -0.898299   -4.536938
 O    7.726327    0.228608   -5.091859
 C    6.919149    0.970357   -4.199322
 C    5.495602    0.402583   -4.071142
 O    4.782216    1.027299   -3.036769
 H  -11.708183    1.253195   -0.183273
 H  -11.477140    3.495616   -0.161565
 H  -11.126085    3.414245   -1.900086
 H   -8.986357    2.289489   -1.480758
 H   -9.340268    2.177003    0.258690
 H   -7.428810    3.511354    0.808644
 H   -7.408379    5.165770    0.145470
 H   -5.656373    4.052504   -0.979655
 H   -7.005138    4.098051   -2.150220
 H   -4.791564    2.092690   -0.451479
 H   -5.492745    0.638126   -1.233101
 H   -5.805466    0.090916    0.970539
 H   -7.352571    0.891120    0.629425
 H   -5.820783    2.253678    3.699069
 H   -6.142629    0.565164    3.200763
 H   -8.187726    2.818967    2.907576
 H   -8.058809    1.805266    4.368672
 H  -10.338784    1.944883    2.382352
 H  -10.293734    0.952426    3.862148
 H  -10.869795   -1.026064    2.661991
 H  -10.044918   -0.451592    1.193115
 H  -12.770570    1.351142    2.921445
 H  -13.143057   -0.398239    2.930884
 H  -15.122806    0.677049    2.119525
 H  -14.321131    0.006508    0.672452
 H  -15.107623    3.420500   -0.165722
 H  -16.124395    2.027285    0.305933
 H  -13.780115    1.715002   -1.598504
 H  -15.378141    2.247684   -2.191508
 H  -14.614617    0.029058   -3.323773
 H  -15.439793   -1.324330   -2.517544
 H  -13.526432   -1.673771   -1.019309
 H  -12.742187   -0.191959   -1.621250
 H  -11.402915   -3.156319   -3.345190
 H  -11.647998   -2.852110   -1.609637
 H  -10.628860   -0.495177   -2.030540
 H  -10.090576   -1.143505   -3.597810
 H   -8.182578   -0.431172   -1.453208
 H   -7.765224   -1.236535   -2.981600
 H   -7.063932   -3.274087   -1.697680
 H   -7.382265   -2.409676   -0.175309
 H   -4.691506   -3.421750   -1.258533
 H   -5.040529   -2.685869    0.328348
 H   -3.512138   -0.817158   -0.152937
 H   -3.363976   -1.334692   -1.851174
 H   -2.908681   -3.664452    1.034640
 H   -2.331283   -2.024903    1.447682
 H   -0.032104   -2.641138    0.861761
 H   -0.603246   -4.120396    0.050329
 H   -1.316103   -2.870279    3.408682
 H    0.462698   -2.897176    3.228618
 H   -0.888461   -5.425937    4.134258
 H   -0.804493   -4.089251    5.315543
 H    1.222515   -5.614437    2.919668
 H    2.043268   -6.462836    4.254672
 H    3.834259   -5.358334    3.200925
 H    3.405748   -4.281362    4.562574
 H    1.915542   -4.359149    1.125915
 H    3.694145   -4.525791    1.106716
 H    2.538286   -1.751812    1.195327
 H    2.477332   -2.631729   -0.360215
 H    4.299289   -0.249108    0.642409
 H    4.060383   -0.827634   -1.027641
 H    6.402110   -1.637736   -1.111594
 H    6.658753   -1.138225    0.574419
 H    7.180907    1.041031    0.979061
 H    5.630304    1.721029    0.427541
 H    6.771494    3.010061   -1.329933
 H    8.304180    2.165285   -0.987860
 H    8.015375    5.262575   -0.514522
 H    9.360614    4.084631   -0.551902
 H    8.387451    5.363862    2.035288
 H    9.691281    6.064429    1.029364
 H    9.981549    4.963885    3.767705
 H   11.374816    5.521046    2.792579
 H   10.977393    2.598858    3.545117
 H   11.838653    3.736160    4.623255
 H   12.852823    1.327693    2.974780
 H   13.789727    2.246844    4.176100
 H   15.358290    3.017968    2.447256
 H   14.387696    2.254192    1.172537
 H   13.984785   -0.179460    1.614197
 H   15.393025   -0.999190    2.324455
 H   16.842574   -0.140070    0.505779
 H   15.439729    0.604291   -0.289634
 H   13.526797   -1.131573   -0.613120
 H   14.242621   -2.643525   -1.225361
 H   15.711440   -1.112525   -2.728789
 H   14.446714    0.122987   -2.491789
 H   12.416493   -1.493900   -4.801355
 H   12.668845   -0.002834   -3.850808
 H   11.470670   -0.926711   -1.969321
 H   11.826900   -2.597035   -2.496161
 H   10.286988    0.063040   -4.489603
 H    9.461844    0.054415   -2.907751
 H    7.704808   -1.442387   -3.849255
 H    8.605811   -1.554257   -5.375587
 H    6.875322    1.984565   -4.604622
 H    7.367833    1.010243   -3.198769
 H    5.553077   -0.682901   -3.901952
 H    4.934371    0.576448   -4.991280
 H    5.293560    0.903473   -2.219628
