71 
4ot6_ligand_dft.xyz
 C    4.702938    1.082330   -0.046652
 N    4.084771   -0.061020    0.058213
 C    4.790642   -1.235381    0.021988
 C    6.144147   -1.267605   -0.122543
 C    6.130064    1.142098   -0.183959
 N    6.806169   -0.055050   -0.217245
 C    8.131746    0.260033   -0.371775
 C    8.176941    1.636215   -0.422502
 N    6.935531    2.182935   -0.307847
 N    4.042011    2.277085   -0.044714
 C    2.653526    2.486707   -0.115189
 C    2.192088    3.675792   -0.696476
 C    0.832797    3.905832   -0.840135
 C   -0.101815    2.969003   -0.390656
 C    0.367523    1.799261    0.205901
 C    1.724991    1.558756    0.363514
 C    3.951620   -2.459199    0.140496
 C   -1.548477    3.159942   -0.746747
 O   -1.846635    3.648509   -1.829288
 N   -2.506621    2.712583    0.131625
 C   -2.280729    2.362133    1.524507
 C   -3.443882    2.846422    2.382784
 O   -4.673564    2.353198    1.901722
 C   -4.922609    2.867364    0.602199
 C   -3.846030    2.432576   -0.378800
 C    2.569526   -2.308132    0.033685
 C    1.720311   -3.400305    0.174944
 C    2.246775   -4.673363    0.381521
 C    3.627312   -4.832181    0.462750
 C    4.476993   -3.737131    0.359548
 N    0.318218   -3.219683    0.071953
 C   -0.365118   -2.153771    0.597492
 C   -1.826365   -2.063402    0.249788
 O    0.156314   -1.293703    1.288414
 C   -2.628599   -1.302273    1.103972
 C   -3.955861   -1.050293    0.791607
 C   -4.482647   -1.601794   -0.375506
 C   -3.707178   -2.371731   -1.233539
 C   -2.368747   -2.592377   -0.921771
 S   -6.183553   -1.263649   -0.819208
 C   -7.114298   -2.264429    0.337951
 O   -6.460216    0.136435   -0.511391
 O   -6.408708   -1.795644   -2.159146
 H    6.753118   -2.158164   -0.187081
 H    8.896805   -0.498060   -0.430146
 H    9.055643    2.255627   -0.537705
 H    4.638491    3.074212   -0.227031
 H    2.905785    4.405246   -1.071779
 H    0.480828    4.802856   -1.339125
 H   -0.314729    1.025435    0.539829
 H    2.051359    0.644941    0.835413
 H   -1.351999    2.816398    1.874070
 H   -2.193122    1.275060    1.642938
 H   -3.459470    3.948430    2.403248
 H   -3.328646    2.478588    3.406338
 H   -4.974701    3.966833    0.648659
 H   -5.888004    2.469601    0.286895
 H   -3.946110    1.354385   -0.557946
 H   -3.957282    2.952145   -1.330676
 H    2.163390   -1.324870   -0.152107
 H    1.586977   -5.529467    0.495355
 H    4.042100   -5.820999    0.631810
 H    5.546386   -3.887799    0.470347
 H   -0.220475   -3.996242   -0.281285
 H   -2.178671   -0.884534    1.997749
 H   -4.551605   -0.385029    1.411638
 H   -4.142520   -2.755555   -2.149971
 H   -1.744878   -3.132637   -1.627730
 H   -6.888824   -1.941824    1.355729
 H   -8.170097   -2.096750    0.113531
 H   -6.856484   -3.314307    0.189593
