33 
4oty_ligand_dft.xyz
 O   -0.856224    3.416325    0.768421
 C   -1.730127    2.622081    0.532242
 O   -2.521161    2.769837   -0.545759
 C   -2.017568    1.391019    1.390351
 C   -1.990594    0.121310    0.575412
 C   -3.174290   -0.529318    0.227743
 C   -3.190071   -1.688312   -0.547663
 C   -4.479220   -2.400213   -0.870248
 C   -1.961202   -2.179133   -0.988246
 C   -0.768495   -1.545684   -0.667841
 C   -0.762640   -0.392639    0.120080
 N    0.423209    0.273058    0.470061
 C    1.699301   -0.244917    0.250129
 C    2.695731    0.462563   -0.437284
Cl    2.307710    2.026230   -1.107866
 C    3.983292   -0.040351   -0.592272
 C    4.299148   -1.289984   -0.075066
 C    3.337724   -2.024403    0.612847
 C    2.075935   -1.486520    0.780317
 F    1.160546   -2.177376    1.472323
 H   -3.066589    1.976166   -0.658347
 H   -3.003982    1.519404    1.851302
 H   -1.271572    1.371965    2.188745
 H   -4.116594   -0.129385    0.601615
 H   -4.649941   -3.238411   -0.184136
 H   -5.339390   -1.728524   -0.788721
 H   -4.465241   -2.807268   -1.886425
 H   -1.931979   -3.072942   -1.606477
 H    0.166439   -1.938196   -1.053492
 H    0.382611    1.284929    0.471419
 H    4.721878    0.546223   -1.126353
 H    5.298270   -1.691747   -0.204060
 H    3.555176   -2.995447    1.043010
