75 
4ou3_ligand_dft.xyz
 N    3.324416    1.090355    1.589183
 C    1.874766    1.435841    1.693069
 C    1.817559    2.938959    1.340664
 O    2.535953    3.666463    2.010860
 C    1.414138    1.236838    3.138075
 S   -0.384292    1.374997    3.411253
 N    0.996625    3.406851    0.377065
 C    0.365362    2.701322   -0.727555
 C    0.990928    3.298690   -2.010757
 O    0.956615    4.512247   -2.131639
 C   -1.153808    2.937437   -0.727873
 C   -1.852556    1.838069   -1.508642
 O   -1.196115    1.047134   -2.195261
 N   -3.180382    1.729963   -1.384704
 N    1.578902    2.501249   -2.936628
 C    1.688049    1.064231   -2.939609
 C    2.423632    0.552451   -1.704900
 O    3.215610    1.288683   -1.112412
 N    2.149312   -0.687585   -1.238190
 C    1.397126   -1.782155   -1.847372
 C    0.287153   -2.238191   -0.859979
 O    0.280428   -3.333841   -0.305281
 C    2.312492   -2.926026   -2.365480
 C    3.735767   -3.034662   -1.783651
 C    3.890651   -3.878898   -0.509876
 N    2.940899   -3.597183    0.553605
 C    2.935313   -2.469864    1.306759
 N    1.751224   -2.195167    1.950015
 N    3.893799   -1.590350    1.424438
 N   -0.649073   -1.293283   -0.644307
 C   -1.731259   -1.447387    0.295152
 C   -3.076141   -1.614290   -0.432291
 O   -3.241670   -1.263552   -1.587596
 C   -1.829656   -0.196005    1.204859
 S   -1.092334   -0.484922    2.860167
 N   -4.071700   -2.130426    0.335363
 C   -5.439413   -2.009168   -0.095095
 C   -5.945176   -0.576561    0.015941
 O   -7.231117   -0.503512   -0.322908
 O   -5.278316    0.374536    0.355570
 H    3.547882    0.055054    1.766529
 H    3.865121    1.725505    2.183635
 H    3.596591    1.235286    0.593282
 H    1.342537    0.760920    1.019520
 H    1.852650    2.024177    3.760912
 H    1.757965    0.275271    3.525349
 H    1.095467    4.406800    0.218627
 H    0.549851    1.634113   -0.626057
 H   -1.516011    2.953675    0.306691
 H   -1.374155    3.919667   -1.161329
 H   -3.610465    0.891177   -1.759154
 H   -3.713957    2.278857   -0.728004
 H    2.019169    3.020305   -3.683494
 H    0.695373    0.622444   -3.024644
 H    2.267005    0.772726   -3.821445
 H    2.723317   -0.937363   -0.434588
 H    0.865164   -1.372104   -2.709366
 H    1.777793   -3.873083   -2.239723
 H    2.419600   -2.773529   -3.443216
 H    4.371133   -3.504012   -2.542218
 H    4.159789   -2.035971   -1.633522
 H    3.753832   -4.935634   -0.754550
 H    4.910783   -3.789490   -0.122071
 H    2.023828   -4.003585    0.403535
 H    1.844177   -1.780900    2.863917
 H    1.003027   -2.869854    1.879049
 H    4.757682   -1.885702    0.980120
 H   -0.752223   -0.518760   -1.303655
 H   -1.529430   -2.351880    0.878242
 H   -1.286271    0.625336    0.738523
 H   -2.868857    0.116156    1.334386
 H   -3.900068   -2.291838    1.317260
 H   -6.079724   -2.666687    0.497349
 H   -5.525847   -2.320113   -1.139817
 H   -7.515525    0.421818   -0.242967
