75 
4ou3_ligand_xtb.xyz
 N    3.071948    1.093043    1.872444
 C    1.650503    1.473351    1.909971
 C    1.545134    2.980563    1.596226
 O    1.955079    3.769355    2.423841
 C    1.123298    1.237894    3.324382
 S   -0.675247    0.960645    3.438675
 N    1.051843    3.404011    0.418658
 C    0.598841    2.715356   -0.765611
 C    1.416486    3.308239   -1.935327
 O    1.541811    4.511331   -2.010742
 C   -0.904210    2.990636   -0.995632
 C   -1.587263    1.814280   -1.664433
 O   -0.946080    0.862481   -2.099760
 N   -2.915754    1.847314   -1.723199
 N    1.968362    2.483029   -2.844406
 C    1.901478    1.041686   -2.902467
 C    2.491305    0.437143   -1.638473
 O    3.335426    1.014978   -0.975950
 N    1.992137   -0.738560   -1.187186
 C    1.263681   -1.800371   -1.849355
 C    0.200542   -2.260010   -0.824481
 O    0.413321   -3.157829   -0.017329
 C    2.183815   -2.964584   -2.316740
 C    3.661471   -2.878342   -1.899613
 C    4.001676   -3.626252   -0.597760
 N    3.084167   -3.362134    0.489645
 C    3.083655   -2.321056    1.318314
 N    2.031570   -2.177363    2.125251
 N    4.080030   -1.444546    1.424032
 N   -0.911530   -1.536999   -0.855598
 C   -1.980776   -1.640626    0.106084
 C   -3.330172   -1.541115   -0.622217
 O   -3.444234   -0.993055   -1.696718
 C   -1.929039   -0.461101    1.089545
 S   -0.903987   -0.870468    2.563156
 N   -4.359851   -2.091982    0.050491
 C   -5.712282   -1.757490   -0.324901
 C   -6.018319   -0.311880    0.057355
 O   -7.294876   -0.017891   -0.109887
 O   -5.182772    0.458976    0.450966
 H    3.863873   -0.517871    1.836421
 H    3.569796    1.706683    2.515650
 H    3.426074    1.307965    0.936630
 H    1.115469    0.846580    1.189778
 H    1.296812    2.131867    3.927517
 H    1.624545    0.394623    3.800880
 H    1.141211    4.407476    0.273571
 H    0.754531    1.641569   -0.669942
 H   -1.386860    3.180659   -0.033301
 H   -1.025478    3.886867   -1.607964
 H   -3.390594    1.020543   -2.067568
 H   -3.458204    2.593987   -1.325545
 H    2.540394    2.959906   -3.527916
 H    0.860737    0.726531   -3.016635
 H    2.476596    0.701073   -3.765228
 H    2.401411   -1.012241   -0.303438
 H    0.744978   -1.379279   -2.710867
 H    1.759197   -3.901597   -1.953477
 H    2.143398   -2.994913   -3.404579
 H    4.266341   -3.334637   -2.683208
 H    3.973536   -1.835511   -1.830667
 H    3.954373   -4.701112   -0.782772
 H    5.022938   -3.388843   -0.292013
 H    2.172503   -3.811007    0.396528
 H    1.984833   -1.400439    2.761717
 H    1.196790   -2.725910    1.980299
 H    4.892132   -1.519058    0.835968
 H   -1.040202   -0.784789   -1.541499
 H   -1.886813   -2.592992    0.637764
 H   -1.493262    0.410681    0.604970
 H   -2.924907   -0.201326    1.448815
 H   -4.209976   -2.427594    0.989580
 H   -6.426141   -2.432348    0.145226
 H   -5.809164   -1.838072   -1.412449
 H   -7.493935    0.904276    0.122966
