17 
4own_ligand_xtb.xyz
 N   -1.290228    2.098068   -0.056239
 O   -2.812336   -0.041589    0.226158
 O   -1.969086   -2.024817   -0.201331
 F    3.000829   -1.303908    0.076729
 C    1.064410    1.737903   -0.069704
 C    2.151782    0.901979   -0.043720
 C    0.670867   -1.001430    0.055639
 C   -1.821717   -0.710754    0.029927
 C   -0.252414    1.241358   -0.027084
 C    1.937321   -0.468798    0.029524
 C   -0.449362   -0.163572    0.015105
 H   -1.124706    3.087442   -0.043079
 H   -2.221721    1.723036    0.058906
 H   -1.135897   -2.467063   -0.407865
 H    1.208115    2.807097   -0.115082
 H    3.159206    1.285162   -0.069548
 H    0.585183   -2.075845    0.143054
