17 
4owo_ligand_dft.xyz
 O    2.260410   -1.185972   -0.492824
 C    1.702753   -0.226397   -0.030393
 O    2.405396    0.760259    0.554293
 C    0.204831   -0.052395   -0.043184
 C   -0.618717   -1.180245    0.030981
 F   -0.074269   -2.391923    0.100064
 C   -2.002455   -1.098057    0.081866
 C   -2.595470    0.155931    0.047299
 C   -1.817235    1.302947   -0.049568
 C   -0.427045    1.206687   -0.096091
 N    0.370332    2.377291   -0.134578
 H    1.810896    1.493397    0.809425
 H   -2.582692   -2.010387    0.152446
 H   -3.676769    0.241478    0.085117
 H   -2.288304    2.280645   -0.097596
 H    0.993671    2.413199   -0.935492
 H   -0.187131    3.222825   -0.109642
