25 
4oym_ligand_dft.xyz
 C    4.253060   -1.827754    0.266948
 C    3.020595    0.178528   -0.001259
 C    1.867330    2.280375   -0.285907
 C    0.634608    1.629880   -0.239019
 C    0.605137    0.245890   -0.070447
 C    1.799741   -0.482232    0.042750
 C   -1.996870    0.065535    0.054039
 C   -3.242926   -0.641914   -0.086851
 O    4.228375   -0.425861    0.104048
 C    3.049385    1.570010   -0.166902
 C   -0.648304   -0.554951   -0.032061
 O   -0.617409   -1.779758   -0.064780
 N   -2.275619    1.311026    0.338977
 O   -3.606133    1.408648    0.374269
 N   -4.222528    0.204560    0.114289
 N   -3.411383   -1.946234   -0.427030
 H    3.742585   -2.133525    1.188900
 H    3.792719   -2.339128   -0.587784
 H    5.306078   -2.103641    0.328697
 H    1.900897    3.357136   -0.417973
 H   -0.281539    2.198600   -0.328295
 H    1.729675   -1.556432    0.160503
 H    4.013724    2.066483   -0.199961
 H   -2.605161   -2.533627   -0.266733
 H   -4.321472   -2.345764   -0.257053
