47 
4ozn_ligand_xtb.xyz
 P    3.769526   -0.874469   -0.495053
 O    2.906440   -0.286270   -1.530674
 O    5.144695   -0.133643   -0.342242
 O    4.227615   -2.349900   -0.620995
 P    2.022646    0.414071    1.104718
 O    1.671671    0.250101    2.617950
 O    2.523112    1.707502    0.657090
 O    3.099773   -0.754776    0.973321
 P    0.643162   -1.352443   -0.776071
 O    1.591653   -2.449632   -0.558363
 O    0.464001   -0.700758   -2.178926
 O    0.777969   -0.152737    0.286326
 O   -0.872982   -1.759915   -0.566897
 C   -1.286844   -2.666058    0.446132
 C   -2.755555   -2.388467    0.809097
 O   -2.880844   -1.258193    1.661575
 C   -3.628453   -2.074758   -0.416335
 O   -4.957801   -2.427217   -0.162577
 C   -3.451808   -0.553260   -0.545738
 O   -4.561348    0.058167   -1.129784
 C   -3.224416   -0.119372    0.925709
 N   -2.170134    0.864798    1.004147
 C   -1.201757    0.958705    1.951647
 N   -0.301195    1.866815    1.699968
 C   -0.689520    2.426797    0.506072
 C   -0.136636    3.394766   -0.357020
 N    1.029343    4.015780   -0.115509
 N   -0.837682    3.729200   -1.447603
 C   -1.975632    3.117774   -1.709832
 N   -2.556561    2.140278   -1.033389
 C   -1.872576    1.813665    0.068111
 H    5.037240    0.815615   -0.422008
 H    3.436956   -2.904886   -0.666935
 H    1.168223    1.023822    2.898169
 H    1.318489   -0.364763   -2.481148
 H   -0.667433   -2.549755    1.339171
 H   -1.182772   -3.686471    0.067574
 H   -3.157263   -3.241968    1.362931
 H   -3.255567   -2.591947   -1.309536
 H   -5.513671   -1.769558   -0.605220
 H   -2.542788   -0.356318   -1.121241
 H   -4.281598    0.960961   -1.360839
 H   -4.150113    0.310028    1.344577
 H   -1.211370    0.323060    2.815337
 H    1.689799    3.498488    0.450610
 H    1.394008    4.564549   -0.878423
 H   -2.490983    3.443057   -2.603709
