47 
4ozn_ligand_dft.xyz
 P    4.358045   -0.511175   -0.369227
 O    3.669577   -0.372040   -1.674467
 O    5.875470   -0.067842   -0.301435
 O    4.418974   -1.934660    0.278215
 P    2.135539    1.004323    0.641591
 O    1.881270    1.482582    2.110412
 O    1.875723    1.953708   -0.451711
 O    3.648441    0.448954    0.752753
 P    0.985402   -1.531288   -0.525930
 O    1.880344   -2.682823   -0.251576
 O    1.021178   -0.861948   -1.945216
 O    1.252998   -0.362826    0.565367
 O   -0.560990   -1.824889   -0.348385
 C   -1.005507   -2.934037    0.455870
 C   -2.492203   -2.786857    0.722399
 O   -2.735879   -1.666868    1.583418
 C   -3.376661   -2.565136   -0.506009
 O   -4.656724   -3.066568   -0.217947
 C   -3.419531   -1.040105   -0.613191
 O   -4.603443   -0.631429   -1.231120
 C   -3.321928   -0.616894    0.872886
 N   -2.476106    0.569494    1.014671
 C   -1.376401    0.712222    1.802745
 N   -0.711445    1.818394    1.567480
 C   -1.407144    2.436387    0.543361
 C   -1.158725    3.559993   -0.271823
 N   -0.026452    4.294783   -0.183027
 N   -2.090882    3.906476   -1.174208
 C   -3.155065    3.121003   -1.341748
 N   -3.436062    1.968867   -0.731042
 C   -2.523086    1.680944    0.207814
 H    6.043636    0.727621   -0.825310
 H    3.554062   -2.408390    0.140028
 H    0.928186    1.815420    2.129348
 H    1.946114   -0.568643   -2.143811
 H   -0.466751   -2.942864    1.407255
 H   -0.800457   -3.865832   -0.078426
 H   -2.824658   -3.684773    1.252148
 H   -2.953158   -3.026120   -1.408735
 H   -5.280372   -2.502310   -0.700668
 H   -2.532985   -0.683245   -1.147906
 H   -4.549855    0.342887   -1.285485
 H   -4.314919   -0.394966    1.276484
 H   -1.097227   -0.041395    2.522669
 H    0.813911    3.776729    0.054942
 H    0.088884    4.959553   -0.936200
 H   -3.870570    3.450376   -2.090267
