62 
4p3h_ligand_dft.xyz
 C    1.257182  -35.940453  -12.825916
 C    1.261237  -33.766869  -18.554313
 C    1.814698  -34.476173  -20.791398
 C    1.611201  -33.180312  -21.265554
 C    1.242003  -32.179837  -20.363230
 C   -0.668911  -31.352270  -17.481262
 C   -0.918181  -30.764701  -16.237984
 C   -3.037117  -31.814393  -17.692616
 C   -5.281075  -33.455853  -14.314096
 C   -4.023170  -33.028150  -13.554279
 C   -2.806948  -33.876260  -13.944257
 C   -3.111439  -35.363910  -13.720831
 C   -4.373232  -35.802456  -14.469845
 C   -5.580810  -34.940642  -14.093489
 C   -1.555943  -33.407068  -13.179589
 C   -0.351643  -34.264905  -13.462677
 C    0.198867  -35.106030  -12.490622
 C    1.739036  -35.925849  -14.128858
 C    1.139172  -35.050642  -15.026040
 N    0.131320  -34.235039  -14.708726
 C    1.626796  -35.022153  -16.453907
 O    2.464133  -35.812374  -16.857895
 N    1.039418  -34.039054  -17.197330
 C    1.076244  -32.447573  -19.011053
 C    1.640606  -34.771838  -19.448073
 C    0.741728  -31.333914  -18.048251
 C   -2.212721  -30.677447  -15.739197
 C   -1.740919  -31.887979  -18.196842
 C   -3.278576  -31.197758  -16.469224
 C    1.777689  -32.829785  -22.674992
 N    2.353933  -33.588923  -23.627487
 N    1.394924  -31.706869  -23.254371
 N    1.749884  -31.804558  -24.554220
 N    2.327367  -32.927084  -24.798479
 H    1.693877  -36.601028  -12.083059
 H    2.088523  -35.282061  -21.467232
 H    1.098660  -31.170053  -20.736210
 H   -0.089446  -30.357063  -15.663864
 H   -3.861080  -32.230994  -18.264398
 H   -5.128437  -33.277589  -15.387838
 H   -6.136221  -32.842357  -14.006792
 H   -3.811433  -31.967198  -13.731672
 H   -4.201034  -33.136469  -12.473395
 H   -2.609362  -33.723428  -15.015086
 H   -3.244690  -35.544014  -12.642466
 H   -2.261358  -35.978084  -14.039216
 H   -4.581070  -36.859599  -14.268037
 H   -4.192866  -35.716712  -15.550656
 H   -6.460112  -35.242578  -14.674149
 H   -5.827689  -35.105602  -13.034947
 H   -1.336283  -32.373034  -13.470778
 H   -1.762477  -33.411262  -12.101751
 H   -0.213237  -35.107519  -11.486568
 H    2.549014  -36.562420  -14.464102
 H    0.358611  -33.480450  -16.688917
 H    1.802838  -35.776126  -19.081847
 H    1.457671  -31.350739  -17.216496
 H    0.894748  -30.376803  -18.560821
 H   -2.390249  -30.200336  -14.779406
 H   -1.561717  -32.357767  -19.160028
 H   -4.290791  -31.125869  -16.083067
 H    2.796858  -34.492723  -23.572301
