66 
4p44_ligand_dft.xyz
 O    0.283861   -1.056861    2.636452
 C   -0.005984   -1.701288    1.510823
 O   -0.655579   -1.214341    0.607475
 C    0.556794   -3.099710    1.465872
 C    0.724017   -3.640088    0.041753
 C    1.560666   -2.762810   -0.915642
 C    0.752266   -1.685581   -1.638567
 O   -0.417703   -2.105721   -2.063131
 O    1.210059   -0.581911   -1.898657
 N    2.693753   -2.178389   -0.195755
 P    3.999879   -1.375479   -0.902156
 O    3.792380   -1.450413   -2.481438
 O    5.267658   -1.883951   -0.353595
 O    3.781052    0.216341   -0.694636
 C    3.925872    0.837024    0.574541
 C    2.562967    0.918534    1.286682
 C    2.663052    1.961719    2.393355
 O    2.969025    1.384147    3.565152
 O    2.555161    3.150482    2.238278
 N    1.572989    1.307608    0.311921
 C    0.289445    1.528572    0.633665
 O   -0.132266    1.511549    1.797421
 C   -0.617543    1.858981   -0.546193
 C   -0.580543    3.367732   -0.884827
 C   -1.039377    4.234719    0.289835
 C   -1.393840    3.620856   -2.162720
 C   -1.240304    5.033545   -2.724674
 N   -1.947524    1.377950   -0.229070
 C   -2.504417    0.368317   -0.941990
 O   -2.061503   -0.004192   -2.032539
 C   -3.713393   -0.263247   -0.337058
 C   -4.604724    0.449799    0.467360
 C   -5.714597   -0.177959    1.019865
 C   -5.910636   -1.525882    0.759505
 F   -6.974291   -2.140202    1.292930
 C   -5.043777   -2.258991   -0.039805
 C   -3.946754   -1.615672   -0.594609
 H   -0.001490   -0.115312    2.527148
 H    1.494001   -3.111961    2.028433
 H   -0.131516   -3.753828    2.014977
 H    1.206728   -4.620864    0.113808
 H   -0.253154   -3.796875   -0.418058
 H    1.904373   -3.420666   -1.730698
 H   -0.974227   -1.316420   -2.294370
 H    3.086549   -2.849161    0.455893
 H    3.005901   -0.928816   -2.727504
 H    4.293449    1.845429    0.370444
 H    4.652278    0.305079    1.195493
 H    2.318307   -0.050184    1.730938
 H    3.061909    2.101196    4.213192
 H    1.781722    1.045750   -0.645398
 H   -0.279673    1.295687   -1.420134
 H    0.473002    3.601160   -1.095129
 H   -2.096331    4.047896    0.516188
 H   -0.454812    4.035854    1.192342
 H   -0.931960    5.296937    0.053847
 H   -2.452120    3.417116   -1.955350
 H   -1.087563    2.894133   -2.925300
 H   -1.643246    5.790584   -2.044283
 H   -1.771795    5.130423   -3.676568
 H   -0.185651    5.272383   -2.904957
 H   -2.167816    1.416176    0.758865
 H   -4.451855    1.510460    0.644256
 H   -6.424977    0.360368    1.636954
 H   -5.237216   -3.311069   -0.216618
 H   -3.249206   -2.160123   -1.221397
