55 
4p5z_ligand_xtb.xyz
 F    9.136498    0.805827   -1.872824
 C    8.105878    1.133376   -1.072576
 F    8.573966    2.091241   -0.245824
 F    7.193923    1.723430   -1.853138
 C    7.574322   -0.049500   -0.312917
 C    6.210704   -0.171245   -0.099478
 C    8.476731   -0.979156    0.186384
 C    7.992922   -2.056989    0.906875
 C    6.636813   -2.197763    1.125182
 C    5.732069   -1.258637    0.627296
 N    4.378931   -1.463468    0.879767
 C    3.313664   -0.647973    0.539008
 O    3.427145    0.407654   -0.034341
 N    2.118480   -1.193725    0.942861
 C    0.830797   -0.678673    0.762745
 C    0.574228    0.519261    0.102965
 C   -0.725451    0.964510   -0.042602
 C   -0.238350   -1.420444    1.264572
 C   -1.534767   -0.971431    1.129349
 C   -1.787373    0.232766    0.479695
 N   -3.111885    0.680310    0.335851
 C   -3.567090    1.978802    0.435928
 N   -2.810154    3.042660    0.731839
 C   -4.190279   -0.120124    0.018584
 C   -5.359120    0.719181   -0.103121
 C   -4.933479    2.042198    0.173352
 C   -5.713342    3.266327    0.271773
 N   -7.022813    3.110040   -0.004543
 O   -5.210698    4.341397    0.593970
 N   -4.192781   -1.407588   -0.152518
 C   -5.407358   -1.931252   -0.472764
 C   -6.572481   -1.116415   -0.594120
 N   -6.539319    0.224501   -0.402734
 C   -5.510739   -3.317002   -0.683063
 C   -6.717253   -3.877896   -1.002708
 C   -7.864590   -3.079286   -1.122316
 C   -7.797727   -1.727976   -0.922431
 H    5.523979    0.560652   -0.490845
 H    9.533542   -0.860873    0.007792
 H    8.678112   -2.791375    1.300619
 H    6.270338   -3.044635    1.688597
 H    4.179429   -2.312588    1.389597
 H    2.137751   -2.085887    1.416559
 H    1.390508    1.090712   -0.304056
 H   -0.913639    1.873824   -0.592306
 H   -0.051313   -2.358841    1.767747
 H   -2.357784   -1.553772    1.509005
 H   -1.909484    2.942469    1.166478
 H   -3.370510    3.888122    0.858053
 H   -7.642991    3.898932    0.051120
 H   -7.369559    2.193631   -0.245597
 H   -4.614559   -3.910757   -0.587713
 H   -6.793777   -4.942779   -1.166195
 H   -8.806927   -3.542513   -1.375698
 H   -8.669744   -1.098270   -1.011461
