65 
4p6g_ligand_dft.xyz
 C    0.068027   -2.282875   -0.029247
 C   -1.791424    4.032520    0.380503
 C   -0.134089    2.494385   -1.265335
 C   -0.734525    3.639529   -1.774282
 C    1.666031   -4.358891   -0.875693
 C    0.286698   -4.479328   -0.952743
 C   -1.190444    2.882628    0.872109
 C   -0.356919    2.106164    0.059583
 C    1.445968   -2.128078    0.047391
 C   -0.533639   -3.433445   -0.521390
 C    2.249860   -3.190557   -0.373447
 C   -1.551946    4.391812   -0.941000
 C    0.200788    0.844901    0.639623
 C    4.284892    1.470756    0.192351
 C   -2.612011   -2.731369   -1.610559
 C   -2.713584   -3.551199    0.626174
 C   -2.804812   -1.277801   -1.165607
 C   -2.945756   -2.151133    1.209384
 C   -4.542532    0.548448    1.772053
 C   -4.250081    1.257761   -0.137775
 C    4.171623   -2.089822    0.418048
 C    2.037220   -0.819499    0.556582
 C   -3.522705    0.190018    0.686076
 C    3.494962   -0.760587    0.102541
 C    5.425146    3.629037    0.418260
 N   -1.964812   -3.564930   -0.616478
 N   -3.514587   -1.209913    0.167398
 N    1.323686    0.360404    0.068109
 N    5.161703    2.262699    0.827204
 O   -0.397187    0.263231    1.555908
 O    3.605969    1.782158   -0.776881
 O    3.605141   -3.139792   -0.347204
 O   -4.916963    1.718727    1.040740
 O    4.229737    0.248131    0.788019
 F   -2.130909    5.489726   -1.425938
 H   -0.524141   -1.460288    0.332166
 H   -2.433621    4.649671    0.998470
 H    0.495120    1.897639   -1.918643
 H   -0.577775    3.955371   -2.799403
 H    2.318140   -5.161471   -1.202531
 H   -0.166343   -5.385218   -1.342193
 H   -1.357263    2.575188    1.899479
 H   -3.591068   -3.169472   -1.852091
 H   -2.022699   -2.730391   -2.530334
 H   -2.188742   -4.145807    1.377236
 H   -3.684356   -4.035332    0.448695
 H   -3.416820   -0.716100   -1.875736
 H   -1.853235   -0.759929   -1.041922
 H   -3.667305   -2.174241    2.030631
 H   -2.025265   -1.691022    1.571092
 H   -4.149372    0.778914    2.764871
 H   -5.375859   -0.166834    1.862813
 H   -4.959890    0.853352   -0.876642
 H   -3.630046    2.028800   -0.601814
 H    4.085761   -2.316771    1.489188
 H    5.227104   -2.048763    0.148634
 H    2.008362   -0.805525    1.653651
 H   -2.490364    0.433142    0.949178
 H    3.541984   -0.579091   -0.976239
 H    6.419035    3.720458   -0.029944
 H    4.676397    3.912691   -0.321189
 H    5.353778    4.299432    1.278470
 H   -4.485326   -1.496495   -0.000277
 H    1.889281    0.993230   -0.498023
 H    5.697162    1.853392    1.577505
