65 
4p6g_ligand_xtb.xyz
 C   -0.795557   -1.745688   -0.795924
 C    0.862554    4.589286    0.100251
 C    2.028345    2.418613   -1.209250
 C    2.381070    3.706447   -1.565388
 C   -0.685155   -4.487224   -0.667045
 C   -1.826651   -3.870097   -1.134450
 C    0.512984    3.298569    0.441085
 C    1.093102    2.203099   -0.197904
 C    0.306322   -2.345999   -0.215724
 C   -1.899804   -2.480256   -1.194745
 C    0.381554   -3.736159   -0.171352
 C    1.798134    4.774630   -0.903624
 C    0.661457    0.852018    0.254407
 C    4.497068   -0.738671    0.497892
 C   -3.096013   -0.501887   -2.058237
 C   -4.179494   -2.034105   -0.618933
 C   -3.044809    0.574993   -0.952638
 C   -3.984417   -1.074898    0.566597
 C   -5.077011    1.355040    2.201614
 C   -4.316385    2.739825    0.879949
 C    2.469886   -3.674087    0.947912
 C    1.362613   -1.504355    0.469239
 C   -3.910708    1.295106    1.204938
 C    2.685540   -2.272303    0.365835
 C    6.552821    0.539739    0.811094
 N   -3.120709   -1.863632   -1.586369
 N   -4.072639    0.329079    0.091731
 N    1.484894   -0.160452   -0.060017
 N    5.582419   -0.449593    1.216731
 O   -0.408302    0.694248    0.849485
 O    4.189900   -0.230018   -0.560594
 O    1.458379   -4.412082    0.303808
 O   -5.438094    2.660147    1.756153
 O    3.743092   -1.688846    1.119873
 F    2.144213    6.022963   -1.248454
 H   -0.771394   -0.682095   -0.912356
 H    0.431033    5.443246    0.597328
 H    2.484829    1.595976   -1.737075
 H    3.102019    3.892069   -2.345263
 H   -0.604959   -5.561385   -0.647505
 H   -2.661096   -4.465886   -1.468401
 H   -0.207337    3.116247    1.224750
 H   -4.003830   -0.352396   -2.655573
 H   -2.239762   -0.366250   -2.719183
 H   -4.176129   -3.059464   -0.250681
 H   -5.142993   -1.846727   -1.105613
 H   -3.210737    1.557200   -1.396991
 H   -2.083844    0.591066   -0.432331
 H   -4.733605   -1.244636    1.339901
 H   -2.986453   -1.221347    0.988121
 H   -4.778808    1.350567    3.252749
 H   -5.892164    0.640848    2.052635
 H   -4.623709    2.948127   -0.148777
 H   -3.597633    3.496465    1.202808
 H    2.236366   -3.571257    2.016523
 H    3.383911   -4.264499    0.849778
 H    1.077794   -1.415887    1.531113
 H   -2.910938    1.157751    1.621842
 H    2.980895   -2.329374   -0.690630
 H    7.536489    0.083120    0.700166
 H    6.234916    0.947668   -0.146208
 H    6.610294    1.342585    1.546981
 H   -5.003808    0.460500   -0.325238
 H    2.380262    0.039678   -0.501672
 H    5.730248   -0.953801    2.076955
