54 
4p7e_ligand_dft.xyz
 C   -1.874885   -0.243306    1.903025
 C   -4.765314    0.081704    1.036972
 C   -4.870480   -2.075193   -0.810566
 C   -4.229719    0.584296   -0.290855
 C   -3.803977   -2.126571    0.267356
 C   -2.979820   -1.106843    2.427396
 C   -1.837572    1.121196    2.203689
 C   -0.837194    1.927679    1.681118
 C    0.152093    1.398973    0.839507
 C    0.137773    0.020452    0.574605
 C   -0.860029   -0.782970    1.108253
 C    1.167453    2.314292    0.268882
 C    0.924233    3.637606   -0.015276
 C    1.930267    4.472977   -0.555670
 C    3.182734    3.986335   -0.821567
 C    3.440391    2.627896   -0.549610
 C    4.114110    0.668478   -0.279115
 C    4.640487   -1.742334   -0.175416
 C    5.796302   -2.672367   -0.315396
 C    5.750544   -3.943625    0.508303
 C    5.515646   -4.015642   -0.959273
 O   -3.823922   -0.493851   -2.676801
 S   -4.845913   -0.455608   -1.647190
 O   -6.224597   -0.079892   -1.908014
 N   -4.154825   -1.248906    1.446201
 N    2.426012    1.851903   -0.017526
 N    2.866589    0.586306    0.172002
 N    4.979581   -0.404477   -0.311751
 O    3.503773   -2.119690    0.037033
 N    4.524033    1.875416   -0.716817
 H   -5.847418   -0.062235    0.978280
 H   -4.559119    0.792394    1.837201
 H   -5.880314   -2.259677   -0.434209
 H   -4.647141   -2.813073   -1.585686
 H   -3.139446    0.621963   -0.330285
 H   -4.626208    1.584276   -0.486357
 H   -2.843987   -1.778771   -0.118930
 H   -3.672358   -3.139519    0.654065
 H   -3.419151   -0.697670    3.340693
 H   -2.648473   -2.129335    2.627693
 H   -2.569619    1.557385    2.879654
 H   -0.804652    2.974502    1.963250
 H    0.933936   -0.431810   -0.002810
 H   -0.817667   -1.853346    0.920708
 H   -0.067142    4.040017    0.153142
 H    1.695127    5.510327   -0.766689
 H    3.973811    4.596470   -1.239107
 H    6.772660   -2.230015   -0.490928
 H    4.890466   -4.053780    1.160351
 H    6.693144   -4.302849    0.907203
 H    6.292204   -4.425872   -1.595965
 H    4.497108   -4.175230   -1.297283
 H   -4.881362   -1.744564    1.968612
 H    5.920193   -0.162306   -0.588239
