36 
4p7m_ligand_dft.xyz
 C   -3.508908   -0.731908    0.930962
 C   -4.853511   -0.403732    0.752598
 O   -5.623238   -0.332106    1.868440
 C   -5.353158   -0.161456   -0.527660
 C   -4.504048   -0.254579   -1.627112
 C   -3.164117   -0.586230   -1.469422
 C   -2.688301   -0.820201   -0.181863
 O   -1.374048   -1.205029    0.004039
 C   -0.397502   -0.258403   -0.048273
 C    0.912520   -0.720397    0.018689
 C   -0.638062    1.109546   -0.134898
 C    0.463457    1.965213   -0.145254
 C    0.280248    3.458103   -0.224118
 N    1.724507    1.531743   -0.091574
 C    1.947959    0.211384   -0.018549
 C    3.373795   -0.213415    0.040364
 C    3.778900   -1.492073   -0.354666
 C    5.116381   -1.866705   -0.281514
 C    6.069782   -0.967428    0.186517
 C    5.677264    0.312178    0.571975
 C    4.341819    0.687630    0.495341
 H   -3.116652   -0.919866    1.923592
 H   -6.526307   -0.102485    1.618901
 H   -6.400844    0.094846   -0.665959
 H   -4.898654   -0.068968   -2.621202
 H   -2.491832   -0.667034   -2.316204
 H    1.092175   -1.783576    0.122550
 H   -1.646472    1.503090   -0.180506
 H    0.751580    3.846379   -1.132585
 H   -0.776290    3.739493   -0.229110
 H    0.770042    3.941106    0.626982
 H    3.052625   -2.197459   -0.747653
 H    5.414262   -2.861727   -0.598905
 H    7.114033   -1.260172    0.244777
 H    6.415536    1.021634    0.934428
 H    4.026443    1.684447    0.783386
