36 
4p7m_ligand_xtb.xyz
 C   -3.665209    0.232589    0.666496
 C   -4.528116   -0.795786    0.309269
 O   -5.612901   -1.018442    1.095343
 C   -4.260591   -1.562659   -0.819450
 C   -3.145007   -1.285730   -1.588725
 C   -2.284238   -0.259966   -1.247591
 C   -2.544270    0.494714   -0.107266
 O   -1.775492    1.569881    0.260670
 C   -0.417323    1.525600    0.158411
 C    0.328243    0.351741    0.193636
 C    0.252941    2.742401    0.085310
 C    1.641209    2.734094    0.021621
 C    2.412847    4.014150   -0.069232
 N    2.344759    1.614754    0.030757
 C    1.716025    0.444886    0.128297
 C    2.574240   -0.749194    0.143271
 C    2.175515   -1.941209    0.743339
 C    3.010368   -3.043484    0.732218
 C    4.251897   -2.974120    0.122777
 C    4.661876   -1.789449   -0.467333
 C    3.832217   -0.685336   -0.454168
 H   -3.872513    0.827389    1.540527
 H   -6.129422   -1.752930    0.742058
 H   -4.927943   -2.367483   -1.095990
 H   -2.945920   -1.875338   -2.470766
 H   -1.425774   -0.036420   -1.862481
 H   -0.163477   -0.605530    0.260901
 H   -0.306605    3.663744    0.074779
 H    2.142594    4.554998   -0.974549
 H    2.188657    4.650816    0.784510
 H    3.476301    3.796007   -0.085330
 H    1.220054   -2.005947    1.242465
 H    2.691791   -3.961472    1.204930
 H    4.899462   -3.838727    0.113679
 H    5.632375   -1.728701   -0.938169
 H    4.138492    0.245369   -0.905258
