21 
4pax_ligand_dft.xyz
 C    1.664398   -1.070196   -0.000122
 O    1.741297   -2.421340   -0.000201
 C    0.371679   -0.492776   -0.000249
 N   -0.728703   -1.337477   -0.000311
 C   -1.893059   -0.790840    0.000168
 C   -3.135913   -1.629803    0.000079
 N   -2.085604    0.573968    0.000611
 C   -1.063319    1.519201   -0.000110
 O   -1.311836    2.711329   -0.000578
 C    0.272026    0.908966   -0.000075
 C    1.406220    1.729590    0.000166
 C    2.655752    1.144582    0.000266
 C    2.782820   -0.250173    0.000202
 H    2.671181   -2.678571   -0.000203
 H   -3.746166   -1.423340   -0.886431
 H   -2.850204   -2.681385    0.000965
 H   -3.746619   -1.422178    0.886048
 H   -3.023423    0.954469    0.000608
 H    1.272239    2.805383    0.000267
 H    3.550247    1.759274    0.000527
 H    3.773586   -0.700318    0.000402
