51 
4phw_ligand_xtb.xyz
 O   23.625100   77.656106   18.198091
 C   24.287843   78.299187   18.981679
 C   24.729212   79.679652   18.699932
 N   24.907679   80.611620   19.699822
 C   25.259802   81.781497   19.089462
 C   25.547674   83.050682   19.569388
 C   25.883061   84.008623   18.636188
 C   25.930866   83.719012   17.267710
 C   25.643591   82.463806   16.781076
 C   25.297876   81.478237   17.703697
 N   24.953786   80.173323   17.513229
 C   24.678222   77.764126   20.313175
 C   25.899954   78.071019   20.910842
 C   26.228870   77.529764   22.136764
 C   25.334366   76.686704   22.792437
 O   25.760469   76.151969   23.980740
 C   24.892814   75.912695   24.995695
 N   23.719291   76.515231   24.965506
 C   22.878502   76.340670   25.971721
 C   23.175386   75.550977   27.064247
 C   24.412058   74.920011   27.091105
 C   25.313448   75.083037   26.051353
 C   26.649014   74.391580   26.076165
 C   27.820892   75.381644   26.085856
 C   29.135365   74.600276   26.109385
 O   29.250616   73.726773   25.011198
 C   28.210087   72.778576   24.984244
 C   26.834637   73.439862   24.886876
 C   24.126274   76.350983   22.189907
 C   23.813044   76.879949   20.955458
 H   24.752847   80.465159   20.683610
 H   25.510471   83.276162   20.624731
 H   26.115493   85.009934   18.966856
 H   26.199615   84.507865   16.581019
 H   25.675396   82.236423   15.728145
 H   26.609581   78.707048   20.401812
 H   27.178218   77.747376   22.601167
 H   21.936497   76.863118   25.878486
 H   22.469046   75.426733   27.868983
 H   24.678432   74.290569   27.928615
 H   26.697840   73.797579   26.998229
 H   27.785368   75.994181   25.185660
 H   27.763975   76.032907   26.959710
 H   29.208126   74.028487   27.049662
 H   29.990441   75.276083   26.041843
 H   28.254955   72.149995   25.889362
 H   28.401645   72.152137   24.110693
 H   26.778340   74.002277   23.955114
 H   26.057431   72.673653   24.885224
 H   23.445334   75.677231   22.683830
 H   22.886153   76.619492   20.467300
