30 
4pid_ligand_xtb.xyz
 C   -1.446896   -0.685150    0.084651
 C   -2.315278   -0.332237    1.121614
 C    3.160424   -0.352314   -0.124613
 C   -5.152466    1.046604   -0.615110
 C    2.869622    0.666386    0.775322
 C    3.725725    1.743046    0.915869
 C    4.885279    1.810633    0.161237
 C    5.183962    0.797472   -0.733023
 C    4.322820   -0.276655   -0.878746
 N   -3.492474    0.211331    0.900229
 C   -3.842045    0.415501   -0.368664
 N   -3.108476    0.086483   -1.427003
 C   -1.931788   -0.465450   -1.203939
 C   -0.131137   -1.308287    0.413521
 O    0.023161   -1.981362    1.412452
 N    0.850408   -1.064842   -0.483343
 C    2.211879   -1.512787   -0.275368
 N   -5.967968    1.412625    0.266466
 H   -2.035368   -0.500632    2.153433
 H   -5.407241    1.195309   -1.659001
 H    1.969709    0.607433    1.370957
 H    3.489906    2.529238    1.617626
 H    5.554864    2.650385    0.271877
 H    6.088010    0.844023   -1.321869
 H    4.558584   -1.065089   -1.579372
 H   -1.377306   -0.756198   -2.088701
 H    0.693350   -0.419417   -1.241072
 H    2.195146   -2.115227    0.639011
 H    2.518423   -2.149497   -1.111946
 H   -5.644397    1.230820    1.218492
