48 
4pl0_ligand_xtb.xyz
 P    0.851322   -2.110142   -0.880339
 O    1.573318   -2.706938    0.372000
 O    1.625802   -2.838316   -2.068500
 O    0.785260   -0.652383   -1.013366
 P   -1.673258   -2.146000    0.197977
 O   -2.850104   -3.179606    0.329300
 O   -1.027735   -1.688335    1.419430
 N   -0.682195   -2.817460   -0.958510
 P   -3.511132   -0.126334    0.069310
 O   -4.027737    0.860622   -1.029278
 O   -4.500118   -1.056204    0.605347
 O   -2.310129   -0.919418   -0.660584
 O   -2.779770    0.723225    1.205148
 C   -2.747025    2.136265    1.242087
 C   -1.538254    2.754503    0.532579
 O   -0.397630    2.748081    1.376901
 C   -1.083753    2.043504   -0.754398
 O   -1.885133    2.329063   -1.866055
 C    0.360902    2.542743   -0.877564
 O    0.342345    3.789868   -1.529053
 C    0.772886    2.648701    0.611910
 N    1.540094    1.491882    0.991781
 C    1.173206    0.390107    1.701187
 N    2.081943   -0.541845    1.708248
 C    3.110536   -0.057732    0.933990
 C    4.321029   -0.593756    0.462010
 N    4.764318   -1.821364    0.794247
 N    5.077207    0.169565   -0.333049
 C    4.658690    1.379350   -0.660805
 N    3.531760    1.981057   -0.321711
 C    2.777422    1.223218    0.476310
 H    1.659533   -2.011102    1.088319
 H    1.564973   -2.317632   -2.868118
 H   -3.664363   -2.697452    0.566159
 H   -0.707129   -3.822463   -0.996533
 H   -3.333755    1.356508   -1.505051
 H   -3.664057    2.542507    0.805247
 H   -2.693452    2.405767    2.300164
 H   -1.789799    3.801837    0.290681
 H   -1.055912    0.961668   -0.610168
 H   -1.591544    3.184636   -2.216202
 H    0.992836    1.821839   -1.403479
 H    1.250752    4.060210   -1.701122
 H    1.405241    3.537031    0.775483
 H    0.224094    0.304491    2.190114
 H    4.108353   -2.469354    1.195692
 H    5.558360   -2.176250    0.289228
 H    5.319219    1.943348   -1.305816
