43 
4pl5_ligand_dft.xyz
 C   -1.757898   -0.333234   -0.091725
 C   -2.521244   -1.496040   -0.191207
 C   -0.278012   -0.380738   -0.171122
 C    1.837160   -1.451719    0.373291
 C    2.566231   -0.471710   -0.322998
 C    1.834684    0.555188   -0.942182
 C    5.967608   -0.288776    0.982255
 C    5.297849    1.497393   -0.401260
 C    4.744219    0.322720   -1.218001
 C   -4.742409   -2.730597   -0.230161
 C   -3.915715   -1.478656   -0.116706
 C   -4.551545   -0.253879    0.057639
 O   -5.908046   -0.206310    0.132053
 C   -3.801595    0.926885    0.156286
 O   -4.567043    2.047970    0.333963
 C   -3.904090    3.286595    0.444781
 C   -2.417759    0.891593    0.086387
 C    0.453812   -1.397020    0.450648
 C    0.448720    0.586464   -0.870330
 N    3.953985   -0.559266   -0.388232
 C    4.693546   -1.111133    0.742547
 O    5.681981    1.087008    0.902475
 H   -2.021145   -2.446821   -0.356893
 H    2.358684   -2.277956    0.845487
 H    2.340322    1.352245   -1.476306
 H    6.766673   -0.573279    0.280034
 H    6.340905   -0.474088    1.992257
 H    4.530981    2.266943   -0.265231
 H    6.154133    1.949505   -0.925710
 H    5.569805   -0.256849   -1.650557
 H    4.157888    0.679635   -2.065638
 H   -4.105321   -3.607601   -0.374496
 H   -5.346557   -2.885575    0.670426
 H   -5.440300   -2.666804   -1.072029
 H   -6.150875    0.723465    0.251224
 H   -3.239368    3.305418    1.317474
 H   -3.321577    3.507719   -0.458473
 H   -4.683141    4.040094    0.566865
 H   -1.834303    1.799236    0.196214
 H   -0.071015   -2.161822    1.016904
 H   -0.081816    1.385421   -1.382143
 H    4.068053   -1.042575    1.638874
 H    4.953579   -2.170807    0.592557
