43 
4pl5_ligand_xtb.xyz
 C   -1.704009   -0.255255   -0.085892
 C   -2.304903   -1.488415    0.137626
 C   -0.248626   -0.145536   -0.240163
 C    1.842870   -1.004507   -1.092362
 C    2.560185    0.050863   -0.514648
 C    1.831615    1.013514    0.189964
 C    5.900248   -0.937861    0.278906
 C    5.231705    1.150207    1.107315
 C    4.684945    1.297494   -0.324903
 C   -4.333695   -2.935111    0.539656
 C   -3.676398   -1.612481    0.294186
 C   -4.466398   -0.469279    0.219438
 O   -5.818154   -0.569836    0.370137
 C   -3.875182    0.781090   -0.009738
 O   -4.770887    1.832534   -0.068677
 C   -4.262678    3.118494   -0.309396
 C   -2.505987    0.884197   -0.158398
 C    0.476532   -1.102723   -0.947616
 C    0.461230    0.915890    0.314861
 N    3.926871    0.133713   -0.708197
 C    4.735281   -1.071594   -0.724034
 O    5.500704   -0.205655    1.411282
 H   -1.688945   -2.371779    0.214640
 H    2.361401   -1.745025   -1.682492
 H    2.332243    1.840603    0.669058
 H    6.772927   -0.463812   -0.194232
 H    6.197739   -1.921292    0.646163
 H    4.498827    1.475543    1.849440
 H    6.147568    1.750938    1.223959
 H    5.519482    1.388500   -1.030943
 H    4.075562    2.194801   -0.418511
 H   -3.593175   -3.722939    0.645634
 H   -4.941782   -2.887430    1.441157
 H   -4.999239   -3.178972   -0.287174
 H   -6.183878    0.321165    0.291206
 H   -3.573658    3.431967    0.481429
 H   -3.754333    3.173660   -1.277424
 H   -5.127021    3.781291   -0.317549
 H   -2.043735    1.838268   -0.354584
 H   -0.045775   -1.921995   -1.419808
 H   -0.064540    1.664594    0.890113
 H    4.113068   -1.918884   -0.432111
 H    5.135457   -1.255468   -1.731340
