18 
4pml_ligand_xtb.xyz
 N    2.711579   -1.478134   -0.116120
 C    1.750570   -0.487978   -0.068758
 C    0.396127   -0.815648   -0.113465
 C    2.116082    0.849009    0.099143
 C    1.150395    1.831020    0.201069
 C   -0.192164    1.503760    0.141062
 C   -0.572003    0.173282   -0.004339
 C   -2.028291   -0.139676   -0.070439
 O   -2.846775    0.608328   -0.562199
 N   -2.382272   -1.340945    0.458500
 H    2.432226   -2.353076   -0.529539
 H    3.642624   -1.181903   -0.360736
 H    0.113994   -1.847923   -0.269694
 H    3.164614    1.107756    0.138854
 H    1.449130    2.861866    0.320474
 H   -0.957354    2.260946    0.204331
 H   -3.361215   -1.573000    0.492658
 H   -1.739261   -1.890343    0.998949
