54 
4pmt_ligand_xtb.xyz
 C    3.667815   -2.436140    0.096946
 C    1.897368   -3.706343    0.678588
 N    3.091881    2.671336    2.204018
 C    5.478651   -1.001112   -0.517335
 N   -4.985542    0.019376   -0.083935
 C    3.992348    2.300533   -1.430564
 C    3.764039    2.516612    1.079473
 C    1.783848    2.845210    2.134217
 C    1.088909    2.889156    0.935010
 C    1.803375    2.728363   -0.239964
 C   -0.811325   -0.496979   -0.269341
 C   -2.988299   -1.352812    0.295348
 C   -1.422376    0.667775   -0.734782
 C   -7.113858   -0.192198    1.046037
 C   -7.002033    1.137242   -0.842688
 C   -5.696585    0.464251   -1.268419
 O   -7.805061    0.253771   -0.096226
 C   -5.801840   -0.897323    0.684273
 C   -3.609607   -0.191851   -0.169552
 C   -1.616619   -1.505028    0.251741
 C   -2.789582    0.819919   -0.680075
 N    0.570969   -0.592540   -0.348731
 C    1.400739   -1.610555   -0.041279
 N    0.975427   -2.777912    0.412927
 N    3.190497   -3.617916    0.555760
 C    2.804697   -1.373927   -0.232488
 N    3.223770   -0.180590   -0.686741
 C    4.522884    0.005768   -0.817429
 C    5.055101   -2.215436   -0.067298
 N    4.938055    1.215494   -1.290793
 C    3.176476    2.526346   -0.182092
 H    1.506961   -4.648111    1.044499
 H    6.528797   -0.785706   -0.651495
 H    3.313645    2.063194   -2.257756
 H    4.548985    3.205472   -1.688198
 H    4.831327    2.371521    1.195087
 H    1.275418    2.955886    3.082455
 H    0.019665    3.034224    0.923234
 H    1.305861    2.760276   -1.200433
 H   -3.577971   -2.166344    0.686930
 H   -0.814090    1.462880   -1.141410
 H   -7.787029   -0.878294    1.562702
 H   -6.889946    0.663279    1.701933
 H   -7.591096    1.426024   -1.714783
 H   -6.771858    2.030972   -0.242351
 H   -5.938370   -0.395773   -1.915621
 H   -5.087319    1.164652   -1.836589
 H   -5.282902   -1.160917    1.606334
 H   -6.030534   -1.814640    0.117303
 H   -1.154177   -2.410571    0.606657
 H   -3.227981    1.743983   -1.025760
 H    1.071841    0.225067   -0.681849
 H    5.741644   -3.011577    0.174529
 H    5.909458    1.444771   -1.163075
