17 
4pnn_ligand_dft.xyz
 C    2.399540    1.008281    0.000296
 C    2.699541   -0.362118   -0.000211
 C    1.081835    1.423733    0.000115
 C    1.690339   -1.306847   -0.000195
 C   -1.856744   -1.471336   -0.000148
 C    0.051899    0.475364    0.000040
 C    0.346498   -0.902032    0.000353
 C   -1.347181    0.917049    0.000033
 N   -0.641981   -1.884069   -0.000173
 N   -2.241186   -0.155899    0.000399
 O   -1.747078    2.066320   -0.000456
 H    3.201941    1.739098    0.000491
 H    3.736440   -0.685072   -0.000285
 H    0.814815    2.475474   -0.000099
 H    1.904710   -2.370254   -0.000473
 H   -2.670954   -2.192250    0.000331
 H   -3.222528    0.089666    0.000400
