17 
4pnn_ligand_xtb.xyz
 C    2.391408    1.005874   -0.000077
 C    2.694442   -0.355044   -0.001076
 C    1.078876    1.420911    0.001066
 C    1.692008   -1.298532   -0.000517
 C   -1.844092   -1.466294    0.000055
 C    0.048812    0.478749    0.001308
 C    0.352828   -0.896422    0.000924
 C   -1.348228    0.905120    0.000117
 N   -0.631348   -1.858322    0.000971
 N   -2.241796   -0.165237   -0.000809
 O   -1.758813    2.044926   -0.000753
 H    3.189310    1.733037   -0.000534
 H    3.727648   -0.670049   -0.002285
 H    0.814571    2.467621    0.001696
 H    1.908387   -2.354988   -0.001794
 H   -2.628354   -2.212342   -0.000584
 H   -3.225368    0.076052   -0.002418
