20 
4pnq_ligand_xtb.xyz
 C   -1.611240   -1.878477    0.016350
 C   -0.265089   -1.821853    0.018018
 C    0.396697   -0.551218    0.003414
 N    2.632172   -1.520701    0.045048
 C    1.806444   -0.415343   -0.005404
 C    2.364229    0.856691    0.005087
 C    1.571755    1.995267    0.013539
 C    0.200257    1.881267    0.004553
 C   -0.390595    0.616814   -0.000476
 C   -1.851442    0.538468   -0.008077
 O   -2.608932    1.491845   -0.020443
 N   -2.365217   -0.742691   -0.003268
 H   -2.155131   -2.810899    0.030508
 H    0.299567   -2.738342    0.049379
 H    2.272208   -2.382341   -0.328962
 H    3.598705   -1.346984   -0.179800
 H    3.441416    0.951824    0.004690
 H    2.038744    2.968566    0.018374
 H   -0.444054    2.745882    0.001619
 H   -3.374783   -0.808424   -0.006752
