31 
4po0_ligand_dft.xyz
 C    3.348950    0.033602   -0.065859
 O    4.680562    0.272055   -0.192958
 C    2.803789   -1.247004    0.207064
 C   -3.192193    0.482242    0.320252
 C    1.445268   -1.401712    0.323074
 C    0.561288   -0.306268    0.175547
 C    1.114464    0.975099   -0.101741
 C    2.514299    1.118645   -0.217328
 C   -0.844631   -0.449105    0.295329
 C   -1.685661    0.625238    0.140942
 C   -3.572226    0.336884    1.796950
 C    0.224408    2.072826   -0.255102
 C   -1.128264    1.900310   -0.140172
 C    5.576104   -0.805797   -0.042992
 O   -3.795213   -1.837752   -0.063590
 O   -3.953808   -0.380978   -1.757163
 C   -3.680953   -0.708709   -0.480965
 H    3.449571   -2.109478    0.325505
 H   -3.670862    1.372782   -0.099528
 H    1.031469   -2.384847    0.531589
 H    2.950911    2.090440   -0.426619
 H   -1.254704   -1.434125    0.508085
 H   -3.136337   -0.574725    2.213160
 H   -3.195043    1.193877    2.362182
 H   -4.658283    0.283545    1.922092
 H    0.635930    3.055642   -0.468944
 H   -1.794077    2.750817   -0.264291
 H    6.573504   -0.384277   -0.174086
 H    5.411049   -1.580221   -0.803360
 H    5.505190   -1.257483    0.954856
 H   -4.208503   -1.206050   -2.200945
