47 
4poh_ligand_dft.xyz
 C   -0.969106    0.417794    1.511366
 C   -1.802426   -0.343006    2.561978
 C   -3.303250   -0.214175    2.277385
 C   -3.581155   -0.804200    0.918502
 C   -4.601088   -1.722245    0.700072
 C   -4.772168   -2.284805   -0.560328
 C   -3.908373   -1.941671   -1.591881
 C   -2.875996   -1.017797   -1.404911
 C   -1.956148   -0.719954   -2.566038
 C   -2.726656   -0.429897   -0.135542
 C   -1.699589    0.593994    0.190274
 C   -1.538045    1.673602   -0.598064
 C   -0.616497    2.803065   -0.385022
 C   -1.264906    4.163492   -0.382166
 C    0.716823    2.663606   -0.231570
 C    1.442082    1.412677   -0.345836
 C    2.745141    1.267753   -0.045722
 C    3.500802    0.017847   -0.150051
 C    2.778593   -1.192161   -0.692933
 C    4.800429    0.026718    0.212958
 C    5.774289   -1.098217    0.163963
 O    6.907001   -0.962657   -0.219121
 O    5.348942   -2.309043    0.605864
 H   -0.021753   -0.111331    1.346973
 H   -0.691085    1.407424    1.888376
 H   -1.563929    0.032013    3.562515
 H   -1.544881   -1.408089    2.549717
 H   -3.590991    0.846377    2.301835
 H   -3.891522   -0.725615    3.046041
 H   -5.257170   -2.002446    1.520271
 H   -5.566084   -3.005337   -0.733804
 H   -4.027317   -2.406148   -2.567726
 H   -1.904912   -1.580586   -3.239915
 H   -2.308383    0.133607   -3.156786
 H   -0.942051   -0.480930   -2.233994
 H   -2.211949    1.785301   -1.447745
 H   -0.529213    4.965678   -0.275452
 H   -1.817753    4.327719   -1.315875
 H   -1.992939    4.246280    0.433684
 H    1.314790    3.555989   -0.047970
 H    0.872061    0.561412   -0.709801
 H    3.298803    2.130523    0.323363
 H    3.445238   -2.037320   -0.869086
 H    1.976467   -1.510097   -0.015320
 H    2.307128   -0.943419   -1.649222
 H    5.262313    0.968243    0.498070
 H    4.481064   -2.210162    1.019304
