32 
4pop_ligand_xtb.xyz
 C   -5.498816   -0.810139    0.063128
 N   -1.305829    0.066124    1.985494
 C    2.591194    2.058156    0.436917
 O    5.144670    0.308199   -0.430072
 C    4.391411   -0.516707    0.436867
 C    0.634866   -0.944259   -0.599168
 S    2.084161   -1.845910   -0.406058
 C    2.942470   -0.420842    0.080985
 C    2.139992    0.681166    0.077494
 C    0.800565    0.374200   -0.312781
 C   -0.288458    1.406322   -0.406022
 C   -2.092257    0.154412    0.879070
 N   -3.315453   -0.357978    0.974276
 C   -4.124656   -0.240498   -0.070582
 N   -3.808264    0.337285   -1.217161
 C   -2.586731    0.852575   -1.314495
 C   -1.659549    0.809391   -0.295372
 H   -5.446417   -1.811119    0.483239
 H   -6.082102   -0.190918    0.742240
 H   -5.980777   -0.830469   -0.909017
 H   -1.650175   -0.542294    2.709957
 H   -0.308454    0.119440    1.865176
 H    2.149069    2.373637    1.383229
 H    3.672132    2.088701    0.522565
 H    2.285856    2.764010   -0.333229
 H    6.081902    0.166942   -0.262322
 H    4.537515   -0.198208    1.483056
 H    4.707127   -1.564880    0.351108
 H   -0.258560   -1.444943   -0.916503
 H   -0.202497    1.930680   -1.363036
 H   -0.149552    2.145323    0.389204
 H   -2.352358    1.322385   -2.262684
