32 
4pop_ligand_dft.xyz
 C   -5.604696   -0.714429   -0.145075
 N   -1.470586   -0.102601    2.043856
 C    2.617307    2.074719    0.499947
 O    5.163109    0.316021   -0.661299
 C    4.501372   -0.421685    0.353016
 C    0.689446   -0.991709   -0.478591
 S    2.182391   -1.837171   -0.376233
 C    3.026336   -0.398786    0.089492
 C    2.187127    0.679768    0.144484
 C    0.830304    0.334019   -0.183157
 C   -0.290286    1.350534   -0.207300
 C   -2.207360    0.077077    0.902344
 N   -3.456864   -0.390975    0.911612
 C   -4.196952   -0.189822   -0.184897
 N   -3.796284    0.422377   -1.298677
 C   -2.539967    0.888656   -1.281634
 C   -1.676524    0.767594   -0.211855
 H   -5.601977   -1.791162    0.051679
 H   -6.160441   -0.238120    0.669052
 H   -6.106784   -0.516825   -1.093090
 H   -1.886087   -0.747422    2.701487
 H   -0.469467   -0.187890    1.935913
 H    3.705438    2.153623    0.539590
 H    2.265671    2.792776   -0.249288
 H    2.205680    2.387601    1.467638
 H    6.104829    0.321629   -0.450817
 H    4.695103    0.018030    1.343872
 H    4.856073   -1.462332    0.385479
 H   -0.218672   -1.508226   -0.760125
 H   -0.169630    1.995608   -1.087661
 H   -0.184363    2.012322    0.664108
 H   -2.208998    1.399731   -2.185894
