32 
4pov_ligand_xtb.xyz
 C   -5.473270   -0.811457    0.260911
 N   -1.220450    0.269520    1.931086
 C    2.541887    2.069299    0.353438
 O    5.138596    0.306721   -0.304606
 C    4.342989   -0.495982    0.545155
 C    0.648113   -0.978985   -0.670209
 S    2.087245   -1.865755   -0.367210
 C    2.914744   -0.419383    0.109661
 C    2.110744    0.678436    0.022067
 C    0.794819    0.350504   -0.426518
 C   -0.298632    1.364778   -0.616046
 C   -2.046427    0.241973    0.850627
 N   -3.261129   -0.264890    1.040907
 C   -4.107599   -0.256969    0.019753
 N   -3.836827    0.203521   -1.190366
 C   -2.624398    0.712850   -1.382775
 C   -1.661587    0.777539   -0.398234
 H   -5.418136   -1.649543    0.949542
 H   -6.098050   -0.041023    0.710430
 H   -5.917397   -1.115166   -0.681846
 H   -1.532131   -0.266299    2.724297
 H   -0.228559    0.316598    1.769221
 H    2.058928    2.415841    1.268523
 H    3.618006    2.106400    0.484896
 H    2.269899    2.747138   -0.453426
 H    6.066401    0.167582   -0.089649
 H    4.431889   -0.145346    1.587587
 H    4.666886   -1.544435    0.508050
 H   -0.227184   -1.494602   -1.012978
 H   -0.241634    1.770200   -1.631050
 H   -0.145639    2.193088    0.081750
 H   -2.427424    1.085195   -2.381494
