47 
4pp3_ligand_dft.xyz
 C    0.958017   -0.701876    1.696592
 C    0.618482    0.790773    1.706214
 C    1.899532    1.619302    1.665902
 C    2.904966    1.120118    0.647905
 C    3.971843    1.951965    0.298845
 C    4.967862    1.556496   -0.586496
 C    6.098369    2.479504   -0.962964
 C    4.886440    0.267867   -1.124134
 C    3.834340   -0.568651   -0.795368
 C    2.813298   -0.160600    0.076466
 C    1.665086   -1.047133    0.409421
 C    1.289658   -2.054762   -0.397030
 C    0.210468   -3.039936   -0.167144
 C    0.679700   -4.467891   -0.056584
 C   -1.100228   -2.732368   -0.107008
 C   -1.664895   -1.408353   -0.290627
 C   -2.975817   -1.139520   -0.144663
 C   -3.604218    0.166916   -0.340700
 C   -2.734528    1.321142   -0.756046
 C   -4.938057    0.257436   -0.131177
 C   -5.780246    1.468012   -0.264482
 O   -5.407887    2.588164   -0.521172
 O   -7.106562    1.255640   -0.065104
 H    0.061985   -1.310230    1.829379
 H    1.628837   -0.916850    2.541307
 H    0.030071    1.046766    2.593413
 H   -0.000294    1.023468    0.831002
 H    2.373979    1.588411    2.657368
 H    1.670092    2.673312    1.471466
 H    4.021061    2.945467    0.741901
 H    6.134163    3.356312   -0.309862
 H    7.065335    1.969131   -0.898368
 H    5.986680    2.836097   -1.993742
 H    5.662843   -0.084556   -1.798925
 H    3.820069   -1.574337   -1.204087
 H    1.867111   -2.239134   -1.303338
 H    1.341671   -4.590138    0.809069
 H   -0.156281   -5.166649    0.040731
 H    1.263229   -4.751563   -0.941829
 H   -1.811529   -3.539524    0.067524
 H   -0.972427   -0.619110   -0.573822
 H   -3.641654   -1.952696    0.145297
 H   -3.324682    2.212924   -0.953914
 H   -2.017465    1.546816    0.041688
 H   -2.157105    1.056849   -1.648387
 H   -5.453556   -0.655034    0.167852
 H   -7.276973    0.323196    0.116945
