47 
4pp3_ligand_xtb.xyz
 C    2.591278   -2.241446    0.763145
 C    2.992599   -1.613135    2.097151
 C    4.177574   -0.683253    1.883965
 C    3.954693    0.261583    0.736014
 C    4.768496    1.377680    0.624064
 C    4.647312    2.277512   -0.425365
 C    5.539498    3.477604   -0.502602
 C    3.680276    2.027572   -1.390781
 C    2.859022    0.924249   -1.292631
 C    2.963382    0.025457   -0.227438
 C    2.095395   -1.149757   -0.140924
 C    0.889930   -1.182903   -0.741550
 C   -0.020145   -2.305291   -0.854259
 C    0.536808   -3.667386   -1.167302
 C   -1.366717   -2.155712   -0.780213
 C   -2.055724   -0.955811   -0.444963
 C   -3.402798   -0.886268   -0.345165
 C   -4.161771    0.286961   -0.006156
 C   -3.429379    1.562263    0.255752
 C   -5.514341    0.183919    0.061579
 C   -6.469435    1.240087    0.385400
 O   -6.218875    2.391911    0.642985
 O   -7.769654    0.841139    0.386123
 H    1.816603   -2.986436    0.930230
 H    3.463669   -2.733136    0.322092
 H    3.249924   -2.391483    2.818185
 H    2.145468   -1.049780    2.495663
 H    5.069436   -1.281472    1.664510
 H    4.386675   -0.114742    2.793230
 H    5.523944    1.549254    1.379346
 H    5.310029    4.169058    0.308147
 H    6.583751    3.185262   -0.403174
 H    5.409676    3.999725   -1.447111
 H    3.574212    2.699767   -2.230225
 H    2.138018    0.741666   -2.075143
 H    0.534932   -0.274838   -1.211005
 H    0.422351   -4.344026   -0.320153
 H   -0.010541   -4.102192   -2.002900
 H    1.588235   -3.611901   -1.433129
 H   -1.986230   -3.028161   -0.951205
 H   -1.456537   -0.078676   -0.251409
 H   -3.974908   -1.788047   -0.530151
 H   -2.848966    1.843888   -0.621556
 H   -4.125515    2.359199    0.491826
 H   -2.741860    1.430433    1.090022
 H   -5.953959   -0.786919   -0.144531
 H   -7.865899   -0.094388    0.169256
