47 
4pp5_ligand_dft.xyz
 C   -4.124098   -3.422932    0.263768
 C   -4.024012   -1.980626   -0.167801
 C   -4.990664   -1.445306   -1.014391
 C   -4.934128   -0.111891   -1.406278
 C   -3.898838    0.690481   -0.959053
 C   -2.892815    0.176677   -0.129255
 C   -2.965940   -1.168063    0.281252
 C   -1.947982   -1.760353    1.236168
 C   -0.716735   -0.885369    1.459217
 C   -1.120252    0.581133    1.617029
 C   -1.775386    1.042431    0.340733
 C   -1.384297    2.128780   -0.346666
 C   -0.341981    3.107867    0.034170
 C   -0.853652    4.505060    0.273944
 C    0.971400    2.821722    0.121084
 C    1.574645    1.535174   -0.177563
 C    2.880654    1.271874    0.009705
 C    3.550999    0.003350   -0.281541
 C    2.733207   -1.096372   -0.915240
 C    4.866146   -0.099249    0.004377
 C    5.769539   -1.258609   -0.228497
 O    6.897545   -1.134638   -0.629552
 O    5.286407   -2.493633    0.061440
 H   -5.039602   -3.882276   -0.118740
 H   -3.277200   -4.015553   -0.103290
 H   -4.132169   -3.519270    1.355791
 H   -5.806049   -2.076413   -1.358617
 H   -5.707307    0.302754   -2.046104
 H   -3.885418    1.740872   -1.231701
 H   -1.637928   -2.751634    0.885281
 H   -2.445067   -1.931526    2.202919
 H   -0.040415   -0.975188    0.600326
 H   -0.165568   -1.232834    2.339584
 H   -0.258510    1.202305    1.866726
 H   -1.840423    0.665633    2.443665
 H   -1.920260    2.385938   -1.260783
 H   -1.555347    4.519948    1.116539
 H   -0.041169    5.206992    0.482956
 H   -1.405293    4.869616   -0.602104
 H    1.655298    3.618662    0.412420
 H    0.911626    0.774403   -0.583248
 H    3.513935    2.055068    0.425639
 H    3.348687   -1.916159   -1.288468
 H    2.001516   -1.500936   -0.205037
 H    2.167439   -0.699128   -1.763491
 H    5.396296    0.775584    0.371095
 H    4.436453   -2.405358    0.512570
