40 
4pp9_ligand_dft.xyz
 C    2.670081   29.388915  -20.351168
 C    2.636968   28.062652  -19.818379
 C    2.949628   26.970097  -20.579248
 C    3.312203   27.196910  -21.932285
 C    3.341941   28.519673  -22.463862
 C    3.014234   29.634432  -21.652522
 C    3.718715   28.348289  -23.797271
 N    3.879837   27.007780  -23.950100
 N    3.661680   26.281011  -22.855865
 C    3.893518   29.354691  -24.861686
 O    4.183962   30.511078  -24.608921
 N    3.709665   28.876042  -26.139286
 C    3.843046   29.648702  -27.301936
 C    4.257394   30.991941  -27.450790
 N    4.252732   31.347583  -28.730668
 N    3.830213   30.267376  -29.401287
 C    3.586152   29.212032  -28.585071
 C    3.835650   30.271043  -30.849509
 C    5.086271   29.642240  -31.429881
 C    6.346110   30.025372  -30.961030
 C    7.498755   29.461197  -31.494301
 C    7.413124   28.508576  -32.504061
 C    6.156174   28.122933  -32.975221
 C    4.994577   28.688467  -32.435767
 C    6.047743   27.133167  -34.011599
 N    5.955487   26.333210  -34.845287
 H    2.418155   30.217930  -19.696851
 H    2.356726   27.928471  -18.777850
 H    2.927933   25.961756  -20.180361
 H    3.053066   30.637550  -22.061713
 H    4.260687   26.536662  -24.758108
 H    3.208993   28.005639  -26.240710
 H    4.537629   31.689532  -26.679047
 H    3.257133   28.257359  -28.969757
 H    3.755053   31.319841  -31.145701
 H    2.941912   29.749928  -31.206071
 H    6.412638   30.766639  -30.169304
 H    8.471684   29.765443  -31.122414
 H    8.307383   28.062672  -32.925935
 H    4.025147   28.373167  -32.811179
