74 
4ps5_ligand_dft.xyz
 C   -5.209611   -0.757555   -1.375821
 C   -6.060965   -1.337433   -0.253879
 C   -5.115490   -1.272843    0.947136
 C   -4.441575    0.085312    0.783712
 N   -4.375699    0.324934   -0.716152
 C   -4.755658    1.717118   -1.100997
 C   -3.662245    2.683518   -0.682769
 O   -2.559542    2.339141   -1.484216
 C   -1.285427    2.562891   -1.035958
 C   -0.288170    1.883872   -1.736623
 C    1.034512    1.994919   -1.350458
 C   -0.946743    3.389121    0.029663
 C    0.387656    3.470921    0.434241
 C    1.388086    2.763479   -0.230978
 N    2.716896    2.861370    0.211351
 C    3.695655    1.899947    0.114189
 N    3.318642    0.660158   -0.213693
 N    4.935015    2.308352    0.380426
 C    5.874150    1.365424    0.261508
 C    5.639395    0.054243   -0.119491
 C    6.741097   -0.957965   -0.259301
 C    4.279253   -0.250247   -0.346380
 N    3.926297   -1.529719   -0.720693
 C    2.669201   -2.131595   -0.831386
 C    1.466626   -1.496372   -0.506643
 C    2.628312   -3.472921   -1.244141
 C    1.431226   -4.170482   -1.298320
 C    0.234042   -3.561800   -0.930065
 C    0.286448   -2.229614   -0.543596
 S   -1.225611   -1.444244   -0.022836
 O   -1.833054   -0.775880   -1.188232
 O   -2.031438   -2.432142    0.682729
 N   -0.855282   -0.231803    1.019708
 C   -0.436157   -0.411702    2.449405
 C    0.357007    0.850407    2.795405
 C    0.443022   -1.646124    2.681224
 C   -1.702925   -0.499421    3.306539
 H   -5.770990   -0.324423   -2.204009
 H   -4.501962   -1.492781   -1.764190
 H   -6.387683   -2.352293   -0.487925
 H   -6.953917   -0.724546   -0.087759
 H   -4.365894   -2.066991    0.898309
 H   -5.633146   -1.341780    1.906005
 H   -3.429073    0.137421    1.184817
 H   -5.045046    0.888041    1.215067
 H   -3.388575    0.168605   -1.007041
 H   -5.719566    1.950879   -0.642449
 H   -4.855560    1.747966   -2.187737
 H   -3.429644    2.577753    0.385361
 H   -3.985150    3.715877   -0.863982
 H   -0.570393    1.258680   -2.575397
 H    1.796839    1.464285   -1.904198
 H   -1.695075    3.968966    0.559665
 H    0.646251    4.087057    1.290576
 H    3.049669    3.751338    0.553057
 H    6.891535    1.684934    0.481370
 H    6.820158   -1.342991   -1.284456
 H    7.706440   -0.508255   -0.013267
 H    6.602328   -1.812911    0.414974
 H    4.703038   -2.156262   -0.867677
 H    1.486358   -0.464141   -0.192039
 H    3.551769   -3.980768   -1.510712
 H    1.433989   -5.209258   -1.610902
 H   -0.699639   -4.111944   -0.921588
 H   -0.442854    0.561489    0.533833
 H    1.266329    0.924228    2.187717
 H   -0.244139    1.750936    2.632000
 H    0.651304    0.822089    3.848300
 H   -0.066999   -2.570836    2.397469
 H    1.384847   -1.577727    2.131253
 H    0.678785   -1.710549    3.747650
 H   -2.302556    0.411238    3.197790
 H   -2.306475   -1.363976    3.015859
 H   -1.438672   -0.604032    4.363455
