30 
4ps7_ligand_xtb.xyz
 C   -6.370697   -0.322507   -0.088713
 C   -4.888573   -0.584898   -0.109024
 O   -4.379673   -1.671273   -0.252486
 N   -4.127856    0.544994    0.057401
 C   -2.758180    0.525706    0.066133
 N   -2.054104    1.589108    0.213676
 C   -0.719430    1.298316    0.183763
 C    0.319711    2.215663    0.309833
 C    1.618696    1.764552    0.250786
 C    1.917560    0.405915    0.076024
 C    0.885332   -0.517522   -0.044957
 C   -0.420386   -0.069940    0.004744
 S   -1.897611   -0.992677   -0.130875
 C    3.314156   -0.039989    0.016802
 C    3.737434   -1.210873    0.644255
 C    5.066950   -1.583598    0.557819
 C    5.935571   -0.769478   -0.153817
 N    5.549055    0.339680   -0.761018
 C    4.280680    0.689649   -0.679140
 H   -6.901835   -1.251794   -0.271585
 H   -6.663550    0.072884    0.881853
 H   -6.635095    0.402709   -0.855323
 H   -4.556529    1.452245    0.176850
 H    0.090870    3.259632    0.451667
 H    2.431216    2.466722    0.362383
 H    1.095967   -1.564456   -0.199725
 H    3.034477   -1.807276    1.208522
 H    5.423388   -2.482079    1.037895
 H    6.986314   -1.011045   -0.244844
 H    4.011320    1.593039   -1.211270
