37 
4pte_ligand_xtb.xyz
 C   -2.571551   -1.595979   -0.981063
 C   -1.425490   -0.857106   -0.934548
 C   -1.387747    0.393101   -0.274676
 C   -2.526086    0.866805    0.333687
 C   -3.718986    0.121437    0.307956
 C   -3.749860   -1.130434   -0.360218
 C   -4.968094   -1.840179   -0.361833
 C   -6.052984   -1.299509    0.274286
 N   -6.030437   -0.115983    0.907009
 C   -4.915812    0.558132    0.921056
 C   -0.137774    1.164883   -0.243344
 C   -0.142553    2.556440   -0.367464
 C    1.064015    3.228218   -0.322215
 N    2.230987    2.626284   -0.170518
 C    2.241100    1.300524   -0.058364
 C    1.086075    0.524301   -0.085192
 N    3.519394    0.776953    0.093401
 C    3.911713   -0.534784    0.151737
 O    3.145737   -1.472200    0.087412
 C    5.384372   -0.701580    0.299281
 C    5.865806   -1.909097    1.066552
 C    6.016082   -1.875071   -0.411175
 H   -2.592978   -2.547155   -1.493063
 H   -0.530017   -1.214940   -1.420431
 H   -2.515593    1.809160    0.862528
 H   -5.031617   -2.796214   -0.859594
 H   -7.006458   -1.810077    0.300304
 H   -4.938149    1.508653    1.441061
 H   -1.064937    3.095353   -0.514945
 H    1.110014    4.305509   -0.413277
 H    1.153371   -0.543234    0.034540
 H    4.225554    1.500879    0.119838
 H    5.960996    0.210672    0.377624
 H    5.101156   -2.550590    1.476830
 H    6.739512   -1.793430    1.689007
 H    6.996434   -1.733900   -0.839490
 H    5.353838   -2.494465   -0.996266
