38 
4ptg_ligand_dft.xyz
 C   -1.353420   -2.894804    0.001966
 O   -2.598732   -2.188313    0.000864
 C   -2.547990   -0.849676    0.000503
 C   -3.745223   -0.107070   -0.000210
 C   -3.562962    1.270047   -0.000629
 N   -2.371154    1.870933   -0.000408
 C   -1.313129    1.061825    0.000162
 N   -1.359275   -0.274121    0.000700
 C    0.038068    1.683029    0.000357
 C    0.185506    3.070980   -0.001298
 C    1.473867    3.584650   -0.001041
 N    2.575395    2.831813    0.000537
 C    2.415628    1.506928    0.002073
 C    1.170433    0.875626    0.002241
 N    3.633271    0.813601    0.004108
 C    3.859165   -0.540359   -0.000023
 O    2.971268   -1.379969   -0.002899
 C    5.305463   -0.916218    0.000097
 C    5.680522   -2.178431   -0.747033
 C    5.679627   -2.181340    0.742820
 C   -5.161710   -0.613065   -0.000704
 O   -6.096485    0.173743   -0.002427
 N   -5.335354   -1.956636    0.000706
 H   -0.769556   -2.647798   -0.886833
 H   -0.770568   -2.646742    0.891128
 H   -1.628160   -3.949152    0.002443
 H   -4.444733    1.904579   -0.001151
 H   -0.683581    3.716992   -0.002725
 H    1.638517    4.659382   -0.002189
 H    1.096668   -0.201490    0.003454
 H    4.428707    1.437245    0.004676
 H    6.029521   -0.106282    0.002141
 H    6.630276   -2.177340   -1.271605
 H    4.866048   -2.691042   -1.247994
 H    4.864605   -2.695965    1.240819
 H    6.628762   -2.182268    1.268515
 H   -6.282642   -2.300681   -0.000675
 H   -4.555535   -2.594980    0.000513
