25 
4puk_ligand_xtb.xyz
 N   -2.535375   -0.986073   -0.139749
 N   -2.347098    1.294458    0.211946
 C   -3.161150    0.175274    0.043644
 C   -5.402922   -0.762565   -0.021345
 C   -1.137578    0.800028    0.149058
 C    0.122917    1.442145    0.144099
 C    1.220726    0.662932   -0.048365
 C    3.531385   -0.846030    0.122701
 C    1.134311   -0.776132   -0.094784
 C   -0.099321   -1.420904   -0.257931
 C   -1.231899   -0.658286   -0.107071
 N   -4.474541    0.325407    0.089070
 C    2.592020    1.316094   -0.121916
 O    2.671747    2.515335   -0.277239
 N    3.604481    0.477576    0.072624
 N    4.507326   -1.671196    0.215906
 N    2.271538   -1.468165    0.025295
 H   -4.829740   -1.677303   -0.155715
 H   -6.011968   -0.836945    0.881780
 H   -6.063174   -0.611957   -0.877599
 H    0.203472    2.516857    0.181379
 H   -0.150029   -2.491012   -0.382003
 H   -4.817812    1.266704    0.217510
 H    5.410359   -1.213715    0.269697
 H    2.289674   -2.474697   -0.091317
