25 
4pum_ligand_xtb.xyz
 N   -2.539680   -0.976978   -0.148489
 N   -2.345442    1.301672    0.214599
 C   -3.161531    0.182793    0.044260
 C   -5.386096   -0.777486   -0.008633
 C   -1.137174    0.806047    0.144388
 C    0.124878    1.445990    0.139465
 C    1.221118    0.664780   -0.053715
 C    3.526214   -0.851240    0.130176
 C    1.131285   -0.773423   -0.105458
 C   -0.104051   -1.414883   -0.276084
 C   -1.234492   -0.651232   -0.119306
 N   -4.475622    0.329345    0.100073
 C    2.594842    1.313488   -0.122357
 O    2.679196    2.512202   -0.279139
 N    3.603582    0.471963    0.078357
 N    4.497824   -1.679837    0.236001
 N    2.265117   -1.469369    0.019692
 H   -5.248892   -1.279806   -0.967952
 H   -5.181643   -1.507103    0.777065
 H   -6.408011   -0.419726    0.077162
 H    0.207722    2.520435    0.180305
 H   -0.156610   -2.484121   -0.406312
 H   -4.819597    1.267913    0.234085
 H    5.402092   -1.226141    0.300324
 H    2.280960   -2.475657   -0.099613
