52 
4puz_ligand_xtb.xyz
 C  -19.952301    0.224905   44.665743
 C  -21.457801    0.316855   44.392806
 N  -22.106428   -0.815561   45.019241
 C  -21.549999   -2.061040   44.523456
 C  -20.046212   -2.081659   44.800082
 O  -19.405464   -0.983228   44.194320
 C  -23.473384   -0.759541   45.292875
 C  -24.298359    0.263065   44.820198
 C  -25.635420    0.309513   45.159899
 C  -26.202293   -0.665678   45.976322
 N  -27.558128   -0.571373   46.268046
 C  -28.372169   -1.426174   46.929319
 N  -27.957483   -2.555740   47.455672
 C  -28.840811   -3.355668   48.102407
 C  -30.170518   -3.049882   48.222353
 N  -30.613752   -1.881380   47.674250
 C  -31.836046   -1.295305   47.605619
 C  -31.650386   -0.118521   46.916622
 N  -30.361311    0.036302   46.559317
 C  -29.741139   -1.037055   47.022825
 C  -28.280685   -4.597263   48.655375
 C  -27.170567   -5.177035   48.005034
 C  -26.585290   -6.333242   48.451294
 C  -27.115135   -6.943557   49.591249
 C  -26.830183   -8.096190   50.367899
 N  -27.661365   -8.199640   51.372653
 N  -28.500802   -7.156686   51.305947
 C  -28.225524   -6.353668   50.245454
 C  -28.816723   -5.181438   49.789660
 C  -25.384398   -1.681764   46.466039
 C  -24.048684   -1.720196   46.130518
 H  -19.780816    0.312602   45.749764
 H  -19.419725    1.024837   44.148461
 H  -21.835110    1.240944   44.832289
 H  -21.625097    0.333886   43.302952
 H  -21.709032   -2.145116   43.434792
 H  -22.027495   -2.909105   45.010485
 H  -19.586949   -2.976397   44.376484
 H  -19.875735   -2.060436   45.887355
 H  -23.906913    1.027107   44.167326
 H  -26.254174    1.108949   44.776088
 H  -28.040894    0.240604   45.903034
 H  -30.899825   -3.685362   48.696002
 H  -32.713039   -1.736330   48.032106
 H  -32.382652    0.621460   46.661123
 H  -26.793548   -4.676509   47.127218
 H  -25.737943   -6.765753   47.941292
 H  -26.062258   -8.828727   50.219813
 H  -29.644762   -4.737453   50.320600
 H  -25.808267   -2.425590   47.118338
 H  -23.433419   -2.504627   46.543844
 H  -29.222586   -7.051142   51.999139
