38 
4pv7_ligand_dft.xyz
 O   -0.351136   -2.472262   -0.552506
 S    1.062968   -2.308646   -0.308760
 O    2.066658   -2.870387   -1.181050
 C    1.436949   -2.722231    1.382209
 N    1.344947   -0.601234   -0.312072
 C    2.618434   -0.012395   -0.250141
 C    3.888246   -0.582965   -0.376348
 C    4.974809    0.267327   -0.261569
 C    4.815286    1.645573   -0.034610
 C    0.387634    0.382154   -0.110136
 C    1.020082    1.585794    0.053928
 C    0.309920    2.875666    0.242416
 N   -0.409573    3.255411   -1.051525
 C    2.439673    1.364778   -0.023752
 C    3.556647    2.204468    0.081937
 C   -1.079706    0.194973   -0.179024
 C   -1.715620    0.125894   -1.426379
 C   -3.097790    0.047519   -1.531013
 C   -3.863988    0.033768   -0.367159
Cl   -5.589937   -0.059551   -0.476056
 C   -3.264212    0.091870    0.886520
 C   -1.878791    0.174425    0.967608
Cl   -1.142075    0.240924    2.546706
 H    0.726555   -2.209408    2.032402
 H    1.327860   -3.805484    1.471542
 H    2.464006   -2.424259    1.600368
 H    4.019552   -1.638084   -0.582112
 H    5.974742   -0.142102   -0.357962
 H    5.694015    2.276284    0.047859
 H    0.989187    3.697185    0.474555
 H   -0.470711    2.833973    1.006103
 H   -0.917848    4.142666   -0.979916
 H    0.258759    3.321688   -1.825339
 H   -1.082443    2.510111   -1.286611
 H    3.444104    3.270272    0.262138
 H   -1.104884    0.081343   -2.324384
 H   -3.577448   -0.025022   -2.500465
 H   -3.865956    0.068096    1.787613
