42 
4pvx_ligand_xtb.xyz
 O   -3.459738    2.568120   -0.532754
 P   -3.517173    1.203042    0.290235
 O   -2.544441    1.215835    1.573575
 O   -4.902427    1.133096    0.852574
 C   -3.327991   -0.328757   -0.751396
 P   -4.685501   -1.463425   -0.263523
 O   -4.002028   -2.896525   -0.519807
 O   -4.769455   -1.444497    1.319363
 O   -5.944441   -1.295660   -0.985795
 N   -2.039995   -0.924130   -0.657134
 C   -1.021613   -0.045103   -0.460576
 C    0.306286   -0.422951   -0.248953
 N   -1.402343    1.227176   -0.536602
 C   -0.485916    2.178429   -0.416192
 C    0.849417    1.905471   -0.238863
 C    1.267592    0.568114   -0.138740
 C    2.678451    0.234102    0.083283
 C    3.689048    0.947073   -0.554245
 C    5.020676    0.634348   -0.358458
 C    3.041991   -0.806767    0.938444
 C    4.366180   -1.115872    1.152134
 C    5.373920   -0.400753    0.502294
 O    6.651746   -0.779530    0.771134
 C    7.703299   -0.065340    0.162387
 C    8.890800   -0.846649   -0.274634
 C    8.125051   -0.402845   -1.231016
 H   -4.348963    2.932416   -0.521111
 H   -3.100222    1.234304    2.358085
 H   -3.536702    0.009165   -1.774938
 H   -4.677999   -3.477910   -0.868581
 H   -5.126386   -0.558973    1.519513
 H   -1.984271   -1.862547   -0.291611
 H    0.564982   -1.468345   -0.190674
 H   -0.863494    3.188991   -0.469863
 H    1.562512    2.707942   -0.143900
 H    3.431335    1.743148   -1.237145
 H    5.780949    1.196298   -0.878339
 H    2.276094   -1.359596    1.461417
 H    4.652341   -1.911421    1.821830
 H    7.798180    0.945778    0.555603
 H    9.732666   -1.401004    0.057978
 H    7.878588   -0.335525   -2.261929
