42 
4pvx_ligand_dft.xyz
 O   -3.449447    2.175244    0.947809
 P   -4.423112    1.105496    0.291415
 O   -5.065280    0.354074    1.598960
 O   -5.435971    1.586990   -0.666976
 C   -3.314966   -0.208136   -0.393301
 P   -4.066104   -1.898002   -0.511431
 O   -3.412685   -2.574613    0.819998
 O   -5.619990   -1.743556   -0.186764
 O   -3.788385   -2.636877   -1.753312
 N   -2.015266   -0.313402    0.227661
 C   -0.962816    0.513568   -0.069651
 C    0.357829    0.100812    0.176392
 N   -1.255801    1.713107   -0.590579
 C   -0.231169    2.517008   -0.919868
 C    1.093199    2.193340   -0.723254
 C    1.407584    0.948740   -0.143114
 C    2.811366    0.549804    0.101068
 C    3.820263    0.878244   -0.805782
 C    5.141575    0.499999   -0.592709
 C    3.167492   -0.172911    1.248303
 C    4.478796   -0.547434    1.479878
 C    5.478519   -0.215994    0.558537
 O    6.730902   -0.633272    0.861871
 C    7.790068   -0.205966    0.022998
 C    8.940143   -1.116959   -0.108999
 C    8.176643   -1.020927   -1.155975
 H   -2.664791    2.298616    0.346282
 H   -5.742395    0.909106    2.012993
 H   -3.195460    0.097108   -1.442324
 H   -3.306243   -3.526116    0.677812
 H   -5.776360   -1.197568    0.607164
 H   -1.839716   -1.141185    0.776218
 H    0.547086   -0.894681    0.565597
 H   -0.511910    3.478854   -1.340199
 H    1.872536    2.903169   -0.975739
 H    3.569969    1.415534   -1.716310
 H    5.896317    0.752720   -1.328084
 H    2.408059   -0.419438    1.985111
 H    4.758358   -1.093399    2.374593
 H    7.896219    0.880796    0.049857
 H    9.791977   -1.551996    0.389502
 H    7.931746   -1.324922   -2.161623
