39 
4pyq_ligand_dft.xyz
 C    0.344757    0.101313   -0.252603
 C   -6.315173    0.026776    0.325647
 N    1.573045   -0.534124   -0.515563
 N   -0.716753   -0.727959   -0.486040
 C   -4.842860   -0.114642    0.122579
 N   -6.752727    1.322856    0.559313
 O    0.278628    1.248430    0.141243
 C    2.824090    0.069057   -0.423995
 C   -4.356686   -1.247949   -0.533411
 C   -3.928064    0.829907    0.586020
 N   -7.032511   -1.031632    0.320396
 C   -2.089326   -0.459676   -0.266214
 C    3.945269   -0.744482   -0.220539
 C   -2.997822   -1.417630   -0.729399
 C   -2.557810    0.671742    0.400114
 C    5.225515   -0.190817   -0.181391
 N    6.643160   -1.029221    1.639020
 C    4.291254    1.991479   -0.522296
 C    3.013297    1.453589   -0.569410
 C    6.401412   -1.063903    0.127476
 C    5.408394    1.183238   -0.332023
 H    1.574423   -1.542980   -0.550491
 H   -0.536750   -1.590695   -0.978404
 H   -7.755153    1.453401    0.556337
 H   -6.260849    2.059567    0.072986
 H   -5.065243   -1.992452   -0.879005
 H   -4.277139    1.698080    1.136748
 H   -8.023115   -0.814555    0.443545
 H    3.815598   -1.820334   -0.110929
 H   -2.639039   -2.305101   -1.246848
 H   -1.865947    1.415354    0.768594
 H    7.445410   -1.596904    1.931964
 H    6.800291   -0.061907    1.941905
 H    5.809542   -1.361781    2.135030
 H    4.415975    3.061154   -0.653184
 H    2.155241    2.093998   -0.716288
 H    7.329010   -0.713197   -0.329203
 H    6.246144   -2.113803   -0.127857
 H    6.405600    1.617264   -0.328055
