27 
4pzh_ligand_xtb.xyz
 O    3.217941   -1.410304    1.036095
 S    2.789304   -0.055972    0.899987
 O    2.916527    0.816626    2.022297
 C    3.555724    0.652967   -0.576560
 C    3.424774   -0.359660   -1.699160
 O    3.931961    0.216052   -2.878369
 C    0.994250   -0.053038    0.470232
 C    0.361117    1.173639    0.351831
 F    1.083271    2.291604    0.414742
 C   -1.017538    1.262501    0.139707
 F   -1.579257    2.458351    0.030850
 C   -1.775462    0.108496    0.040675
 S   -3.587115    0.104308   -0.147254
 O   -4.032901    1.400324   -0.522469
 N   -3.720462   -0.891684   -1.467857
 O   -4.096962   -0.529658    1.021947
 C   -1.146955   -1.117629    0.161579
 F   -1.867926   -2.233872    0.060922
 C    0.230860   -1.206833    0.373260
 F    0.791832   -2.406961    0.453839
 H    4.599243    0.841829   -0.336033
 H    3.066857    1.592166   -0.814803
 H    2.362675   -0.626637   -1.825073
 H    3.973459   -1.267921   -1.422040
 H    3.977803   -0.452981   -3.569307
 H   -4.262603   -0.478955   -2.208006
 H   -4.013648   -1.828158   -1.242038
