51 
4q07_ligand_dft.xyz
 F    0.713585   -2.377694   -0.506313
 C    1.123906   -1.111592   -0.434757
 C    2.420337   -0.839274   -0.038095
 S    3.584017   -2.126844    0.482090
 O    3.099747   -3.399698    0.002600
 N    4.971507   -1.822065   -0.355530
 O    3.849994   -1.858696    1.877637
 C    2.837023    0.492120    0.006673
 F    4.086887    0.812300    0.374012
 C    1.970717    1.497678   -0.350079
 F    2.417217    2.754051   -0.292453
 C    0.181965   -0.108023   -0.788335
 C    0.646423    1.230173   -0.715212
 S   -0.380409    2.669512   -1.067422
 O   -1.754858    2.202434   -1.291640
 O    0.276289    3.476194   -2.081616
 C   -0.398605    3.575028    0.480386
 C   -1.091060    2.819241    1.605280
 O   -0.926181    3.615008    2.757267
 N   -1.063723   -0.442007   -1.236866
 C   -1.909080   -1.541815   -0.731393
 C   -2.040747   -1.485834    0.800600
 C   -2.913465   -0.339532    1.345205
 C   -4.326927   -0.735488    1.795124
 C   -5.313682   -1.258980    0.741005
 C   -4.942120   -2.606568    0.091972
 C   -4.263042   -2.520699   -1.287433
 C   -3.223163   -1.420292   -1.507001
 H    4.914168   -2.056606   -1.339652
 H    5.395150   -0.923958   -0.154630
 H   -0.925454    4.504921    0.245842
 H    0.633164    3.815545    0.740414
 H   -0.631113    1.825856    1.728081
 H   -2.148338    2.670348    1.351180
 H   -1.394065    3.190234    3.485131
 H   -1.606869    0.372304   -1.502021
 H   -1.445597   -2.492034   -1.002055
 H   -1.028113   -1.404579    1.212421
 H   -2.412150   -2.450265    1.160445
 H   -2.966020    0.474251    0.609216
 H   -2.413550    0.091797    2.221424
 H   -4.782385    0.140286    2.275317
 H   -4.233470   -1.497124    2.582584
 H   -5.474436   -0.496296   -0.032712
 H   -6.280367   -1.370652    1.245921
 H   -5.852632   -3.202181   -0.040891
 H   -4.324370   -3.183300    0.789506
 H   -5.047025   -2.354043   -2.036667
 H   -3.818897   -3.494995   -1.529375
 H   -2.963083   -1.408364   -2.572111
 H   -3.676771   -0.442046   -1.300104
