51 
4q0l_ligand_dft.xyz
 F   -1.429636   -2.180286   -0.827043
 C   -1.398588   -0.874467   -0.552838
 C   -2.538717   -0.255471   -0.068125
 S   -4.049066   -1.163961    0.351191
 O   -4.179355   -1.042555    1.786122
 N   -5.279553   -0.305749   -0.334228
 O   -4.021131   -2.435764   -0.331887
 C   -2.502733    1.118044    0.156338
 F   -3.568332    1.763037    0.657824
 C   -1.375245    1.851212   -0.151176
 F   -1.419055    3.155241    0.095286
 C   -0.181307   -0.186623   -0.787611
 C   -0.223662    1.228226   -0.644769
 S    1.193256    2.246897   -1.099041
 O    0.753324    3.618988   -1.279692
 O    1.877379    1.559811   -2.198744
 C    2.289613    2.174961    0.317505
 C    1.614345    2.411324    1.658733
 O    2.655621    2.372507    2.610475
 N    0.962529   -0.840401   -1.132694
 C    1.318308   -2.251420   -0.924708
 C    2.739736   -2.457987   -1.494194
 C    3.896561   -1.482722   -1.166111
 C    4.707920   -1.715399    0.119734
 C    4.210075   -1.021807    1.395939
 C    2.716353   -1.177222    1.693028
 C    2.194719   -2.617723    1.550271
 C    1.075337   -2.761450    0.518954
 H   -5.373161    0.641551    0.013030
 H   -5.325261   -0.395736   -1.342561
 H    3.037558    2.948573    0.117853
 H    2.777886    1.200075    0.296870
 H    0.873878    1.619640    1.844050
 H    1.093368    3.378825    1.651912
 H    2.269964    2.498839    3.484879
 H    1.621995   -0.278890   -1.655146
 H    0.669619   -2.862213   -1.560180
 H    2.624746   -2.446013   -2.585128
 H    3.049965   -3.479162   -1.240194
 H    3.560851   -0.438396   -1.208306
 H    4.595037   -1.578717   -2.004919
 H    5.732464   -1.366991   -0.057443
 H    4.797724   -2.796349    0.286466
 H    4.445827    0.049552    1.346517
 H    4.789932   -1.414097    2.241433
 H    2.146095   -0.541961    1.008700
 H    2.517551   -0.781150    2.694918
 H    1.809569   -2.983449    2.508660
 H    3.015050   -3.295883    1.291804
 H    0.812659   -3.822465    0.434510
 H    0.179002   -2.274193    0.915702
