25 
4q3u_ligand_dft.xyz
 N    1.091562    1.588006    0.369831
 C    1.797205    0.377504    0.833291
 C    2.842024   -0.078343   -0.181132
 O    3.524229    0.957385   -0.687584
 C    0.803706   -0.751983    1.112884
 C    0.107707   -1.257895   -0.168947
 N   -1.354225   -1.296679   -0.069403
 C   -2.118501   -0.211144   -0.165069
 N   -3.481606   -0.394447   -0.212329
 N   -1.623228    1.001857   -0.275661
 O   -4.202888    0.781998   -0.044756
 O    3.045347   -1.229333   -0.472676
 H    0.901427    2.188974    1.168715
 H   -0.601499    1.213338   -0.182578
 H    1.693802    2.128350   -0.247710
 H    2.361030    0.584354    1.754037
 H    4.194778    0.607187   -1.298216
 H    1.326878   -1.577589    1.600087
 H    0.057345   -0.383446    1.824888
 H    0.433406   -2.268651   -0.409759
 H    0.367777   -0.637793   -1.034175
 H   -1.809927   -2.196635   -0.119929
 H   -3.846964   -1.113068    0.405396
 H   -2.292423    1.760516   -0.244259
 H   -4.739499    0.854063   -0.849593
