43 
4q4p_ligand_dft.xyz
 O   -5.518976   -1.198730   -0.135263
 C   -4.829512   -0.199772   -0.056608
 N   -5.423105    1.075895    0.009674
 C   -3.345158   -0.271891   -0.026551
 C   -2.588195    0.912912    0.067375
 N   -3.301889    2.107245    0.125326
 C   -4.659677    2.107771    0.093290
 C   -1.192521    0.904978    0.102725
 C   -0.589285   -0.339389    0.034614
 C   -1.321471   -1.552532   -0.066589
 C   -2.704376   -1.513263   -0.093306
 N    0.732030   -0.722805    0.050699
 C    0.733075   -2.091776   -0.060609
 N   -0.453787   -2.636443   -0.115105
 N    1.918032   -2.785323   -0.144881
 C    3.108313   -2.354096    0.581040
 C    3.963715   -1.329714   -0.176465
 N    3.439516    0.037566   -0.128619
 C    3.851831    0.835041   -1.285801
 C    3.161910    2.196893   -1.276826
 C    3.446297    2.946311    0.025758
 C    3.092459    2.068825    1.227110
 C    3.782104    0.710693    1.126762
 H   -2.805210    2.981909    0.194581
 H   -5.111084    3.098544    0.145637
 H   -0.620540    1.825814    0.178154
 H   -3.305752   -2.412153   -0.166928
 H    1.740353   -3.779689   -0.119792
 H    3.723508   -3.245174    0.732926
 H    2.848497   -1.975529    1.580141
 H    4.006731   -1.648428   -1.222097
 H    4.993784   -1.358530    0.220330
 H    1.594643   -0.169075   -0.044812
 H    3.580815    0.283741   -2.191661
 H    4.949985    0.971671   -1.295440
 H    2.080195    2.044221   -1.389880
 H    3.497463    2.778688   -2.141909
 H    2.889951    3.889102    0.058357
 H    4.513515    3.203792    0.069218
 H    2.006043    1.913597    1.270754
 H    3.384419    2.554079    2.164513
 H    4.878939    0.840153    1.203157
 H    3.472910    0.074228    1.961685
