32 
4q4q_ligand_xtb.xyz
 N   17.418667   16.880371   23.802135
 N   16.253776   15.998134   21.978253
 C   17.119697   16.642983   21.122238
 C   18.183459   17.440159   21.618942
 C   18.361998   17.581821   23.057448
 C   19.062224   18.095510   20.753055
 C   18.851088   17.934590   19.408191
 C   16.920513   16.489582   19.751279
 N   19.495699   18.429124   18.294155
 C   18.828901   17.922598   17.205141
 C   16.429754   16.136156   23.231227
 C   17.788581   17.136372   18.893402
 N   17.818071   17.159696   17.524019
 N   19.249590   18.157550   15.936572
 O   19.223474   18.230153   23.618051
 C   18.326582   17.869196   14.849992
 C   17.360522   18.983282   14.608085
 S   16.163673   19.379694   15.797618
 C   15.584460   20.673835   14.823760
 C   16.269571   20.789918   13.658864
 C   17.292756   19.822996   13.538679
 H   17.502058   16.950152   24.808413
 H   19.860487   18.695188   21.162263
 H   16.108412   15.883104   19.389454
 H   20.315454   19.010702   18.289684
 H   15.753236   15.632163   23.909235
 H   19.835567   18.970209   15.805140
 H   18.910373   17.684344   13.944636
 H   17.796240   16.960035   15.142270
 H   14.767851   21.271669   15.176888
 H   16.060306   21.533875   12.911548
 H   17.944959   19.748838   12.686361
