32 
4q4q_ligand_dft.xyz
 N   17.496038   16.844211   23.846844
 N   16.203927   16.081315   22.032846
 C   17.110095   16.706595   21.174535
 C   18.236550   17.419613   21.661218
 C   18.469690   17.509120   23.103366
 C   19.139076   18.048155   20.794215
 C   18.883286   17.934748   19.448128
 C   16.876763   16.610094   19.797699
 N   19.534415   18.421351   18.321581
 C   18.822009   17.971044   17.235638
 C   16.433528   16.177279   23.289372
 C   17.769370   17.222058   18.933054
 N   17.760378   17.271315   17.549070
 N   19.248016   18.223990   15.959817
 O   19.392973   18.085716   23.653784
 C   18.337745   17.906331   14.860448
 C   17.310625   18.967274   14.580482
 S   15.965715   19.271413   15.635451
 C   15.405316   20.556283   14.632356
 C   16.204227   20.741553   13.543868
 C   17.298245   19.827883   13.518300
 H   17.611492   16.876224   24.850885
 H   19.985400   18.587359   21.206129
 H   16.014511   16.063201   19.435049
 H   20.448120   18.843804   18.298452
 H   15.757300   15.707587   23.999924
 H   19.742814   19.098798   15.844146
 H   18.942592   17.764040   13.959986
 H   17.870654   16.950666   15.105862
 H   14.513125   21.105165   14.902082
 H   16.025025   21.496646   12.787613
 H   18.048980   19.803170   12.734801
