41 
4q4r_ligand_xtb.xyz
 N   -5.249720    1.095819   -0.003489
 N   -3.174837    2.147813    0.204933
 C   -2.559195    0.918715    0.129555
 C   -3.303075   -0.280933   -0.019377
 C   -4.757383   -0.205257   -0.092148
 C   -2.676321   -1.523770   -0.098333
 C   -1.298830   -1.560806   -0.029184
 C   -1.165921    0.882638    0.204922
 N   -0.430873   -2.623107   -0.079537
 C    0.759360   -2.095291    0.031293
 C   -4.446505    2.186364    0.138002
 C   -0.560045   -0.348384    0.123744
 N    0.755048   -0.733258    0.172056
 N    1.918890   -2.802314   -0.032793
 O   -5.528313   -1.134597   -0.217374
 C    3.155068   -2.311990    0.542321
 C    3.867567   -1.301192   -0.376116
 N    3.388823    0.061940   -0.179986
 C    3.503736    0.890115   -1.374255
 C    2.859098    2.250819   -1.100093
 O    3.464075    2.895488   -0.004765
 C    3.379289    2.098309    1.150848
 C    4.041555    0.736097    0.934529
 H   -6.256003    1.194436   -0.050296
 H   -3.269409   -2.416409   -0.210310
 H   -0.617569    1.803768    0.322457
 H   -4.940388    3.147741    0.196257
 H    1.765746   -3.797905   -0.018334
 H    3.812750   -3.170245    0.683802
 H    2.975629   -1.853187    1.522996
 H    3.669957   -1.592575   -1.409628
 H    4.952928   -1.361246   -0.206092
 H    1.603477   -0.166088    0.161763
 H    2.979541    0.401221   -2.197839
 H    4.558205    1.038868   -1.657617
 H    1.783933    2.111986   -0.908819
 H    2.988176    2.914305   -1.956202
 H    2.324299    1.951026    1.430611
 H    3.887738    2.650066    1.942794
 H    5.115544    0.883728    0.731126
 H    3.937638    0.132517    1.837900
