90 
4q6f_ligand_dft.xyz
 N    8.010108    0.230526    2.036968
 C    7.019659   -0.795322    1.602739
 C    5.743751    0.019444    1.349798
 O    5.482620    0.954527    2.099797
 C    6.799596   -1.858751    2.672310
 N    5.004105   -0.355984    0.296961
 C    3.722107    0.236167   -0.042056
 C    2.826968   -0.923302   -0.494021
 O    3.328416   -1.920769   -0.999238
 C    3.863373    1.249510   -1.194883
 C    4.762999    2.451751   -0.850652
 C    5.830587    2.736319   -1.914073
 N    6.724348    1.609666   -2.160016
 C    7.639830    1.147792   -1.273830
 N    7.962546    1.709284   -0.144784
 N    8.221120   -0.067976   -1.574343
 N    1.500714   -0.747938   -0.332171
 C    0.525734   -1.666167   -0.875258
 C   -0.815974   -0.925088   -0.894239
 O   -0.918606    0.237356   -0.502112
 C    0.462248   -2.986249   -0.072054
 O   -0.313166   -3.869425   -0.877710
 C   -0.119430   -2.823179    1.325659
 N   -1.860312   -1.638837   -1.357271
 C   -3.202808   -1.101954   -1.276297
 C   -3.585247   -0.855624    0.187673
 O   -3.686043   -1.766245    0.991854
 C   -4.191690   -2.102833   -1.887474
 C   -5.661848   -1.725345   -1.692512
 C   -6.078507   -0.428522   -2.393419
 C   -7.506619   -0.012680   -2.062044
 N   -7.567481    0.602333   -0.696864
 N   -3.896486    0.438495    0.520019
 C   -4.142139    0.699904    1.923272
 C   -5.399126   -0.040533    2.369498
 O   -5.337875   -0.344952    3.655608
 C   -4.276032    2.203250    2.217113
 C   -5.401244    2.937087    1.466766
 C   -5.162453    3.154157   -0.017206
 O   -5.927454    2.741095   -0.891725
 N   -4.039071    3.824687   -0.353015
 O   -6.378780   -0.268492    1.683849
 H    8.183671    0.895997    1.153416
 H    7.563619    0.804103    2.762669
 H    8.873308   -0.176527    2.398061
 H    7.400816   -1.227946    0.673860
 H    7.728945   -2.391846    2.894641
 H    6.414847   -1.407775    3.591985
 H    6.069909   -2.592369    2.319516
 H    5.231985   -1.187647   -0.238129
 H    3.327799    0.725433    0.853454
 H    4.272989    0.699192   -2.050599
 H    2.863480    1.586475   -1.490181
 H    5.243274    2.295661    0.119070
 H    4.160517    3.359216   -0.740671
 H    6.410645    3.627130   -1.642245
 H    5.355365    2.962027   -2.872060
 H    6.735879    1.224384   -3.091207
 H    7.552514    2.628599   -0.021890
 H    8.058861   -0.458564   -2.491943
 H    9.183974   -0.147341   -1.276835
 H    1.115871    0.129328    0.001547
 H    0.802855   -1.937285   -1.901364
 H    1.492796   -3.354554   -0.015589
 H   -0.404976   -4.712010   -0.416743
 H    0.436721   -2.066005    1.887465
 H   -1.175871   -2.537362    1.286499
 H   -0.044679   -3.764477    1.880275
 H   -1.722369   -2.643602   -1.445846
 H   -3.223071   -0.153645   -1.824146
 H   -3.960501   -2.216153   -2.952587
 H   -4.024567   -3.072510   -1.406036
 H   -6.278798   -2.545520   -2.076410
 H   -5.866318   -1.672125   -0.615384
 H   -5.411800    0.403729   -2.136630
 H   -6.008881   -0.559688   -3.478494
 H   -8.189286   -0.866019   -2.075137
 H   -7.877762    0.743030   -2.756749
 H   -7.041234    1.513502   -0.699509
 H   -7.108533    0.037813    0.040937
 H   -8.530172    0.775375   -0.402623
 H   -3.388164    1.148632    0.005491
 H   -3.323645    0.306025    2.536480
 H   -6.163947   -0.789506    3.911445
 H   -4.446508    2.313307    3.291934
 H   -3.305502    2.670838    2.015854
 H   -5.538291    3.922774    1.927472
 H   -6.348896    2.404947    1.577264
 H   -3.921432    4.088147   -1.322337
 H   -3.507893    4.341267    0.332170
