90 
4q6f_ligand_xtb.xyz
 N    8.228992   -0.720266    1.493916
 C    7.057852   -1.438530    0.982644
 C    5.866006   -0.483851    1.091417
 O    5.784276    0.336144    1.987677
 C    6.732563   -2.716306    1.763176
 N    4.966173   -0.582583    0.100339
 C    3.695591    0.115074    0.079095
 C    2.708063   -0.837039   -0.612045
 O    3.118884   -1.743110   -1.309901
 C    3.798853    1.419959   -0.735077
 C    4.607287    2.496139    0.010551
 C    5.628605    3.221838   -0.874514
 N    6.549253    2.320847   -1.552782
 C    7.471752    1.555141   -0.969443
 N    7.786717    1.644989    0.307917
 N    8.117439    0.648730   -1.721167
 N    1.409972   -0.586212   -0.401566
 C    0.360015   -1.316647   -1.071077
 C   -0.943569   -0.542213   -0.897060
 O   -1.004407    0.473568   -0.211767
 C    0.227631   -2.766532   -0.536861
 O   -0.641041   -3.438662   -1.427528
 C   -0.288302   -2.807135    0.899862
 N   -1.974539   -1.067550   -1.560463
 C   -3.322701   -0.538227   -1.470682
 C   -3.892066   -0.865922   -0.085010
 O   -4.603890   -1.823467    0.152552
 C   -4.190791   -1.130703   -2.582197
 C   -5.669373   -0.753885   -2.465585
 C   -5.946210    0.737628   -2.666938
 C   -7.312051    1.142657   -2.125985
 N   -7.257091    1.261717   -0.649381
 N   -3.585628    0.036826    0.864319
 C   -4.113826   -0.184080    2.197239
 C   -5.504420   -0.819900    2.049170
 O   -5.629729   -1.878233    2.813710
 C   -4.168284    1.126880    2.992435
 C   -5.026349    2.220733    2.343321
 C   -4.467086    2.723711    1.031944
 O   -5.059635    2.615799   -0.039423
 N   -3.268839    3.308866    1.097538
 O   -6.416656   -0.320619    1.422085
 H    8.196326    0.800604    0.790131
 H    8.035672   -0.446010    2.455854
 H    9.042419   -1.328049    1.507977
 H    7.241085   -1.684502   -0.069257
 H    7.577108   -3.401499    1.734676
 H    6.513011   -2.474346    2.801310
 H    5.869487   -3.216669    1.331974
 H    4.996406   -1.347847   -0.568026
 H    3.385070    0.335714    1.105362
 H    4.273643    1.173212   -1.686088
 H    2.794291    1.782476   -0.954110
 H    5.108615    2.031472    0.857793
 H    3.936098    3.252651    0.416301
 H    6.193333    3.936735   -0.269066
 H    5.110586    3.782659   -1.652698
 H    6.434311    2.224532   -2.549585
 H    7.260950    2.262548    0.905157
 H    8.036483    0.648581   -2.723698
 H    8.910378    0.171062   -1.326257
 H    1.085758    0.193668    0.158351
 H    0.595953   -1.399847   -2.139987
 H    1.230103   -3.213157   -0.584941
 H   -0.689182   -4.369437   -1.182015
 H    0.333923   -2.188204    1.540260
 H   -1.315447   -2.449711    0.944967
 H   -0.264040   -3.826581    1.277858
 H   -1.852326   -1.997767   -1.949590
 H   -3.250367    0.552075   -1.555416
 H   -3.794994   -0.808805   -3.546149
 H   -4.116177   -2.217760   -2.522961
 H   -6.220932   -1.320489   -3.216731
 H   -6.026471   -1.081433   -1.489790
 H   -5.194277    1.346675   -2.165993
 H   -5.903478    0.971506   -3.730210
 H   -8.070585    0.410325   -2.407593
 H   -7.597648    2.115492   -2.528430
 H   -6.431307    1.886320   -0.372353
 H   -7.062482    0.365480   -0.168374
 H   -8.126290    1.641340   -0.272305
 H   -2.772456    0.631486    0.731738
 H   -3.498143   -0.907195    2.750287
 H   -6.501765   -2.298762    2.729714
 H   -4.575140    0.905630    3.980016
 H   -3.142988    1.476941    3.126813
 H   -5.089024    3.065331    3.032215
 H   -6.034196    1.840565    2.177810
 H   -2.865218    3.701340    0.261034
 H   -2.810754    3.490000    1.973833
