16 
4q7p_ligand_xtb.xyz
 S   -2.091697    0.304172   -0.001688
 C   -0.428797    0.104782    0.000041
 C    0.542922    1.143506   -0.000041
 C    0.086940    2.566452    0.002407
 C    1.874837    0.818064   -0.001704
 C    2.294718   -0.521798   -0.001461
 C    1.348624   -1.505392    0.000629
 N    0.050023   -1.181836    0.000925
 O   -0.862507   -2.196531    0.001705
 H    0.456614    3.080266    0.888300
 H    0.467439    3.087893   -0.874274
 H   -0.998488    2.613447   -0.003634
 H    2.612648    1.606202   -0.002852
 H    3.340240   -0.776228   -0.002219
 H    1.564919   -2.561394    0.001973
 H   -1.741783   -1.705524    0.000367
