16 
4q7w_ligand_xtb.xyz
 C    2.446370   -1.302976   -0.000873
 C    1.454141   -0.194251   -0.001240
 C    1.777138    1.140299   -0.001661
 C    0.757479    2.103546    0.000785
 C   -0.551107    1.713320    0.001717
 C   -0.893849    0.346238    0.000593
 S   -2.445094   -0.275829   -0.001471
 N    0.155497   -0.543874    0.001042
 O   -0.157819   -1.873940    0.002085
 H    3.457863   -0.912387   -0.046254
 H    2.328274   -1.905288    0.899407
 H    2.268276   -1.960474   -0.850892
 H    2.812698    1.434764   -0.003696
 H    1.014142    3.151364    0.001576
 H   -1.361241    2.423920    0.003071
 H   -1.165470   -1.857049    0.000423
