29 
4q93_ligand_dft.xyz
 C   -3.524736    0.044301    0.536874
 C   -3.181977    1.252606   -0.060053
 C   -1.997319    1.331961   -0.786642
 C   -1.159787    0.225004   -0.917403
 C   -1.500101   -0.980449   -0.299771
 C   -2.695583   -1.072327    0.417347
 C   -0.646516   -2.181479   -0.428671
 C    0.691009   -2.265408   -0.381969
 C    1.679164   -1.209959   -0.082972
 C    1.453405   -0.210198    0.875150
 C    2.408153    0.755172    1.148408
 C    3.627872    0.740968    0.468277
 C    3.882176   -0.254580   -0.473642
 C    2.916030   -1.220640   -0.733194
 O    4.526417    1.714432    0.773394
 O   -1.705466    2.528136   -1.361649
 O   -4.691924    0.008206    1.233222
 H   -3.829220    2.116445    0.034124
 H   -0.242550    0.295683   -1.495063
 H   -2.970956   -2.012762    0.890449
 H   -1.191940   -3.110180   -0.590919
 H    1.122576   -3.246703   -0.577492
 H    0.513562   -0.194625    1.417094
 H    2.231235    1.524145    1.892972
 H    4.833897   -0.281092   -1.000314
 H    3.127453   -1.995707   -1.465733
 H    5.326082    1.583461    0.250101
 H   -0.849397    2.462332   -1.801524
 H   -4.813694   -0.877026    1.596119
