44 
4q9m_ligand_xtb.xyz
 C   -6.205841   -0.208008   -1.361161
 C   -5.555085   -0.470624   -0.001476
 C   -5.961966    0.602223    1.011096
 C   -4.053365   -0.544966   -0.126518
 C   -3.369097   -1.699814    0.228246
 C   -1.993412   -1.791326    0.123662
 C   -3.313161    0.536109   -0.592889
 C   -1.940097    0.461860   -0.702612
 C   -1.266044   -0.704160   -0.345147
 N    0.125501   -0.711920   -0.476958
 C    1.023811   -1.622335   -0.008204
 O    0.739466   -2.697734    0.480463
 C    2.427144   -1.190919   -0.190196
 C    3.520357   -2.020930   -0.306008
 C    3.635564   -3.494340   -0.277452
 O    4.616904   -1.277977   -0.492451
 N    4.286866    0.034347   -0.486156
 C    2.994798    0.117898   -0.300536
 C    2.330557    1.421543   -0.228073
 C    1.502348    1.767316    0.842480
Cl    1.273012    0.664725    2.160447
 C    0.867411    2.998258    0.873795
 C    1.062408    3.900121   -0.157803
 C    1.902974    3.581608   -1.212116
 C    2.534808    2.352593   -1.243465
 H   -5.906530    0.760683   -1.753430
 H   -5.911325   -0.973379   -2.075845
 H   -7.289613   -0.219642   -1.267935
 H   -5.913530   -1.438584    0.365866
 H   -5.495039    0.409120    1.974382
 H   -5.655177    1.588947    0.673040
 H   -7.041707    0.605029    1.143587
 H   -3.921785   -2.552861    0.595329
 H   -1.481061   -2.694587    0.408696
 H   -3.810561    1.452273   -0.874246
 H   -1.377678    1.314293   -1.061899
 H    0.504532    0.140462   -0.867900
 H    2.689895   -3.914455    0.053038
 H    3.878810   -3.872295   -1.269984
 H    4.432775   -3.790546    0.401147
 H    0.228567    3.243451    1.707110
 H    0.562876    4.856330   -0.130852
 H    2.067198    4.290530   -2.008831
 H    3.195952    2.090963   -2.054912
