42 
4q9z_ligand_dft.xyz
 C   -3.204373    2.908603   -0.111905
 C   -1.907033    2.148021   -0.036107
 C   -0.684742    2.786493   -0.227364
 C    0.518014    2.098794   -0.175219
 O    1.670190    2.774939   -0.425124
 C    2.799833    2.240526    0.253495
 C    2.929627    0.772748   -0.030676
 N    4.077283    0.281331   -0.306473
 N    4.102365   -1.068419   -0.581816
 C    3.100848   -1.965406   -0.376542
 O    3.187232   -3.147942   -0.643308
 C    1.850453   -1.395505    0.287040
 C    1.850678   -1.750045    1.779137
 N    1.757186    0.040809    0.047013
 C    0.534111    0.720651    0.090266
 C   -0.682903    0.078669    0.333054
 C   -1.888507    0.777847    0.255115
 N   -3.146027    0.118615    0.431143
 C   -3.152658   -1.309602    0.612311
 C   -4.588042   -1.829719    0.399236
 N   -4.285173   -1.946263   -1.082954
 C   -2.804910   -1.984256   -0.734199
 H   -3.047365    3.908169   -0.523013
 H   -3.664659    3.035890    0.877238
 H   -3.932328    2.391375   -0.747385
 H   -0.647498    3.850016   -0.441656
 H    3.678021    2.766792   -0.114610
 H    2.690722    2.411731    1.333473
 H    4.991192   -1.413719   -0.914988
 H    1.015368   -1.886047   -0.221858
 H    1.908207   -2.834301    1.903172
 H    0.946787   -1.378394    2.271509
 H    2.716017   -1.297897    2.273563
 H   -0.677637   -0.970687    0.603341
 H   -3.715304    0.586510    1.130460
 H   -2.629049   -1.696900    1.494540
 H   -4.756385   -2.829774    0.799508
 H   -5.426265   -1.168196    0.616920
 H   -4.684644   -2.731503   -1.601583
 H   -4.508963   -1.069903   -1.561893
 H   -2.493875   -3.025439   -0.645186
 H   -2.183526   -1.433121   -1.438333
