52 
4qaa_ligand_dft.xyz
 C    9.905116   -0.776467    0.375100
 C    8.940442    0.014160   -0.506826
 C    7.496942   -0.479502   -0.401992
 C    6.526968    0.319528   -1.274359
 C    5.093557   -0.219867   -1.285578
 C    4.394088   -0.180648    0.074602
 C    2.928526   -0.605964   -0.001874
 C    2.241824   -0.574249    1.364868
 N    0.844012   -0.960603    1.328978
 C   -0.143034   -0.130496    0.887950
 C   -1.459181   -0.606013    0.719837
 C   -2.404461    0.304615    0.277529
 N   -2.095939    1.594746    0.050453
 C   -0.825080    1.938258    0.265802
 N   -0.511851    3.258253    0.089105
 N    0.182890    1.142509    0.650299
 C   -3.818616   -0.080774    0.043902
 C   -4.202236   -1.408412   -0.188593
 C   -5.528147   -1.744909   -0.394361
 C   -6.515505   -0.754018   -0.372786
 O   -7.785506   -1.182970   -0.580526
 C   -8.817249   -0.222416   -0.579374
 C   -6.151111    0.575526   -0.152784
 C   -4.812379    0.897262    0.047014
 H    9.619217   -0.706318    1.431028
 H    9.906321   -1.838105    0.101964
 H   10.930768   -0.405042    0.280474
 H    9.267205   -0.043919   -1.553728
 H    8.978659    1.077016   -0.232625
 H    7.182032   -0.433330    0.649120
 H    7.454025   -1.540457   -0.689181
 H    6.907308    0.332670   -2.304728
 H    6.517739    1.366319   -0.938323
 H    5.097432   -1.253681   -1.659573
 H    4.500578    0.362869   -2.003021
 H    4.455320    0.838181    0.483671
 H    4.922824   -0.830125    0.785411
 H    2.857111   -1.619034   -0.421864
 H    2.380182    0.060427   -0.678127
 H    2.296315    0.435000    1.781469
 H    2.752344   -1.247524    2.063168
 H    0.634480   -1.946309    1.325687
 H   -1.712107   -1.632132    0.958961
 H   -1.169179    3.801023   -0.447990
 H    0.466151    3.476141   -0.015467
 H   -3.452437   -2.192374   -0.236519
 H   -5.826397   -2.770650   -0.584128
 H   -8.889059    0.290619    0.388296
 H   -8.675118    0.522466   -1.372896
 H   -9.740761   -0.772555   -0.763878
 H   -6.892948    1.365669   -0.133893
 H   -4.520520    1.928905    0.210596
