38 
4qab_ligand_dft.xyz
 C   -3.481569   -1.863992    0.224637
 C   -4.639250   -2.575450   -0.470801
 O   -5.888247   -2.069018   -0.065881
 C   -5.981338   -0.694462   -0.378255
 C   -4.906235    0.111806    0.333631
 N   -3.587035   -0.428032    0.019827
 C   -2.490459    0.395761    0.061997
 C   -1.165942   -0.092489    0.048707
 N   -2.731276    1.711334    0.094585
 C   -1.668647    2.522260    0.073766
 N   -1.930529    3.861290    0.037476
 N   -0.379130    2.168287    0.067983
 C   -0.148238    0.848663    0.066033
 C    1.283142    0.438513    0.066003
 C    2.244325    1.307191   -0.458377
 C    3.583704    0.946546   -0.485393
 C    3.981662   -0.286948    0.025779
 C    5.424567   -0.702752   -0.054536
 F    6.255023    0.350730    0.023454
 F    5.693785   -1.327593   -1.216043
 F    5.757960   -1.552570    0.932115
 C    3.036818   -1.154150    0.566841
 C    1.696666   -0.790652    0.586258
 H   -2.551790   -2.241278   -0.203255
 H   -3.490070   -2.102314    1.299761
 H   -4.629395   -3.638537   -0.217119
 H   -4.522600   -2.470758   -1.562095
 H   -6.972946   -0.365758   -0.057673
 H   -5.894143   -0.548287   -1.467130
 H   -5.077690    0.070652    1.420531
 H   -4.937324    1.155152    0.023006
 H   -0.935091   -1.146258    0.009129
 H   -2.862023    4.150700    0.288273
 H   -1.167569    4.475492    0.272975
 H    1.921306    2.269489   -0.839192
 H    4.322006    1.626078   -0.897577
 H    3.349014   -2.104917    0.985073
 H    0.973935   -1.461644    1.039761
