43 
4qb3_ligand_dft.xyz
 C    0.504682   -0.295759   -1.174998
 C    0.957272   -1.650389   -1.611524
 C    2.478095   -1.600261   -1.796741
 C    2.702089    0.226303   -0.131173
 O    0.072981   -2.783166    1.539619
 C   -0.067007   -1.603101    1.842227
 C    1.032849   -0.796300    2.494930
 N   -1.262207   -0.967837    1.679498
 C   -2.451102   -1.716807    1.320604
 C   -2.618829   -2.020805   -0.171358
 C   -3.001261   -0.814159   -1.047651
 C   -1.895940   -0.310833   -1.978066
 N   -0.747819    0.245990   -1.290094
 C    1.321465    0.560560   -0.478628
 O    3.412760    0.907455    0.596842
 N    3.126017   -0.979909   -0.649672
 C    0.535691    1.700302   -0.108769
 C   -0.752700    1.473972   -0.639764
 C   -1.787335    2.399691   -0.484343
 C   -1.510766    3.550142    0.240077
 C   -0.238274    3.778440    0.792114
 C    0.791593    2.867119    0.620961
 H    0.492719   -1.972077   -2.549417
 H    0.698510   -2.380472   -0.832377
 H    2.709298   -1.051771   -2.723075
 H    2.868124   -2.615667   -1.901538
 H    1.997072   -1.130231    2.111047
 H    0.935667    0.280431    2.335575
 H    1.008586   -0.994699    3.572343
 H   -1.322343    0.025803    1.840003
 H   -3.320681   -1.160643    1.688394
 H   -2.408354   -2.666013    1.862981
 H   -3.399438   -2.786105   -0.253948
 H   -1.695172   -2.490852   -0.525447
 H   -3.341497    0.015614   -0.416089
 H   -3.852641   -1.072562   -1.688259
 H   -2.294391    0.461773   -2.646515
 H   -1.543685   -1.129438   -2.611315
 H    4.114157   -1.147814   -0.521375
 H   -2.771454    2.235956   -0.912739
 H   -2.294650    4.287881    0.382825
 H   -0.061343    4.688497    1.357341
 H    1.780522    3.031671    1.034387
