43 
4qb3_ligand_xtb.xyz
 C    0.482113   -0.556829   -1.101289
 C    0.600954   -1.997998   -1.452030
 C    2.093241   -2.295664   -1.628866
 C    2.665896   -0.590216    0.082314
 O   -0.501477   -2.252420    1.585738
 C   -0.692698   -1.109191    1.950458
 C    0.320832   -0.277027    2.696249
 N   -1.881782   -0.488540    1.752508
 C   -3.028044   -1.192633    1.215656
 C   -2.927695   -1.421216   -0.295130
 C   -2.971258   -0.121991   -1.110418
 C   -1.776737    0.020973   -2.062821
 N   -0.552717    0.292941   -1.357513
 C    1.461228    0.089893   -0.383173
 O    3.433498   -0.168096    0.929989
 N    2.846015   -1.812186   -0.494830
 C    1.010114    1.425625   -0.164900
 C   -0.253699    1.516065   -0.795265
 C   -0.975764    2.702527   -0.786751
 C   -0.425196    3.783947   -0.128313
 C    0.816059    3.697979    0.505765
 C    1.546736    2.530130    0.490708
 H    0.058889   -2.263528   -2.360842
 H    0.214184   -2.593585   -0.617001
 H    2.450465   -1.814049   -2.553760
 H    2.252868   -3.371874   -1.719060
 H    0.153929   -0.408162    3.764763
 H    1.326231   -0.615232    2.464534
 H    0.231853    0.777676    2.450753
 H   -1.984235    0.474792    2.022528
 H   -3.929119   -0.627864    1.461985
 H   -3.075065   -2.171089    1.704864
 H   -3.741102   -2.083360   -0.594008
 H   -1.991625   -1.946602   -0.475142
 H   -2.971383    0.736091   -0.436831
 H   -3.887163   -0.077684   -1.701443
 H   -1.962028    0.849497   -2.755762
 H   -1.657466   -0.892830   -2.648577
 H    3.682689   -2.307586   -0.228094
 H   -1.932845    2.789968   -1.280008
 H   -0.966173    4.718695   -0.103576
 H    1.206124    4.569105    1.011311
 H    2.507706    2.449998    0.973226
