20 
4qem_ligand_dft.xyz
 C    3.461329    0.026813   -0.000009
 O    3.801382    1.183574   -0.000322
 O    4.401530   -0.948866    0.000284
 C    2.051144   -0.436284    0.000150
 C    1.062373    0.468760   -0.000074
 C   -0.379457    0.230771   -0.000052
 C   -1.246758    1.333528    0.000115
 C   -2.622807    1.177435    0.000182
 C   -3.169241   -0.106341    0.000039
 C   -2.325690   -1.221377   -0.000181
 C   -0.950808   -1.048550   -0.000235
 O   -4.519944   -0.210831    0.000042
 H    3.983576   -1.819200    0.000293
 H    1.848735   -1.505681    0.000467
 H    1.376018    1.512128   -0.000321
 H   -0.827663    2.336212    0.000247
 H   -3.288846    2.033278    0.000316
 H   -2.747374   -2.224035   -0.000305
 H   -0.316836   -1.930050   -0.000489
 H   -4.771872   -1.142215    0.000150
