37 
4qfg_ligand_xtb.xyz
 P   -1.154827   -2.468468   -0.363580
 O    0.359878   -2.453980   -0.803618
 O   -1.870962   -3.208964   -1.577808
 O   -1.457685   -3.031734    0.953386
 O   -1.617855   -0.947674   -0.577426
 C   -2.851576   -0.586721    0.025064
 C   -2.799998    0.859152    0.528659
 O   -1.792674    1.021096    1.520446
 C   -2.477967    1.885224   -0.569129
 O   -3.064511    3.116502   -0.262810
 C   -0.944923    1.952435   -0.509634
 O   -0.471937    3.211459   -0.873139
 C   -0.650154    1.595371    0.972700
 N    0.480723    0.695863    1.026060
 C    0.585527   -0.541670    1.579504
 N    1.714287   -1.138681    1.311387
 C    2.419410   -0.242680    0.542194
 C    3.688975   -0.250717   -0.064725
 N    4.538209   -1.284642    0.024673
 N    4.055756    0.823234   -0.771268
 C    3.224826    1.842057   -0.886400
 N    2.014415    1.976150   -0.370226
 C    1.646040    0.910308    0.348794
 H    0.931838   -2.271458   -0.041576
 H   -1.942927   -4.144446   -1.393442
 H   -3.658480   -0.694656   -0.705346
 H   -3.036069   -1.252788    0.873599
 H   -3.755953    1.101779    1.002414
 H   -2.821183    1.534670   -1.551706
 H   -2.439621    3.804100   -0.536954
 H   -0.529086    1.164943   -1.152210
 H    0.503581    3.163173   -0.844400
 H   -0.392804    2.506266    1.538582
 H   -0.196196   -0.966781    2.176457
 H    5.443607   -1.208765   -0.403059
 H    4.297135   -2.076642    0.591960
 H    3.579844    2.673957   -1.479425
