40 
4qfo_ligand_xtb.xyz
 N    2.412680   -1.853353   -1.105806
 C    1.350691   -1.849160   -0.075138
 C    0.333382   -0.807857   -0.618880
 O    0.547168   -0.351212   -1.732230
 C    1.919925   -1.517664    1.308124
 C    2.488394   -0.107520    1.432679
 S    3.978883    0.147638    0.372457
 C    3.452888    1.600341   -0.581892
 N   -0.725678   -0.530107    0.127833
 C   -1.631206    0.543316   -0.240746
 C   -0.923472    1.877906    0.004596
 O    0.203505    1.952720    0.424299
 C   -2.943417    0.446119    0.534477
 C   -3.749031   -0.822201    0.218567
 C   -4.244330   -0.827346   -1.225042
 C   -4.933051   -0.910853    1.179182
 O   -1.678330    2.909357   -0.306614
 H    1.958483   -1.312667   -1.899737
 H    3.227610   -1.234723   -0.734569
 H    2.733118   -2.773906   -1.399894
 H    0.851789   -2.823260   -0.043278
 H    1.135227   -1.639109    2.056634
 H    2.699556   -2.245218    1.545297
 H    2.802438    0.066371    2.460614
 H    1.762999    0.652527    1.148218
 H    4.223965    1.782786   -1.323206
 H    3.378567    2.448261    0.091183
 H    2.497684    1.411758   -1.061584
 H   -0.802800   -0.885202    1.069045
 H   -1.816325    0.479516   -1.318859
 H   -3.545683    1.321452    0.289639
 H   -2.722484    0.480861    1.604836
 H   -3.109751   -1.699736    0.372859
 H   -3.421765   -0.872982   -1.934809
 H   -4.830018    0.065487   -1.428493
 H   -4.877267   -1.693678   -1.396329
 H   -5.592182   -0.056947    1.046230
 H   -4.598058   -0.928635    2.213701
 H   -5.505178   -1.814996    0.991601
 H   -1.224437    3.756636   -0.161793
