38 
4qfr_ligand_dft.xyz
 C   -3.508489   -2.050487   -0.083738
 N   -3.427459   -4.633923   -0.132607
 C   -1.789886    2.342968    0.091470
 C   -1.300433    1.078673    0.018475
 C    0.709651    0.199215   -1.186176
 C    0.969249    0.985358    1.076827
 C   -3.471049   -3.475844   -0.109822
 C    0.145858    0.749363   -0.027235
 C    6.346117   -1.217542    0.713001
 C    6.472555    0.019851   -1.355278
 C    4.978403   -0.956365    0.793738
 C   -2.373604    0.107029   -0.032388
 C   -3.620518    0.701871   -0.009209
 N   -4.774490   -0.006841   -0.033365
 C   -4.821782   -1.415313   -0.081855
 C   -2.331854   -1.330815   -0.052116
 S   -3.538250    2.428798    0.087424
 C    2.061412   -0.119994   -1.229802
 C    2.893125    0.119577   -0.129613
 C    2.323925    0.680579    1.022682
 C    4.344030   -0.190391   -0.198960
 C    5.111779    0.277904   -1.271464
 C    7.087411   -0.728045   -0.352355
 O    4.319067   -1.485244    1.858374
 O   -1.184629   -2.007661   -0.031420
 O   -5.897369   -1.977914   -0.111413
Cl   -0.893057    3.809437    0.131691
 H    0.082020    0.020040   -2.055087
 H    0.545333    1.420277    1.976676
 H    6.802689   -1.816412    1.493796
 H    7.049696    0.403349   -2.190032
 H   -5.679991    0.444362   -0.018786
 H    2.481646   -0.562920   -2.127605
 H    2.956188    0.903209    1.877839
 H    4.624525    0.877199   -2.036068
 H    8.151638   -0.937216   -0.402721
 H    3.366472   -1.382043    1.733126
 H   -0.424559   -1.404698   -0.028291
