27 
4qfs_ligand_xtb.xyz
 C    2.492955   -1.117493   -1.035507
 N   -3.592805   -4.614940    0.208505
 C   -0.642508    0.654861    0.028955
 C    0.736912    0.141786    0.034862
 C   -2.009595   -1.554277    0.111439
 C   -0.933034    1.984464   -0.006731
 C   -1.839358   -0.138538    0.011113
 C    1.619288    0.496355    1.052440
 C    2.925433    0.046400    1.034028
 C    3.354220   -0.757085   -0.010965
 C    1.186788   -0.666402   -1.011305
 C   -3.286255   -2.078741    0.069489
 C   -4.482061   -1.264631   -0.042977
 O   -5.626697   -1.645727   -0.089664
 N   -4.222477    0.118051   -0.086194
 C   -2.985870    0.643945   -0.059136
 S   -2.643071    2.337686   -0.087848
Br    0.294320    3.407935   -0.039652
 C   -3.462410   -3.478533    0.150218
 O   -0.976657   -2.388829    0.259914
Br    5.154196   -1.371029   -0.043598
 H    2.840646   -1.736310   -1.847511
 H    1.280544    1.121805    1.863893
 H    3.607949    0.322233    1.822205
 H    0.519066   -0.922481   -1.821562
 H   -5.039062    0.715142   -0.141814
 H   -0.131275   -1.913045    0.270392
