106 
4qgi_ligand_dft.xyz
 C   -0.740125   -2.405507    1.756476
 O   -1.799778   -2.957698    1.461855
 N    1.695678   -2.479293    2.160728
 C    0.588369   -3.044152    1.517882
 C    0.705584   -3.963183    0.551804
 C    2.035007   -4.560324    0.196977
 C    4.437553   -3.763433    0.042961
 C    5.500842   -2.974641    0.469189
 C    5.304046   -2.055843    1.498879
 C    4.048244   -1.916093    2.074782
 C    3.175091   -3.657871    0.626676
 C    2.983465   -2.708696    1.638580
 N   -0.684021   -1.145683    2.258590
 C   -1.878687   -0.347402    2.479480
 C   -2.391240    0.273223    1.160363
 O   -2.374479    1.492969    0.997256
 C   -1.604425    0.761266    3.496979
 C   -0.557532    1.757970    3.023451
 O    0.512079    1.376767    2.529864
 N   -0.810470    3.055941    3.261525
 C   -2.073528    0.533828   -1.814428
 O   -2.381119    0.935070   -3.134165
 C   -3.202206   -0.264767   -1.128483
 N   -2.785233   -0.617913    0.228681
 C   -4.530173    0.501607   -1.162671
 C   -5.697967   -0.188343   -0.440104
 C   -6.073526   -1.502454   -1.085344
 C   -6.905347    0.758866   -0.384415
 C   -7.329315   -1.886119   -1.316495
 C   -8.169918    0.029623    0.068409
 C   -8.535705   -1.078030   -0.922105
 N    0.374301    0.643089   -2.024892
 C   -0.797307   -0.286547   -1.950408
 C    0.836792    1.031142   -0.643032
 C    1.339267    2.480422   -0.747120
 O    1.242529    3.066130   -1.827154
 C    1.798382   -0.008831   -0.069473
 C    2.948448   -0.402456   -0.991880
 C    4.024483    0.675984   -1.171201
 C    5.136137    0.176098   -2.096635
 C    4.572311   -0.246452   -3.456129
 C    3.480959   -1.311484   -3.298283
 C    2.366300   -0.888403   -2.328561
 C    1.488634    0.194554   -2.941480
 N    1.820478    2.981533    0.394352
 C    2.378895    4.339343    0.567545
 C    1.277829    5.388074    0.370053
 C    2.923796    4.392859    1.997461
 C    3.524148    4.558079   -0.427514
 H    1.629460   -2.332954    3.158722
 H   -0.190266   -4.273306    0.025363
 H    2.091036   -4.748186   -0.881759
 H    2.136024   -5.546661    0.674622
 H    4.590151   -4.495108   -0.746815
 H    6.477985   -3.083660    0.010210
 H    6.126493   -1.438533    1.846112
 H    3.877485   -1.176432    2.852846
 H    0.202077   -0.650838    2.300389
 H   -2.650018   -1.017701    2.873764
 H   -1.228757    0.305358    4.419622
 H   -2.543429    1.265475    3.735457
 H   -1.744977    3.371565    3.469160
 H   -0.157544    3.744096    2.915319
 H   -1.885854    1.413422   -1.185794
 H   -3.004776    1.670657   -3.101773
 H   -3.319348   -1.213218   -1.662996
 H   -2.754196   -1.599591    0.502399
 H   -4.371616    1.490850   -0.714666
 H   -4.809178    0.645763   -2.213621
 H   -5.374592   -0.388811    0.593250
 H   -5.264951   -2.173397   -1.373051
 H   -7.075017    1.182915   -1.384387
 H   -6.681212    1.599548    0.282985
 H   -7.509947   -2.840239   -1.807492
 H   -8.999692    0.735972    0.173517
 H   -7.997842   -0.412320    1.058431
 H   -9.295933   -1.740552   -0.491780
 H   -8.992305   -0.644965   -1.823747
 H    0.062069    1.533813   -2.443438
 H   -0.843970   -0.859225   -2.878852
 H   -0.640184   -0.970256   -1.115197
 H   -0.059561    1.062757   -0.015685
 H    2.168809    0.353312    0.892038
 H    1.218902   -0.909956    0.156063
 H    3.440990   -1.262284   -0.529811
 H    3.604906    1.603229   -1.583014
 H    4.431583    0.931649   -0.185688
 H    5.630344   -0.684349   -1.625203
 H    5.897930    0.951738   -2.226656
 H    5.370591   -0.640476   -4.093181
 H    4.174548    0.635376   -3.976672
 H    3.056161   -1.578659   -4.273514
 H    3.935017   -2.223612   -2.891056
 H    1.737346   -1.768213   -2.124571
 H    1.005286   -0.135349   -3.864433
 H    2.055381    1.101114   -3.159021
 H    1.635258    2.443410    1.239690
 H    1.682633    6.393212    0.523580
 H    0.865053    5.329689   -0.639688
 H    0.461785    5.236951    1.086630
 H    3.354983    5.377508    2.196152
 H    3.705459    3.640527    2.147120
 H    2.136559    4.216407    2.740676
 H    3.981604    5.536765   -0.253134
 H    3.162255    4.524017   -1.456953
 H    4.294528    3.790689   -0.297744
