168 
4qh7_ligand_xtb.xyz
 N    3.030182    0.304894   -1.745638
 C    4.264297   -0.231587   -2.347970
 C    5.223331   -0.528513   -1.184541
 O    5.120939    0.122097   -0.153398
 C    4.890032    0.792341   -3.287842
 N    6.130674   -1.475453   -1.421679
 C    7.035030   -2.063005   -0.431064
 C    6.166459   -2.895616    0.534764
 O    6.173622   -4.105171    0.517556
 C    7.923385   -1.008618    0.246219
 C    8.747715   -0.307993   -0.799235
 C    9.933676   -0.864638   -1.257349
 C    8.305105    0.879601   -1.369308
 C   10.663422   -0.252912   -2.259135
 C    9.020512    1.495673   -2.375634
 C   10.208671    0.930513   -2.830447
 O   10.879550    1.563037   -3.824986
 N    5.388063   -2.149776    1.351581
 C    4.173915   -2.723790    1.883425
 C    3.124713   -2.718587    0.758427
 O    3.322957   -2.124530   -0.288770
 C    3.614985   -1.895271    3.067207
 O    2.764803   -0.867018    2.598132
 C    4.724407   -1.358713    3.963756
 N    1.976211   -3.349459    1.031221
 C    0.851701   -3.326754    0.118470
 C   -0.286864   -2.522735    0.752087
 O   -1.468115   -2.806264    0.591068
 C    0.409243   -4.748506   -0.288521
 C    1.614700   -5.662667   -0.557436
 C   -0.514385   -4.691452   -1.505003
 C    2.505500   -5.219022   -1.713134
 N    0.108114   -1.476783    1.493693
 C   -0.770628   -0.866029    2.462570
 C   -0.961496    0.636199    2.250150
 O   -0.074424    1.365618    1.809831
 C   -0.187900   -1.057705    3.867391
 S    0.093286   -2.824772    4.226990
 N   -2.157413    1.065817    2.630941
 C   -2.542410    2.463750    2.657036
 C   -1.388729    3.262429    3.283624
 O   -0.766312    2.856608    4.240972
 C   -3.797799    2.625180    3.504668
 N   -1.161753    4.446772    2.681692
 C   -0.044325    5.285810    3.043028
 C    1.102511    5.191101    2.034558
 O    1.800121    6.132210    1.735213
 N    1.236361    3.959184    1.490080
 C    2.240491    3.663503    0.500759
 C    1.620112    3.349497   -0.868417
 O    2.289070    2.902866   -1.794067
 C    3.146369    2.490108    0.947667
 O    2.489034    1.244312    0.801034
 C    3.635272    2.698615    2.377929
 N    0.313286    3.591556   -0.934607
 C   -0.619004    3.250319   -1.981287
 C   -2.014548    3.397170   -1.348784
 O   -2.144661    3.794769   -0.200476
 C   -0.392402    1.824700   -2.508764
 C   -0.461733    0.794327   -1.376369
 C   -0.320537   -0.595874   -1.950870
 O    0.776525   -1.084294   -2.226556
 N   -1.462705   -1.235336   -2.166572
 N   -3.042904    3.089104   -2.141239
 C   -4.384761    2.868664   -1.654062
 C   -4.538357    1.361802   -1.365299
 O   -3.611924    0.589451   -1.549474
 C   -5.386234    3.329244   -2.730514
 O   -5.068051    2.583998   -3.889946
 C   -5.286061    4.833907   -2.967634
 N   -5.720688    0.981642   -0.883904
 C   -6.110157   -0.402491   -0.735326
 C   -7.604757   -0.460323   -1.071884
 O   -8.281459    0.551463   -0.986572
 C   -5.935409   -0.872205    0.721910
 C   -4.523589   -1.324632    1.027068
 O   -3.938674   -1.002650    2.037211
 O   -4.012644   -2.110562    0.108422
 N   -8.098691   -1.646290   -1.435726
 C   -9.538488   -1.832152   -1.476458
 C  -10.057125   -1.808165   -0.037891
 O   -9.344057   -1.863009    0.926750
 C   -9.715653   -3.211600   -2.112308
 C   -8.480336   -3.958987   -1.613202
 C   -7.384273   -2.893182   -1.655791
 O  -11.379366   -1.741590    0.010006
 H    2.853061    1.299933   -1.998038
 H    3.150732    0.322396   -0.710017
 H    2.172843   -0.282292   -1.950819
 H    4.030548   -1.158316   -2.876038
 H    4.231238    0.983475   -4.130748
 H    5.059572    1.727098   -2.758835
 H    5.844491    0.436794   -3.666386
 H    6.063255   -1.975312   -2.293841
 H    7.675243   -2.765999   -0.970961
 H    7.313370   -0.282491    0.780223
 H    8.565781   -1.523050    0.961846
 H   10.297539   -1.783730   -0.821706
 H    7.393321    1.334440   -1.012223
 H   11.591202   -0.692526   -2.599619
 H    8.684124    2.418973   -2.819454
 H   11.697933    1.093655   -4.027679
 H    5.332288   -1.159464    1.128202
 H    4.393985   -3.749519    2.192551
 H    2.955251   -2.540316    3.659048
 H    3.264535   -0.209833    2.085287
 H    4.286182   -0.853386    4.820590
 H    5.352259   -0.652902    3.425712
 H    5.343918   -2.177474    4.315700
 H    1.845915   -3.815917    1.916193
 H    1.191305   -2.783853   -0.773390
 H   -0.152418   -5.177141    0.549519
 H    2.222614   -5.738678    0.345978
 H    1.230764   -6.662262   -0.770746
 H   -0.726500   -5.698986   -1.853560
 H   -0.044320   -4.135964   -2.312702
 H   -1.453728   -4.215939   -1.240018
 H    3.351647   -5.896186   -1.797186
 H    2.893561   -4.217700   -1.551405
 H    1.964378   -5.236143   -2.654984
 H    1.098736   -1.297946    1.644826
 H   -1.744229   -1.362299    2.381906
 H    0.795941   -0.592916    3.928120
 H   -0.839150   -0.635175    4.629896
 H   -1.188778   -3.183165    4.250241
 H   -2.873378    0.391198    2.871765
 H   -2.717231    2.814563    1.633034
 H   -4.132082    3.658764    3.486479
 H   -3.585101    2.346869    4.534285
 H   -4.593950    1.989900    3.122880
 H   -1.663480    4.672491    1.835059
 H    0.317346    4.946359    4.019061
 H   -0.351286    6.330750    3.122764
 H    0.682214    3.182995    1.836319
 H    2.856592    4.565541    0.393528
 H    4.003098    2.440274    0.268264
 H    1.652208    1.250221    1.309361
 H    2.816681    2.570119    3.083227
 H    4.412752    1.975774    2.610126
 H    4.044582    3.697533    2.494481
 H   -0.150449    3.934589   -0.095211
 H   -0.529914    3.960503   -2.815616
 H   -1.145360    1.587720   -3.261272
 H    0.585907    1.789868   -2.988775
 H    0.338107    0.970096   -0.657138
 H   -1.420244    0.876210   -0.865802
 H   -2.347684   -0.801855   -1.939523
 H   -1.450582   -2.172473   -2.537766
 H   -2.890123    2.712132   -3.065798
 H   -4.521309    3.437667   -0.730180
 H   -6.406883    3.083337   -2.398238
 H   -5.616393    2.890948   -4.620128
 H   -5.522812    5.373530   -2.055554
 H   -5.989273    5.139197   -3.739285
 H   -4.281236    5.101604   -3.284878
 H   -6.509780    1.615621   -0.790466
 H   -5.505567   -1.015972   -1.407937
 H   -6.205707   -0.064287    1.403145
 H   -6.610489   -1.706248    0.928436
 H   -3.081844   -2.389215    0.327092
 H  -10.026969   -1.027363   -2.031484
 H   -9.696102   -3.120065   -3.198263
 H  -10.650099   -3.681680   -1.816165
 H   -8.236496   -4.823062   -2.226152
 H   -8.635521   -4.289966   -0.586243
 H   -6.617761   -3.067490   -0.901065
 H   -6.906506   -2.864338   -2.642000
 H  -11.701056   -1.722092    0.926429
