56 
4qhp_ligand_xtb.xyz
 P   -1.418880    1.986627   -0.187829
 C   -3.198739    0.698350    1.666653
 C   -3.078481    1.826005    0.642759
 C   -2.591172   -0.618974    1.194555
 C   -3.330464   -1.244176   -0.016820
 N   -4.000576    1.614982   -0.458522
 C   -0.208831    2.175134    1.215481
 O   -1.690668    3.461048   -0.768030
 C    1.204947    1.722897    0.875058
 O   -1.118420    0.998572   -1.228807
 C    1.674359    2.432248   -0.364719
 C    1.272813    0.192152    0.646177
 C   -4.609143   -1.889791    0.367292
 C    2.662403   -0.284662    0.356994
 C   -4.928597   -3.155977   -0.005508
 C   -4.044110   -3.936192   -0.763259
 C   -2.804311   -3.404061   -1.144890
 C   -2.442536   -2.144106   -0.790929
 C    6.576562   -1.607504   -0.461477
 O    2.985930    2.360358   -0.544200
 O    0.944216    3.026310   -1.122411
 N    3.068732   -3.809452    0.751110
 C    3.620629   -0.359308    1.372858
 C    4.896459   -0.784761    1.116430
 C    5.299385   -1.169415   -0.195294
 C    4.307676   -1.084401   -1.214676
 C    3.037248   -0.654571   -0.937792
 H   -4.258338    0.558909    1.896707
 H   -2.706717    1.005588    2.593012
 H   -3.252004    2.788085    1.157087
 H   -2.590932   -1.339322    2.016410
 H   -1.557803   -0.439489    0.898233
 H   -3.740585    2.191336   -1.252013
 H   -4.956038    1.832534   -0.196569
 H   -3.560090   -0.365857   -0.656288
 H   -0.216018    3.229715    1.496106
 H   -0.577024    1.596317    2.061974
 H   -0.983375    3.650819   -1.393610
 H    1.896557    1.976631    1.686489
 H    0.897675   -0.288684    1.554298
 H    0.612900   -0.056785   -0.183967
 H   -5.297408   -1.307733    0.961861
 H   -5.876501   -3.582331    0.293363
 H   -4.311790   -4.943102   -1.040815
 H   -2.126200   -4.018518   -1.719934
 H   -1.491136   -1.733282   -1.090394
 H    6.871216   -1.898261   -1.453584
 H    7.318286   -1.670638    0.313960
 H    3.248826    2.767882   -1.385276
 H    2.475065   -3.265809    0.135206
 H    3.883337   -4.079110    0.211804
 H    3.393420   -3.178338    1.474788
 H    3.340957   -0.081890    2.381045
 H    5.624008   -0.839731    1.913548
 H    4.579392   -1.371021   -2.220550
 H    2.301362   -0.599657   -1.729342
