51 
4qjm_ligand_dft.xyz
 F   -0.737260   -2.322737   -0.936954
 C   -1.028702   -1.024138   -0.824241
 C   -2.344581   -0.643141   -0.654788
 S   -3.665785   -1.843816   -0.476394
 O   -3.117602   -3.100965   -0.011016
 N   -4.490738   -1.214582    0.835161
 O   -4.474393   -1.755762   -1.676588
 C   -2.662935    0.713410   -0.648642
 F   -3.930799    1.123822   -0.521805
 C   -1.657780    1.643634   -0.750340
 F   -1.996541    2.934473   -0.678745
 C    0.046058   -0.100492   -0.905870
 C   -0.313761    1.270377   -0.847994
 S    0.880329    2.615088   -0.828727
 O    0.513647    3.579183   -1.853994
 O    2.228457    2.033824   -0.833344
 C    0.662608    3.401305    0.781899
 C    1.224866    2.604600    1.960761
 C    0.533450    1.286098    2.236296
 C   -0.848031    1.230629    2.445409
 C   -1.491979    0.016861    2.652618
 C    1.263258    0.098336    2.278556
 C    0.624583   -1.116798    2.518952
 C   -0.754849   -1.165245    2.687568
 N    1.330157   -0.516350   -1.059464
 C    1.870115   -1.837393   -0.733626
 C    3.363750   -1.717473   -0.544748
 C    4.173833   -1.291718   -1.600671
 C    5.546653   -1.156140   -1.428094
 C    6.128848   -1.452787   -0.197812
 C    5.331203   -1.883651    0.857267
 C    3.955490   -2.011574    0.682981
 H   -4.766578   -1.981441    1.441382
 H   -5.278849   -0.643338    0.547349
 H   -0.400689    3.629315    0.876324
 H    1.197807    4.348652    0.659084
 H    1.143920    3.255263    2.840823
 H    2.291946    2.436208    1.789917
 H   -1.435507    2.146194    2.422446
 H   -2.570935   -0.011037    2.769101
 H    2.336354    0.119306    2.104619
 H    1.205941   -2.033351    2.564990
 H   -1.255416   -2.116718    2.837474
 H    2.011755    0.234409   -1.043345
 H    1.646179   -2.542572   -1.540601
 H    1.411668   -2.226202    0.179120
 H    3.722580   -1.060442   -2.562406
 H    6.163797   -0.820892   -2.256081
 H    7.201246   -1.348697   -0.063412
 H    5.777901   -2.118503    1.818821
 H    3.336186   -2.348435    1.510627
