51 
4qjo_ligand_dft.xyz
 F    0.742575   -2.337308   -0.797356
 C    1.114431   -1.056187   -0.742397
 C    2.446696   -0.753258   -0.539376
 S    3.676425   -2.026832   -0.170261
 O    3.214332   -3.288371   -0.700033
 N    5.014635   -1.631719   -1.049946
 O    3.997793   -1.831097    1.227771
 C    2.829150    0.588524   -0.474812
 F    4.108463    0.940290   -0.256537
 C    1.884670    1.571958   -0.629996
 F    2.280271    2.845771   -0.535941
 C    0.091671   -0.074245   -0.852466
 C    0.530493    1.274154   -0.793048
 S   -0.568225    2.693086   -0.826677
 O   -1.948315    2.191777   -0.837546
 O   -0.138675    3.594710   -1.884499
 C   -0.337611    3.531963    0.774020
 C    0.272453    2.728858    1.930309
 C   -0.292548    1.349724    2.200122
 C   -1.666609    1.101749    2.205586
 C   -2.154714   -0.174969    2.467877
 C    0.581570    0.291957    2.462841
 C    0.098914   -0.986345    2.721566
 C   -1.274028   -1.221360    2.728490
 N   -1.212451   -0.408557   -1.008638
 C   -1.828079   -1.711431   -0.763145
 C   -3.331131   -1.561003   -0.719489
 C   -4.064609   -2.193763    0.284399
 C   -5.451300   -2.083993    0.328851
 C   -6.121059   -1.330125   -0.630365
 C   -5.397344   -0.695306   -1.636042
 C   -4.012126   -0.814685   -1.683912
 H    4.915849   -1.824364   -2.040043
 H    5.403323   -0.721522   -0.833361
 H   -1.353069    3.870643    0.999323
 H    0.280857    4.403672    0.552661
 H    0.147825    3.357669    2.821537
 H    1.351612    2.650261    1.773836
 H   -2.367760    1.901458    1.985586
 H   -3.225426   -0.353125    2.453030
 H    1.655722    0.461523    2.445569
 H    0.798958   -1.795428    2.907075
 H   -1.655400   -2.217853    2.933040
 H   -1.845841    0.380888   -0.933202
 H   -1.479325   -2.132287    0.184075
 H   -1.548073   -2.408729   -1.559097
 H   -3.543700   -2.775954    1.040611
 H   -6.007307   -2.582727    1.117257
 H   -7.202267   -1.236979   -0.594226
 H   -5.912016   -0.105881   -2.388771
 H   -3.456641   -0.317635   -2.474931
