51 
4qjp_ligand_dft.xyz
 F    1.892006   -2.154905   -0.599862
 C    2.053083   -0.890808   -0.157941
 C    3.304788   -0.294449   -0.276872
 S    4.692181   -1.244306   -0.941879
 O    4.860836   -2.371815   -0.054010
 N    4.160727   -1.834054   -2.387313
 O    5.749245   -0.311401   -1.251159
 C    3.438410    0.996258    0.216244
 F    4.592665    1.639761    0.208203
 C    2.336310    1.669237    0.751463
 F    2.562497    2.890067    1.206973
 C    0.934716   -0.260984    0.376196
 C    1.078010    1.076915    0.797121
 S   -0.316798    2.051135    1.449589
 O   -0.006251    3.452597    1.209789
 O   -0.573255    1.566667    2.805438
 C   -1.758332    1.658905    0.450665
 C   -1.562413    1.722493   -1.060846
 C   -2.837831    1.282723   -1.749269
 C   -3.567023    2.161589   -2.548610
 C   -4.753095    1.752500   -3.154728
 C   -3.320433   -0.017119   -1.562823
 C   -4.506313   -0.425446   -2.160613
 C   -5.226652    0.459048   -2.960976
 N   -0.296446   -0.937421    0.424753
 C   -0.683464   -1.548314    1.718035
 C   -2.140829   -1.929710    1.640469
 C   -2.537499   -3.030820    0.878221
 C   -3.887099   -3.316279    0.694428
 C   -4.855279   -2.504759    1.281265
 C   -4.468033   -1.418857    2.061282
 C   -3.117523   -1.134028    2.241639
 H    3.386637   -2.483535   -2.321749
 H    4.080448   -1.135686   -3.116706
 H   -2.469390    2.420788    0.789845
 H   -2.113244    0.681412    0.764776
 H   -0.741589    1.057571   -1.350736
 H   -1.286709    2.738212   -1.359742
 H   -3.206038    3.176231   -2.698051
 H   -5.308667    2.449252   -3.775472
 H   -2.769179   -0.714093   -0.935575
 H   -4.868316   -1.435773   -1.993725
 H   -6.153837    0.141671   -3.428772
 H   -0.331886   -1.645561   -0.300193
 H   -0.521997   -0.806424    2.502512
 H   -0.054193   -2.422282    1.939638
 H   -1.784326   -3.672990    0.424966
 H   -4.182960   -4.174808    0.098796
 H   -5.908932   -2.723741    1.137554
 H   -5.218783   -0.789196    2.528711
 H   -2.813232   -0.281245    2.844103
