42 
4qjx_ligand_dft.xyz
 F    0.606346   -2.278196    0.157109
 C   -0.321084   -1.341382   -0.044732
 C   -1.659233   -1.686423    0.006097
 S   -2.208349   -3.388358    0.297985
 O   -2.763745   -3.399024    1.632308
 N   -3.449811   -3.632119   -0.758432
 O   -1.147951   -4.271487   -0.127790
 C   -2.607157   -0.664571   -0.064905
 F   -3.917852   -0.931098    0.031137
 C   -2.207564    0.641492   -0.227045
 F   -3.152131    1.582259   -0.272459
 C    0.141123   -0.016662   -0.256253
 C   -0.855163    0.984825   -0.335644
 S   -0.498413    2.721402   -0.657279
 O   -1.308512    3.155641   -1.784989
 O    0.957599    2.887076   -0.716526
 C   -1.060533    3.545156    0.834335
 C   -0.811744    5.047111    0.740217
 O   -1.289311    5.580362    1.956137
 N    1.489535    0.230856   -0.279743
 C    2.429075   -0.529786   -1.109686
 C    3.767055   -0.682213   -0.423102
 C    3.835190   -1.228145    0.860779
 C    5.062628   -1.391399    1.490417
 C    6.237715   -1.010893    0.843370
 C    6.176721   -0.465576   -0.434112
 C    4.943907   -0.300492   -1.062632
 H   -4.253456   -3.032703   -0.614782
 H   -3.155016   -3.730124   -1.722785
 H   -0.504582    3.113404    1.670855
 H   -2.125902    3.339450    0.949964
 H   -1.349455    5.452752   -0.127483
 H    0.261488    5.234387    0.601862
 H   -1.155847    6.534778    1.936694
 H    1.705496    1.221399   -0.283913
 H    2.557844   -0.018864   -2.073376
 H    2.007363   -1.511876   -1.323442
 H    2.916913   -1.520094    1.361372
 H    5.104927   -1.818419    2.488060
 H    7.196746   -1.138149    1.336693
 H    7.087092   -0.162115   -0.942476
 H    4.898995    0.132822   -2.059129
