16 
4qkd_ligand_xtb.xyz
 C   -2.449060    0.371473   -0.062805
 O   -2.529116    1.515912   -0.403867
 O   -3.469380   -0.399862    0.275359
 C   -1.109036   -0.404218    0.018770
 O   -1.163528   -1.580694    0.304764
 C    0.118866    0.386346   -0.251763
 C    1.358336   -0.476836   -0.467271
 C    2.602911    0.183667    0.107128
 O    2.580445    1.148013    0.812197
 O    3.758356   -0.414758   -0.219013
 H   -3.128347   -1.294939    0.490641
 H    0.287830    1.027653    0.624849
 H   -0.073201    1.069911   -1.080523
 H    1.506422   -0.691669   -1.528003
 H    1.219415   -1.430674    0.054603
 H    3.641554   -1.191750   -0.781436
