37 
4ql8_ligand_xtb.xyz
Cl    4.324813   -1.655542   -0.093413
 C    3.051139   -0.481982    0.013929
 C    3.430645    0.834484    0.294635
 C    4.788052    1.175203    0.477868
 N    5.883896    1.475375    0.633025
 C    1.721688   -0.842778   -0.168874
 C    1.346772   -2.252902   -0.473432
 C    0.739193    0.167474   -0.059082
 C    1.129120    1.486114    0.214888
 C    2.449276    1.821791    0.390353
 C   -0.666727   -0.111356   -0.211703
 C   -1.754096    0.966929   -0.104090
 O   -1.594307    1.944002   -1.102109
 C   -2.400461    3.082184   -0.912258
 C   -3.019145    0.112483   -0.291361
 C   -3.913182   -0.132975    0.928301
 O   -4.887354    0.871986    1.014178
 C   -4.474202   -1.539879    0.644712
 C   -3.340399   -2.269735   -0.088189
 N   -2.492497   -1.214872   -0.616111
 N   -1.176292   -1.275533   -0.423883
 H    0.733095   -2.655402    0.329793
 H    0.743056   -2.287475   -1.377359
 H    2.229286   -2.872038   -0.597456
 H    0.382433    2.259487    0.270795
 H    2.741614    2.839628    0.599472
 H   -1.734842    1.442712    0.892517
 H   -2.140399    3.595753    0.022437
 H   -3.465120    2.828674   -0.883014
 H   -2.201960    3.739020   -1.756413
 H   -3.629539    0.489510   -1.117330
 H   -3.292495   -0.151000    1.840003
 H   -5.472501    0.685700    1.756163
 H   -4.776900   -2.058777    1.552759
 H   -5.343073   -1.432146   -0.006229
 H   -3.717907   -2.890712   -0.904757
 H   -2.755094   -2.901742    0.584683
