87 
4qlk_ligand_dft.xyz
 O  -10.445735    0.879964    0.248173
 C   -9.279565    0.379149   -0.310376
 C   -8.230542    1.475340   -0.487802
 O   -8.782089    2.441997   -1.355077
 C   -6.946279    0.874868   -1.030462
 O   -5.992124    1.915017   -1.124722
 O   -8.797632   -0.593560    0.580368
 C   -7.645672   -1.268568    0.099072
 C   -7.282865   -2.305067    1.153148
 O   -6.994236   -1.696002    2.392919
 C   -6.508582   -0.264173   -0.115948
 O   -5.409414   -0.958259   -0.697991
 C   -4.218991   -0.806510   -0.021259
 C   -3.183949   -1.782154   -0.556109
 O   -3.584774   -3.092201   -0.249638
 C   -1.827046   -1.474784    0.079429
 O   -0.901711   -2.346310   -0.531213
 O   -3.763990    0.515029   -0.272434
 C   -2.589022    0.880881    0.434523
 C   -2.401827    2.371468    0.201782
 O   -3.473354    3.105967    0.738473
 C   -1.448614    0.000263   -0.072332
 O   -0.297359    0.312920    0.700916
 C    0.923351    0.277188    0.077546
 C    1.858308    1.277418    0.741576
 O    1.344442    2.565356    0.521298
 C    3.255767    1.146126    0.147162
 O    4.082479    2.028291    0.867161
 O    1.462336   -1.041882    0.227615
 C    2.708442   -1.238427   -0.417541
 C    3.027721   -2.728562   -0.260297
 O    4.156120   -3.159331   -0.995607
 C    3.742900   -0.299591    0.207037
 O    4.945400   -0.457679   -0.521976
 C    6.139321   -0.259592    0.149415
 C    7.154451   -1.256347   -0.394625
 O    6.796460   -2.571175   -0.061310
 C    8.507030   -0.975980    0.236459
 O    9.522700   -1.788636   -0.307428
 C    8.909642    0.473935    0.015992
 O   10.085946    0.782875    0.726181
 O    6.560601    1.077422   -0.082691
 C    7.814295    1.410301    0.528853
 C    8.071537    2.867579    0.174494
 O    8.112518    3.067718   -1.218124
 H  -10.585275    1.748291   -0.155968
 H   -9.478698   -0.095106   -1.291012
 H   -8.032864    1.906317    0.505946
 H   -8.087462    3.089384   -1.534301
 H   -7.145339    0.458320   -2.030909
 H   -5.129928    1.491503   -1.270270
 H   -7.862853   -1.774011   -0.856001
 H   -6.384398   -2.842530    0.839424
 H   -8.109943   -3.023632    1.240349
 H   -7.773128   -1.170107    2.621589
 H   -6.222794    0.148018    0.858675
 H   -4.358837   -0.947085    1.064013
 H   -3.109753   -1.625400   -1.643394
 H   -2.816350   -3.653389   -0.423558
 H   -1.903757   -1.685280    1.158959
 H   -0.033117   -2.171076   -0.131191
 H   -2.735399    0.708226    1.511616
 H   -2.284188    2.544897   -0.881174
 H   -1.486942    2.704980    0.696145
 H   -4.291345    2.782982    0.332204
 H   -1.260587    0.219019   -1.133520
 H    0.830211    0.501203   -0.998947
 H    1.899531    1.036035    1.814552
 H    2.030748    3.181909    0.812484
 H    3.204067    1.437524   -0.915638
 H    4.973746    1.991187    0.475444
 H    2.618392   -0.998432   -1.492256
 H    3.243141   -2.949839    0.787951
 H    2.135463   -3.300117   -0.550006
 H    4.018025   -2.953625   -1.928166
 H    3.894204   -0.583657    1.258444
 H    6.009475   -0.416049    1.233263
 H    7.223875   -1.108069   -1.483781
 H    5.919952   -2.767165   -0.444439
 H    8.419542   -1.148865    1.322566
 H    9.221166   -2.703046   -0.220276
 H    9.039276    0.649863   -1.061664
 H   10.734327    0.108097    0.483726
 H    7.735513    1.302978    1.621742
 H    7.296422    3.489810    0.649242
 H    9.043602    3.162348    0.574375
 H    7.290743    2.704857   -1.573820
