59 
4qmq_ligand_dft.xyz
 C   -5.631787    2.472266    0.776984
 O   -4.893661    1.279757    0.566516
 C   -5.698094    0.216984    0.066922
 C   -4.872311   -1.046898    0.036574
 O   -3.915083   -0.932442   -1.005105
 C   -2.693895   -1.525992   -0.835985
 C   -2.393423   -2.436425    0.166466
 C   -1.046000   -2.774668    0.338397
 C   -0.054259   -2.198770   -0.466337
 C   -0.363467   -1.392401   -1.555986
 C   -1.700938   -1.072038   -1.738807
 N    1.155086   -2.642835    0.056953
 C    0.807271   -3.448631    1.125708
 N   -0.473090   -3.575714    1.313470
 C    2.348911   -1.861705    0.005870
 N    2.159786   -0.573585    0.114747
 C    3.234956    0.249813    0.076678
 C    4.553921   -0.246824   -0.093964
 C    5.634033    0.663624   -0.208772
 C    5.391179    2.011091   -0.151870
 C    4.086057    2.509405    0.066436
 C    3.007039    1.661697    0.197582
 N    1.699706    2.124434    0.386953
 C    0.881298    1.708762    1.506493
 C   -0.497856    1.240905    1.026988
 C   -1.138205    2.304714    0.136780
 C   -0.194282    2.794931   -0.962728
 C    1.155370    3.224862   -0.364454
 N   -2.360758    1.719688   -0.523200
 C    4.707890   -1.653882   -0.180983
 C    3.610751   -2.475856   -0.133845
 H   -6.077452    2.835192   -0.158682
 H   -6.427968    2.310682    1.513214
 H   -4.938088    3.220381    1.166598
 H   -6.073842    0.462995   -0.935694
 H   -6.557497    0.067064    0.733927
 H   -5.514744   -1.918220   -0.133804
 H   -4.377281   -1.157637    1.007850
 H   -3.139048   -2.865952    0.823954
 H    0.402520   -1.008959   -2.220576
 H   -2.018709   -0.495723   -2.605170
 H    1.572565   -3.903989    1.742015
 H    6.640946    0.283109   -0.350274
 H    6.211858    2.714902   -0.245523
 H    3.935777    3.581340    0.155474
 H    0.769068    2.543633    2.219958
 H    1.369083    0.889784    2.033606
 H   -1.146659    1.017842    1.881684
 H   -0.344170    0.321592    0.454174
 H   -1.486814    3.152728    0.736501
 H   -0.649439    3.628562   -1.513088
 H   -0.005446    1.974633   -1.666767
 H    1.838057    3.491762   -1.173699
 H    1.014130    4.123769    0.260534
 H   -2.711140    2.329589   -1.266066
 H   -2.102152    0.817763   -0.959569
 H   -3.178108    1.516668    0.094510
 H    5.702297   -2.072825   -0.305454
 H    3.692140   -3.552903   -0.228279
