59 
4qmq_ligand_xtb.xyz
 C   -5.082772    2.511036    1.223701
 O   -4.573303    1.294101    0.705402
 C   -5.541473    0.559023   -0.041282
 C   -5.031895   -0.862104   -0.276918
 O   -4.004657   -0.837887   -1.249921
 C   -2.797058   -1.422413   -0.963997
 C   -2.592811   -2.393123   -0.000691
 C   -1.276256   -2.736716    0.290765
 C   -0.200908   -2.094895   -0.367286
 C   -0.408816   -1.252525   -1.445159
 C   -1.719937   -0.911641   -1.728943
 N    0.941754   -2.568306    0.236339
 C    0.511840   -3.466237    1.175668
 N   -0.775693   -3.596614    1.229893
 C    2.178005   -1.899917    0.169298
 N    2.075016   -0.596025    0.219199
 C    3.180942    0.160282    0.112348
 C    4.456264   -0.431221   -0.112650
 C    5.564796    0.391232   -0.377810
 C    5.402132    1.750417   -0.429538
 C    4.165950    2.340250   -0.153813
 C    3.053466    1.581162    0.159464
 N    1.857367    2.186554    0.507737
 C    0.988628    1.700195    1.542466
 C   -0.352315    1.203896    0.979812
 C   -0.990905    2.281791    0.113721
 C   -0.000623    2.778932   -0.935364
 C    1.290740    3.265213   -0.247545
 N   -2.189470    1.713337   -0.579708
 C    4.530928   -1.842257   -0.087928
 C    3.396489   -2.592069    0.065164
 H   -5.378024    3.190474    0.417781
 H   -5.947706    2.326575    1.863986
 H   -4.289256    2.959574    1.818151
 H   -5.732386    1.058762   -0.999395
 H   -6.476486    0.509589    0.525875
 H   -5.856889   -1.483134   -0.638612
 H   -4.666698   -1.258187    0.673376
 H   -3.395467   -2.886541    0.519699
 H    0.413680   -0.863399   -2.024672
 H   -1.958777   -0.343253   -2.617803
 H    1.194946   -3.992322    1.813929
 H    6.527462   -0.062505   -0.553989
 H    6.243772    2.387380   -0.654008
 H    4.090383    3.416961   -0.154136
 H    0.802521    2.521296    2.249441
 H    1.478394    0.888684    2.075797
 H   -1.014101    0.922995    1.798906
 H   -0.136873    0.323816    0.376805
 H   -1.321184    3.122507    0.733043
 H   -0.430229    3.594953   -1.518962
 H    0.259870    1.959175   -1.606861
 H    1.996578    3.602457   -1.004974
 H    1.052940    4.110179    0.412125
 H   -2.489425    2.334792   -1.335867
 H   -1.935454    0.775305   -0.998192
 H   -3.025771    1.538585    0.042732
 H    5.493468   -2.317053   -0.207811
 H    3.415108   -3.669870    0.074685
