70 
4qmt_ligand_dft.xyz
 C    7.054062    0.648947    0.863301
 C    7.577803    0.599118    2.292085
 C    8.845709   -0.250197    2.395307
 C    8.597602   -1.646239    1.821242
 C    8.058198   -1.577702    0.398104
 N    6.810717   -0.739811    0.333685
 C    6.191852   -0.733002   -1.058387
 C    4.807111   -0.169561   -1.038264
 C    4.552371    1.153821   -1.410448
 C    3.269902    1.668678   -1.350965
 C    3.736057   -0.955936   -0.603438
 C    2.449684   -0.448024   -0.521495
 C    2.193722    0.878951   -0.908080
 N    0.953892    1.497234   -0.849337
 C   -0.310036    0.969419   -0.725371
 C   -0.530979   -0.455156   -1.076059
 C   -1.066793   -1.344453   -0.142444
 C   -1.281154   -2.674439   -0.489562
 C   -0.955709   -3.120256   -1.767643
 C   -0.419740   -2.235616   -2.701422
 C   -0.205233   -0.906143   -2.358457
 C   -1.329548    1.808719   -0.367173
 C   -2.774158    1.594832   -0.250237
 C   -3.616134    0.515514   -0.479824
 C   -1.091804    3.233045   -0.038793
 O   -0.030285    3.860264   -0.060959
 N   -2.313011    3.763642    0.293826
 C   -3.332506    2.819407    0.169323
 C   -4.689647    2.977914    0.389265
 C   -5.513672    1.867951    0.208981
 C   -4.982371    0.651603   -0.224391
 N   -5.814734   -0.489163   -0.411545
 S   -5.690247   -1.806061    0.619398
 O   -6.746105   -2.710924    0.202331
 O   -4.295186   -2.217590    0.648114
 C   -6.072438   -1.173061    2.261225
 C   -7.511325   -0.698700    2.396963
 H    7.779594    1.106362    0.182939
 H    6.109119    1.188708    0.784876
 H    6.797129    0.201386    2.954064
 H    7.764540    1.627044    2.615635
 H    9.166171   -0.325079    3.437446
 H    9.661071    0.235671    1.844697
 H    7.887966   -2.195954    2.453741
 H    9.519181   -2.234989    1.803007
 H    7.803333   -2.566023    0.008281
 H    8.773960   -1.108736   -0.284145
 H    6.112982   -1.170437    0.950034
 H    6.205153   -1.775095   -1.389680
 H    6.875346   -0.158667   -1.689312
 H    5.361387    1.786300   -1.768582
 H    3.082005    2.692010   -1.661422
 H    3.900211   -1.995657   -0.323876
 H    1.650675   -1.081155   -0.160670
 H    0.963465    2.516514   -0.719817
 H   -1.344802   -0.988313    0.844740
 H   -1.734983   -3.347756    0.228711
 H   -1.135894   -4.154909   -2.041902
 H   -0.180676   -2.579228   -3.702982
 H    0.204996   -0.210969   -3.085231
 H   -3.252403   -0.434951   -0.843463
 H   -2.432999    4.737343    0.525661
 H   -5.103466    3.929576    0.706350
 H   -6.579520    1.955137    0.400469
 H   -6.780124   -0.317115   -0.668595
 H   -5.347293   -0.376509    2.452789
 H   -5.851495   -2.005987    2.934934
 H   -7.716155    0.151238    1.738419
 H   -8.210468   -1.502750    2.155388
 H   -7.694449   -0.373943    3.424793
