70 
4qmt_ligand_xtb.xyz
 C    6.966770    0.402123    0.756458
 C    7.481774   -0.138033    2.083452
 C    8.753671   -0.952368    1.863955
 C    8.483471   -2.063224    0.853312
 C    7.940122   -1.479778   -0.445316
 N    6.700722   -0.710777   -0.186399
 C    6.039990   -0.227967   -1.442598
 C    4.656606    0.272494   -1.150997
 C    4.380638    1.636475   -1.066091
 C    3.109424    2.075564   -0.783382
 C    3.619440   -0.631279   -0.932378
 C    2.340812   -0.202651   -0.649980
 C    2.055063    1.168140   -0.577754
 N    0.829923    1.704904   -0.314989
 C   -0.417415    1.167140   -0.207161
 C   -0.677010   -0.281864   -0.361595
 C   -0.802472   -1.084032    0.768694
 C   -1.116632   -2.425040    0.633243
 C   -1.316766   -2.969102   -0.624568
 C   -1.196720   -2.172501   -1.750506
 C   -0.876241   -0.833055   -1.623327
 C   -1.454466    2.022033    0.042879
 C   -2.877257    1.778244    0.139393
 C   -3.652139    0.640519    0.000405
 C   -1.272147    3.471960    0.231021
 O   -0.215399    4.101352    0.203465
 N   -2.503915    4.002679    0.448042
 C   -3.488067    3.023708    0.385359
 C   -4.856364    3.142982    0.500440
 C   -5.625921    1.997688    0.358866
 C   -5.036794    0.757930    0.102645
 N   -5.832373   -0.370092   -0.045127
 S   -5.343120   -1.948818   -0.271664
 O   -6.544305   -2.660439   -0.574284
 O   -4.248701   -2.016458   -1.195133
 C   -4.746848   -2.437334    1.371723
 C   -5.892224   -2.338531    2.350680
 H    7.711158    1.057366    0.298924
 H    6.040246    0.963364    0.894473
 H    6.716177   -0.759529    2.553338
 H    7.679614    0.699722    2.750928
 H    9.088687   -1.381721    2.806558
 H    9.548719   -0.302883    1.494678
 H    7.766149   -2.775611    1.267180
 H    9.400882   -2.609199    0.636672
 H    7.719127   -2.275369   -1.159766
 H    8.669436   -0.801972   -0.894039
 H    6.031782   -1.338921    0.276007
 H    6.002347   -1.068506   -2.139608
 H    6.663225    0.558665   -1.870939
 H    5.166354    2.356801   -1.241378
 H    2.903295    3.133424   -0.726988
 H    3.807946   -1.694311   -1.001610
 H    1.563150   -0.929267   -0.492588
 H    0.802663    2.733225   -0.202367
 H   -0.659900   -0.649090    1.747758
 H   -1.213523   -3.042703    1.514367
 H   -1.577807   -4.010431   -0.728140
 H   -1.369435   -2.591628   -2.728501
 H   -0.795194   -0.204189   -2.497087
 H   -3.219614   -0.313553   -0.236887
 H   -2.676292    4.984319    0.594118
 H   -5.323896    4.097233    0.685240
 H   -6.700467    2.065836    0.433240
 H   -6.829517   -0.242530   -0.061875
 H   -3.916865   -1.778953    1.609706
 H   -4.389624   -3.456590    1.254722
 H   -6.174066   -1.299456    2.502948
 H   -6.748078   -2.876857    1.950658
 H   -5.623788   -2.769659    3.312586
