59 
4qmv_ligand_xtb.xyz
 C    0.292776    1.026864   -2.375560
 C    1.405089    1.720492   -1.625028
 O    1.214081    2.397817   -0.632000
 N    2.638993    1.519534   -2.133510
 C    3.848819    2.035841   -1.529011
 C    4.705681    0.860736   -1.040173
 O    5.645723    0.448030   -1.692853
 N    4.337456    0.319275    0.126979
 C    4.736670   -1.007174    0.598268
 C    4.869662   -0.743458    2.112102
 C    3.755727    0.293697    2.360714
 C    3.145045    0.477265    0.952801
 C    2.431223   -0.809771    0.627050
 C    3.440144   -1.752128    0.400745
 C    3.119381   -3.050227    0.078862
 C    1.776240   -3.378119   -0.051723
 C    0.769507   -2.433576    0.155096
 C    1.100671   -1.126514    0.529800
 N   -0.544823   -2.839452   -0.031856
 C   -1.702154   -2.135959   -0.065941
 N   -2.775824   -2.901651   -0.325574
 C   -3.936341   -2.284894   -0.385409
 C   -4.073791   -0.920066   -0.190485
 C   -2.885687   -0.188998    0.090799
 N   -1.713184   -0.825577    0.138100
 N   -2.900095    1.133893    0.292864
 C   -1.768919    1.915512    0.710649
 C   -1.796132    3.396957    0.308566
 C   -1.466889    3.779263    1.759899
 C   -1.736484    2.331670    2.195620
 C   -5.397069   -0.250697   -0.259107
 F   -6.404739   -1.086338   -0.527042
 F   -5.728335    0.380585    0.895299
 F   -5.449360    0.719322   -1.204285
 H   -0.599322    1.647234   -2.353400
 H    0.061431    0.092519   -1.864964
 H    0.567679    0.813914   -3.404255
 H    2.762870    0.915098   -2.930277
 H    3.558698    2.703711   -0.717057
 H    4.428062    2.587861   -2.274890
 H    5.618150   -1.394286    0.096476
 H    4.729137   -1.657337    2.685865
 H    5.852163   -0.333088    2.338423
 H    3.006997   -0.054471    3.069238
 H    4.165680    1.236553    2.718759
 H    2.580419    1.392717    0.809122
 H    3.882343   -3.795355   -0.086424
 H    1.500899   -4.385516   -0.329177
 H    0.324152   -0.407243    0.718178
 H   -0.687512   -3.821576   -0.230345
 H   -4.796039   -2.906603   -0.596844
 H   -3.790509    1.606145    0.336729
 H   -0.860778    1.412461    0.387456
 H   -2.781086    3.729649   -0.014376
 H   -1.053039    3.682230   -0.430364
 H   -2.103412    4.537106    2.210408
 H   -0.426177    4.065686    1.882499
 H   -2.703827    2.204254    2.679053
 H   -0.970174    1.856991    2.803017
