72 
4qmx_ligand_dft.xyz
 C   -0.337873   -0.606324    2.697698
 N   -1.828711   -0.538504    2.700370
 C   -2.419976   -1.408605    1.616929
 C   -3.942255   -1.359423    1.649763
 N   -4.481238   -0.012986    1.619592
 C   -5.615210    0.915586   -1.817401
 C   -5.750396   -0.322928   -1.345457
 O   -3.779841   -2.824685   -1.644417
 C   -2.576645   -2.530504   -1.444811
 C   -2.024798   -1.258967   -1.910239
 C   -0.794208   -0.806528   -1.537944
 O   -0.367438    0.445598   -1.979599
 C   -0.784174    1.559673   -1.187002
 C   -0.021215    2.780250   -1.685757
 C   -0.504643    4.037814   -0.965113
 O   -1.895496    4.231876   -1.114304
 C   -2.628111    3.153368   -0.586596
 C   -2.283079    1.831395   -1.268673
 C    0.071047   -1.593991   -0.709423
 C    1.343685   -1.222966   -0.202645
 N    1.883314    0.008028   -0.510213
 C    3.164161    0.392018   -0.075937
 C    4.314121   -0.228580   -0.522957
 O    4.410080   -1.232425   -1.430031
 C    5.761698   -1.668453   -1.356700
 O    6.512172   -0.638680   -0.717937
 C    5.582840    0.141782   -0.094309
 C    5.779661    1.176152    0.790459
 C    4.634759    1.833777    1.262997
 C    3.372655    1.439699    0.844732
Cl    1.975219    2.268305    1.510736
 N    2.037825   -1.982786    0.635617
 C    1.471047   -3.168202    0.952426
 N    0.331450   -3.666023    0.557201
 C   -0.412718   -2.889660   -0.315719
 C   -1.665957   -3.343436   -0.702027
 C   -3.866246    0.873612    2.576219
 C   -2.332491    0.865891    2.560477
 H    0.027073   -0.148280    1.778637
 H    0.045850   -0.064554    3.563495
 H   -0.032083   -1.653251    2.718683
 H   -2.162784   -0.900759    3.598385
 H   -2.026665   -2.416103    1.753405
 H   -2.033711   -1.008431    0.678787
 H   -4.313298   -1.871303    2.550650
 H   -4.296759   -1.921863    0.779132
 H   -4.503168    0.362202    0.675424
 H   -4.873251    1.155125   -2.575519
 H   -6.257892    1.732509   -1.495046
 H   -6.511710   -0.546441   -0.599664
 H   -5.118425   -1.155101   -1.667308
 H   -2.649275   -0.648293   -2.554526
 H   -0.495725    1.369854   -0.138047
 H   -0.192158    2.882258   -2.763031
 H    1.055384    2.659119   -1.521210
 H   -0.023310    4.928702   -1.374244
 H   -0.247055    3.975080    0.106611
 H   -3.685687    3.390412   -0.729228
 H   -2.444542    3.081834    0.503477
 H   -2.861770    1.017023   -0.822333
 H   -2.567265    1.887923   -2.325110
 H    1.470502    0.473360   -1.308430
 H    6.146459   -1.825066   -2.365136
 H    5.814731   -2.586409   -0.757229
 H    6.772157    1.469312    1.110875
 H    4.732613    2.648591    1.970628
 H    2.054083   -3.779845    1.642326
 H   -1.998342   -4.314973   -0.351031
 H   -4.205104    0.597286    3.587018
 H   -4.204458    1.898809    2.401055
 H   -1.938334    1.228042    1.607730
 H   -1.903180    1.459783    3.372658
