72 
4qmx_ligand_xtb.xyz
 C   -8.652238    1.702415    0.962171
 N   -7.962888    0.555554    0.415612
 C   -6.461961   -1.092340    3.266023
 C   -6.251203   -1.938937    2.279565
 N   -6.000145   -1.030776   -0.943174
 C   -5.319116   -2.143497   -1.569822
 C   -3.960604   -2.355671   -0.912109
 O   -3.146609   -1.247864   -1.253710
 C   -1.876125   -1.211152   -0.791958
 C   -1.145181   -0.064246   -1.163643
 C    0.159421    0.110901   -0.779095
 O    0.826448    1.264858   -1.159640
 C    0.689423    2.391706   -0.285934
 C    1.397553    3.563394   -0.963756
 C    1.277478    4.804218   -0.078010
 O   -0.065430    5.130670    0.189044
 C   -0.741889    4.082020    0.837479
 C   -0.755904    2.801338   -0.002204
 C    0.816098   -0.896692   -0.034278
 C    2.200575   -0.934542    0.322807
 N    3.062103    0.008530   -0.132938
 C    4.442679   -0.091752   -0.019281
 C    5.131490   -1.280107   -0.196684
 O    4.642338   -2.501309   -0.555389
 C    5.743592   -3.381982   -0.525096
 O    6.922818   -2.640323   -0.286392
 C    6.518672   -1.355637   -0.058523
 C    7.286805   -0.251966    0.224137
 C    6.617847    0.959123    0.380760
 C    5.243771    1.027496    0.269516
Cl    4.457426    2.547956    0.510445
 N    2.683005   -1.879114    1.111884
 C    1.852756   -2.846643    1.489040
 N    0.608146   -3.001744    1.142228
 C    0.061204   -2.030796    0.374993
 C   -1.283078   -2.171604   -0.007177
 C   -7.251948   -0.685915   -1.582444
 C   -7.819361    0.614683   -1.023148
 H   -8.053277    2.594761    0.774556
 H   -9.651913    1.865064    0.526998
 H   -8.757412    1.574417    2.037662
 H   -8.445362   -0.298619    0.676832
 H   -6.449284   -1.393449    4.302288
 H   -6.657763   -0.050590    3.073203
 H   -6.054553   -2.984599    2.462547
 H   -6.266508   -1.616539    1.250198
 H   -5.383234   -0.223837   -0.934568
 H   -5.167921   -1.993780   -2.654226
 H   -5.927914   -3.042859   -1.431974
 H   -3.505803   -3.284928   -1.277451
 H   -4.083091   -2.411021    0.175757
 H   -1.638336    0.680584   -1.766713
 H    1.182798    2.160024    0.674433
 H    0.918432    3.747836   -1.926199
 H    2.447760    3.332631   -1.136057
 H    1.703961    5.676430   -0.576086
 H    1.818566    4.631470    0.865833
 H   -1.758651    4.441402    1.006257
 H   -0.269862    3.875163    1.811524
 H   -1.288690    2.016144    0.535759
 H   -1.266784    2.997602   -0.946176
 H    2.665863    0.793286   -0.638987
 H    5.823869   -3.902479   -1.490872
 H    5.604654   -4.122771    0.280104
 H    8.356249   -0.321065    0.316774
 H    7.176132    1.854089    0.603046
 H    2.277102   -3.596810    2.145470
 H   -1.799831   -3.050575    0.337708
 H   -7.954747   -1.506687   -1.394969
 H   -7.149484   -0.579655   -2.678829
 H   -7.136154    1.441233   -1.251160
 H   -8.777667    0.824579   -1.536810
