56 
4qmz_ligand_xtb.xyz
 C    2.385408   -0.498178   -3.086275
 C   -6.243714    0.527750    0.119466
 C   -5.333740    1.500200   -0.273438
 C   -4.461556   -1.116065    0.369301
 C    1.115637   -2.011375    0.056217
 C   -5.792122   -0.744557    0.430216
 C   -3.546309   -0.145107   -0.008703
 C   -2.120795   -0.174609   -0.217977
 C   -1.730812    1.185204   -0.579069
 C    3.592257   -1.474383   -0.386858
 C    1.065212   -2.859522    1.286264
 C   -1.293821   -1.258716   -0.033434
 C    1.662335   -0.954482   -1.869293
 C   -3.999964    1.153856   -0.328115
 C    0.008191   -1.362125   -0.540361
 C    2.220000   -1.688568   -0.751362
 N    0.390821   -0.717679   -1.691555
 N   -2.901409    1.915803   -0.658420
 N    3.815159   -1.285151    0.992395
 O   -0.628461    1.725939   -0.652774
 O    4.516932   -1.217665   -1.148578
 F   -6.706168   -1.672273    0.817379
 C    4.684661   -0.229240    1.396645
 C    3.975205    1.046766    1.922222
 N    2.912428    1.649947    1.060884
 C    1.585332    0.992507    1.229314
 C    3.309094    1.787466   -0.367710
 C    2.469657    2.835934   -1.075559
 C    0.904380    1.417446    2.517425
 H    3.447935   -0.378608   -2.886603
 H    2.279967   -1.250149   -3.868561
 H    1.950744    0.430502   -3.448942
 H   -7.297469    0.745991    0.184539
 H   -5.667223    2.495571   -0.525056
 H   -4.166017   -2.123819    0.612619
 H    0.941274   -2.265415    2.197772
 H    0.210169   -3.533236    1.230616
 H    1.965532   -3.465920    1.377143
 H   -1.675588   -2.090216    0.550160
 H   -2.928431    2.891795   -0.903346
 H    3.110205   -1.594976    1.639520
 H    5.299652   -0.006325    0.519077
 H    5.351865   -0.549939    2.206712
 H    4.750557    1.800276    2.081876
 H    3.515207    0.821215    2.886048
 H    2.773236    2.608710    1.401146
 H    1.721767   -0.084986    1.192425
 H    0.930209    1.259877    0.389502
 H    3.187959    0.825068   -0.861316
 H    4.364481    2.069050   -0.393141
 H    1.425587    2.539400   -1.143235
 H    2.539632    3.801475   -0.575344
 H    2.842455    2.952090   -2.088701
 H    1.440542    1.103795    3.412173
 H    0.769622    2.497422    2.548630
 H   -0.082335    0.963969    2.542069
