47 
4qn7_ligand_dft.xyz
 C   -2.741579   -1.819746   -0.464078
 O   -2.705966   -3.015744   -1.033450
 O   -3.390000   -0.897864   -0.931154
 C   -1.889016   -1.766058    0.789036
 C   -2.189238   -0.537517    1.660164
 C   -1.735413    0.805965    1.055865
 C   -0.559853    0.647738    0.066920
 N    0.269799    1.836544   -0.056279
 C   -0.144652    3.016934   -0.574987
 O   -1.339045    3.282837   -0.758002
 C    0.930713    4.008526   -0.927716
 C    0.340411   -0.497404    0.561791
 C   -0.375332   -1.850284    0.436365
 O    1.504765   -0.434713   -0.214105
 C    2.608731   -1.272954    0.170446
 C    3.628091   -1.143799   -0.955977
 C    3.154824   -0.910607    1.556310
 C    3.478975    0.569729    1.754679
 C    3.104033   -1.663828   -2.293255
 N   -2.875882    1.473489    0.348427
 H   -3.254929   -2.994101   -1.836130
 H   -2.156890   -2.661134    1.358690
 H   -3.255712   -0.494493    1.905933
 H   -1.667931   -0.675458    2.611885
 H   -1.425700    1.488476    1.851121
 H   -0.957062    0.375976   -0.922787
 H    1.256066    1.609287   -0.129751
 H    0.587893    5.011783   -0.669935
 H    1.088764    3.979457   -2.010861
 H    1.879848    3.802454   -0.427862
 H    0.578778   -0.297227    1.618832
 H   -0.233511   -2.212276   -0.586796
 H    0.104379   -2.576265    1.097140
 H    2.259672   -2.316142    0.194184
 H    3.924328   -0.092843   -1.054043
 H    4.526080   -1.700120   -0.664254
 H    4.056633   -1.512710    1.713943
 H    2.449261   -1.237601    2.331167
 H    4.184964    0.935922    1.003130
 H    3.932024    0.731994    2.736448
 H    2.577497    1.191832    1.706571
 H    2.216461   -1.108490   -2.609333
 H    2.836219   -2.724389   -2.222890
 H    3.863639   -1.564604   -3.073398
 H   -3.304234    0.775150   -0.287702
 H   -2.460705    2.286991   -0.197872
 H   -3.585455    1.811998    0.999836
