68 
4qn9_ligand_xtb.xyz
 C    4.984485    1.999769    0.040061
 C    4.295527    1.232930    1.168072
 C    4.248611   -0.274182    0.893418
 C    3.562137   -0.615411   -0.449768
 C    4.247370    0.222743   -1.548585
 C    4.266285    1.720256   -1.274711
 C    3.592156   -1.010501    2.063967
 C    2.096542   -0.730342    2.150738
 C    1.391073   -1.071361    0.838708
 C    2.044696   -0.328558   -0.341657
 C   -0.076152   -0.656227    0.889282
 C   -0.873936   -1.020213   -0.377973
 C   -0.216736   -0.264118   -1.544151
 C    1.277150   -0.620730   -1.637201
 C   -0.940370   -1.197231    2.023606
 C   -2.378409   -0.973059    1.522112
 C   -2.280229   -0.524498    0.044759
 C    3.830619   -2.086023   -0.803363
 C   -3.492274   -0.983420   -0.779815
 O   -0.404366    1.125583   -1.351867
 O    4.957756    3.396365    0.262402
 C   -0.900675   -2.520594   -0.674051
 C   -4.811773   -0.508311   -0.148021
 C   -4.972282    1.007340   -0.078893
 C   -6.320233    1.395394    0.464775
 O   -6.439080    2.729227    0.579584
 O   -7.209786    0.648134    0.769276
 C   -3.417258   -0.516485   -2.234895
 H    6.032158    1.660480   -0.043024
 H    4.835010    1.401192    2.105819
 H    3.292185    1.640947    1.287556
 H    5.289697   -0.615189    0.822071
 H    5.282939   -0.120048   -1.626549
 H    3.778507    0.032321   -2.514251
 H    3.257302    2.127961   -1.210829
 H    4.781946    2.243189   -2.081704
 H    4.076192   -0.708623    2.996061
 H    3.750774   -2.084130    1.950508
 H    1.667435   -1.324473    2.959625
 H    1.925869    0.320071    2.391941
 H    1.459288   -2.151232    0.687604
 H    1.923763    0.739664   -0.140060
 H   -0.099726    0.437410    0.952298
 H   -0.683912   -0.557900   -2.497626
 H    1.702076   -0.034778   -2.456261
 H    1.364461   -1.671651   -1.906380
 H   -0.755213   -0.675260    2.961352
 H   -0.738529   -2.256676    2.185870
 H   -2.884967   -0.217385    2.121068
 H   -2.956791   -1.894173    1.599463
 H   -2.237108    0.565916    0.001568
 H    3.291315   -2.769437   -0.156263
 H    4.892913   -2.303237   -0.709594
 H    3.541006   -2.289077   -1.831499
 H   -3.529629   -2.077621   -0.771516
 H    0.130423    1.594178   -2.001220
 H    5.338596    3.580340    1.127619
 H   -1.364127   -2.702829   -1.640899
 H   -1.471532   -3.048360    0.082650
 H    0.096875   -2.947181   -0.699777
 H   -4.912333   -0.913543    0.858760
 H   -5.641277   -0.911919   -0.732952
 H   -4.876447    1.460064   -1.067155
 H   -4.215515    1.463486    0.560496
 H   -7.314746    2.959586    0.927512
 H   -3.062448    0.508861   -2.293107
 H   -4.398522   -0.575772   -2.701611
 H   -2.742039   -1.142651   -2.811204
