24 
4qna_ligand_xtb.xyz
 N   -1.002281   -1.276331    0.077950
 C   -2.330185   -1.165672    0.077511
 N   -3.009562   -0.020812    0.007167
 C   -2.241284    1.062619   -0.096273
 N   -0.907231    1.062195   -0.112010
 C   -0.334079   -0.126426   -0.015398
 N   -3.044967   -2.308167    0.128992
 N   -2.850432    2.257057   -0.216978
 C    1.129159   -0.212028   -0.016189
 C    1.953336    0.919261    0.099115
 C    3.336415    0.753888    0.075128
 C    3.905494   -0.497546   -0.056592
 C    3.095582   -1.616692   -0.162439
 C    1.724426   -1.465765   -0.141137
 O    1.414019    2.148611    0.247650
 H   -2.559136   -3.164386    0.322738
 H   -4.037254   -2.244444    0.263514
 H   -3.843778    2.311041   -0.087706
 H   -2.277391    3.079619   -0.172877
 H    3.969192    1.628965    0.162129
 H    4.980943   -0.596563   -0.074434
 H    3.534023   -2.597800   -0.262466
 H    1.069091   -2.318150   -0.223051
 H    2.120286    2.805392    0.312761
