71 
4qoc_ligand_dft.xyz
 C    1.273050   -2.133123    1.870580
 C    1.898211   -2.666133    2.989620
Cl    0.924555   -3.150316    4.362019
 C    3.278785   -2.822822    3.048416
 C    4.038548   -2.434757    1.950765
 C    3.427675   -1.896453    0.822493
 C    2.043528   -1.738693    0.772695
 C    1.386702   -1.156850   -0.461710
 C    0.448551   -2.145379   -1.141603
 C   -0.115070   -1.568923   -2.443033
 C    0.984859   -1.287209   -3.516064
 C    1.971491   -2.415462   -3.667741
 O    1.552119   -3.365340   -4.524617
 O    3.025605   -2.500145   -3.079356
 C   -1.177610   -2.520245   -3.004330
 C   -0.773593   -0.206711   -2.188498
 O   -1.639782    0.207873   -2.952081
 N   -0.360582    0.537143   -1.117034
 C   -1.178726    1.699828   -0.728167
 C   -2.645500    1.316427   -0.479470
 C    0.627575    0.133335   -0.102332
 C    1.617875    1.252471    0.164412
 C    1.871548    1.671924    1.467918
 C    2.819158    2.657540    1.730735
 C    3.515029    3.224165    0.671136
Cl    4.705917    4.466700    0.984429
 C    3.279624    2.822211   -0.640881
 C    2.329222    1.838888   -0.882906
 S   -2.827311    0.030781    0.772684
 O   -2.130843    0.489676    1.968620
 O   -2.493425   -1.255185    0.171195
 N   -4.431170   -0.016917    1.124135
 C   -5.050473    1.040168    1.944719
 C   -6.449687    1.187394    1.336235
 C   -6.727850   -0.197871    0.741318
 C   -5.374164   -0.600316    0.156186
 C   -0.142230    4.014547   -1.414436
 C   -1.082437    2.873367   -1.700133
 C   -1.393953    4.267409   -1.216315
 H    0.191607   -2.027281    1.860785
 H    3.743479   -3.240955    3.934450
 H    5.117450   -2.552639    1.978987
 H    4.027763   -1.600123   -0.032939
 H    2.188106   -0.909179   -1.164680
 H    0.980421   -3.082930   -1.336814
 H   -0.391294   -2.380237   -0.478980
 H    1.568696   -0.404514   -3.243536
 H    0.489502   -1.086339   -4.469306
 H    2.238228   -4.052754   -4.525740
 H   -0.728138   -3.491172   -3.232310
 H   -1.623612   -2.112710   -3.913510
 H   -1.972150   -2.663535   -2.266235
 H   -0.774690    2.044299    0.227799
 H   -3.118255    0.957121   -1.394928
 H   -3.180974    2.192295   -0.100068
 H    0.071931   -0.049367    0.824034
 H    1.323682    1.221984    2.291361
 H    3.012849    2.981985    2.747121
 H    3.832993    3.274077   -1.457255
 H    2.124946    1.536179   -1.906336
 H   -4.475101    1.971046    1.911144
 H   -5.086600    0.713068    2.988342
 H   -6.433920    1.938354    0.538022
 H   -7.191841    1.496825    2.075904
 H   -7.015316   -0.900201    1.530914
 H   -7.516526   -0.191506   -0.014668
 H   -5.225640   -1.679009    0.089865
 H   -5.241474   -0.169849   -0.847103
 H    0.889657    4.327140   -1.403609
 H   -1.305970    2.598583   -2.730593
 H   -2.168813    4.961354   -0.930109
