19 
4qp7_ligand_xtb.xyz
 N    3.525248    0.654765    0.000964
 C    2.228784    0.740590   -0.007757
 C    1.668427   -0.695478   -0.000579
 C   -0.480419    0.166534   -0.001645
 C    2.805440   -1.498147    0.011560
 C    3.889973   -0.635304    0.010210
 N    0.393977   -0.812405    0.002804
 C    0.071734    1.494768   -0.012119
 N    1.349404    1.679000   -0.014546
 C   -1.885578   -0.021788   -0.001169
 C   -2.585606   -1.253298   -0.023327
 N   -3.867209   -0.974529   -0.006804
 N   -4.082222    0.299917    0.015920
 C   -2.932423    0.939205    0.024646
 H    2.805993   -2.570126    0.018184
 H    4.932450   -0.891207    0.017287
 H   -0.574404    2.352530   -0.025549
 H   -2.196457   -2.250444   -0.044612
 H   -2.883956    2.009524    0.047403
