28 
4qp8_ligand_dft.xyz
 C   -2.186553   -1.376990   -0.495352
 C   -4.218996   -2.301908   -0.036720
 C   -1.660824    1.024438   -0.050513
 C   -1.947784    2.351175   -0.083452
 C    2.357674    1.843579   -0.025144
 C    2.919708   -0.557671    0.050580
 C    2.708329   -2.008266    0.091982
 C   -4.714055   -1.100097    0.463202
 C   -3.877107    0.004946    0.478418
 C   -2.575403   -0.117625   -0.018450
 N   -2.979076   -2.447261   -0.506596
 N   -0.818647    3.220091   -0.086569
 C    0.203655    2.438828   -0.062785
 C   -0.194341    0.998058   -0.038886
 N    0.636349    0.020441   -0.000939
 C    1.980351    0.418505    0.008785
 N    1.526777    2.827842   -0.058508
 C    4.384540   -0.486893    0.069124
 N    4.899068   -1.663486    0.111770
 N    3.828425   -2.636371    0.127163
 H   -1.182709   -1.521610   -0.885304
 H   -4.845124   -3.190985   -0.056255
 H   -2.930261    2.805746   -0.121967
 H    3.418696    2.085403   -0.022104
 H    1.753351   -2.516934    0.096142
 H   -5.728516   -1.038760    0.842657
 H   -4.221026    0.950919    0.887355
 H    5.010151    0.396952    0.050509
