45 
4qps_ligand_dft.xyz
 C   -1.461876    2.184425    1.145825
 C   -0.094590    3.811105   -0.641459
 C   -0.073543    2.126070    1.086031
 C   -1.623869   -3.020297   -0.077840
 C   -0.534949   -3.853083    0.130909
 C    4.203211    1.866971   -0.180741
 C   -4.680463    0.309769   -0.624234
 C   -1.432322   -1.637407   -0.278757
 C    0.914515   -1.927127   -0.045274
 C   -3.845080   -0.954411   -0.468378
 C   -5.267073    0.731845    0.726673
 C   -2.174347    3.058116    0.326057
 C   -1.481554    3.877851   -0.561224
 C   -0.157585   -1.075657   -0.275594
 C    4.347538   -0.410537   -0.264637
 C    2.846491   -2.970086    0.272316
 C    0.618714    2.932139    0.177339
 C    0.747746   -3.305866    0.149964
 C    2.808031    1.774904   -0.003815
 C    2.969909   -0.495745   -0.052649
 N    4.945617    0.780749   -0.313836
 N    1.979301   -3.926649    0.348656
 N    2.214681    0.589988    0.072303
 N    2.029353    2.907030    0.092358
 N   -2.493198   -0.731933   -0.486076
 N    2.293392   -1.717363    0.030257
 O   -4.364560   -2.045101   -0.303841
 H   -1.986427    1.545439    1.850445
 H    0.439287    4.434561   -1.354198
 H    0.471753    1.446006    1.727915
 H   -2.630094   -3.414789   -0.087106
 H   -0.673588   -4.918370    0.281366
 H    4.707310    2.830053   -0.222995
 H   -5.489464    0.072541   -1.320808
 H   -4.095807    1.129059   -1.058875
 H   -5.853981   -0.085481    1.154263
 H   -4.474193    0.987999    1.438580
 H   -5.918016    1.604007    0.612597
 H   -3.257280    3.109098    0.390606
 H   -2.020993    4.567308   -1.203334
 H   -0.010683   -0.015617   -0.425665
 H    4.973683   -1.284621   -0.407218
 H    3.912835   -3.092067    0.405990
 H    2.468364    3.764143   -0.208525
 H   -2.203669    0.230926   -0.591023
