37 
4qr4_ligand_dft.xyz
 C    9.266019  -11.745399   -4.387971
 C    9.142257  -12.992108   -3.510619
 C    9.442408  -12.449747   -2.107644
 C    8.701464  -11.101456   -2.071311
 C    8.614917  -10.623147   -3.552615
 N    9.259447   -9.343395   -3.837070
 S    8.485309   -7.892589   -3.746319
 O    7.253305   -7.982500   -4.498598
 O    9.510335   -6.908038   -4.049500
 C    8.065068   -7.626167   -2.004487
 C    8.980304   -6.859385   -1.283873
 C    6.940607   -8.138393   -1.349924
Cl    5.704596   -9.075780   -2.137160
 C    6.768824   -7.896418    0.012854
 C    7.698762   -7.155228    0.721771
 C    8.814729   -6.612364    0.078339
 C    9.777577   -5.788424    0.822181
 C    9.520050   -4.979787    1.869064
 S   10.949677   -4.154119    2.438423
 C   11.964209   -4.961989    1.188303
 O   13.153597   -4.837172    1.039075
 N   11.118054   -5.761161    0.447742
 H    8.807300  -11.838566   -5.375224
 H   10.327529  -11.510900   -4.543141
 H    9.817155  -13.796457   -3.816703
 H    8.118188  -13.384317   -3.550928
 H   10.523483  -12.294260   -2.002096
 H    9.130902  -13.125085   -1.305943
 H    9.200257  -10.359976   -1.438286
 H    7.692254  -11.233080   -1.668656
 H    7.571661  -10.502475   -3.852910
 H   10.236166   -9.258819   -3.576921
 H    9.806827   -6.419726   -1.833008
 H    5.898914   -8.306171    0.513748
 H    7.562992   -7.006370    1.788263
 H    8.550200   -4.781819    2.301330
 H   11.521155   -6.366114   -0.252784
