68 
4qsh_ligand_dft.xyz
 P    2.474870   -1.805192   -2.228022
 O    1.412260   -2.397889   -3.058829
 O    3.970188   -2.301296   -2.502669
 O    2.594898   -0.229442   -2.373132
 C    3.719600    0.540593   -1.914292
 C    3.249469    1.706505   -1.070312
 O    2.385403    2.552591   -1.819914
 C    2.429308    1.325034    0.152677
 O    3.291938    0.846547    1.179059
 C    1.649694    2.617940    0.432638
 O    2.462360    3.598828    1.005949
 C    1.324056    3.011631   -1.014214
 N    0.083653    2.372286   -1.452443
 C   -0.097967    1.404133   -2.420422
 N   -1.343640    1.034363   -2.563484
 C   -2.027165    1.808066   -1.648060
 C   -3.388889    1.905163   -1.311558
 N   -4.335698    1.188532   -1.960012
 N   -3.750925    2.751222   -0.335260
 C   -2.795744    3.472366    0.273523
 N   -1.491406    3.494928    0.031392
 C   -1.166278    2.638607   -0.944064
 P    2.714090    0.654629    2.664311
 O    2.129390    1.862379    3.274075
 O    4.005695    0.055891    3.392737
 O    1.692926   -0.565933    2.566874
 C    2.147212   -1.924027    2.404213
 C    1.282833   -2.661301    1.406005
 O   -0.040801   -2.796693    1.881766
 C    1.125386   -1.969793    0.061261
 O    2.346194   -2.106803   -0.657486
 C   -0.137975   -2.632578   -0.501688
 O    0.122665   -3.903242   -1.024151
 C   -0.956436   -2.786595    0.800463
 N   -1.898018   -1.707997    1.012689
 C   -1.657228   -0.436492    1.495191
 N   -2.717444    0.322289    1.526816
 C   -3.725469   -0.488989    1.039576
 C   -5.101993   -0.289675    0.811599
 N   -5.717182    0.895474    1.041437
 N   -5.833331   -1.315485    0.349019
 C   -5.220804   -2.482643    0.107923
 N   -3.934872   -2.790909    0.243674
 C   -3.239637   -1.752893    0.719438
 H    3.990414   -3.215868   -2.815603
 H    4.400527   -0.075404   -1.319436
 H    4.242485    0.897453   -2.803611
 H    4.134130    2.269089   -0.743834
 H    1.724613    0.543211   -0.126764
 H    0.732725    2.456966    1.007231
 H    2.449431    3.422651    1.961427
 H    1.220922    4.094204   -1.111805
 H    0.738684    1.015208   -2.979496
 H   -4.030623    0.414647   -2.530347
 H   -5.247203    1.120089   -1.533880
 H   -3.145240    4.126444    1.067634
 H    4.284011    0.634970    4.115577
 H    3.180598   -1.945157    2.045919
 H    2.095011   -2.405927    3.382489
 H    1.737498   -3.648720    1.239425
 H    0.909931   -0.912751    0.226542
 H   -0.663771   -1.990908   -1.216953
 H    0.440234   -3.751927   -1.930607
 H   -1.531438   -3.714969    0.760528
 H   -0.677499   -0.151949    1.856033
 H   -5.156751    1.740628    0.965025
 H   -6.681969    0.950990    0.749431
 H   -5.865848   -3.277264   -0.259696
