36 
4qsk_ligand_xtb.xyz
 P   -0.378676    2.369962   -0.951065
 O   -1.481988    1.588647   -1.486422
 O   -0.650669    3.106849    0.432001
 O    0.919559    1.445044   -0.771048
 C    2.126481    1.887336   -0.173060
 C    2.905491    0.674961    0.363632
 O    2.255376    0.084456    1.478816
 C    3.050812   -0.458869   -0.666055
 O    4.204946   -1.200611   -0.401877
 C    1.769811   -1.275281   -0.425943
 O    1.964214   -2.634316   -0.673252
 C    1.439978   -0.970550    1.062382
 N    0.044695   -0.616400    1.181473
 C   -0.485072    0.490201    1.767615
 N   -1.748501    0.672404    1.511258
 C   -2.100540   -0.386427    0.708105
 C   -3.275422   -0.763666    0.033875
 N   -4.429995   -0.079821    0.125238
 N   -3.250411   -1.881106   -0.697636
 C   -2.130879   -2.572008   -0.794945
 N   -0.953150   -2.309263   -0.252831
 C   -0.979432   -1.200342    0.491966
 H   -1.328628    2.614357    0.919141
 H    1.905839    2.568818    0.654152
 H    2.735754    2.408199   -0.918088
 H    3.887222    1.007845    0.712043
 H    3.079344   -0.063781   -1.690699
 H    3.984463   -2.131931   -0.549856
 H    0.971913   -0.872013   -1.058342
 H    1.082861   -3.042822   -0.670756
 H    1.646990   -1.849233    1.692774
 H    0.111707    1.127947    2.390732
 H   -5.161455   -0.325383   -0.520131
 H   -4.395251    0.854446    0.493750
 H   -2.179747   -3.462376   -1.407799
 H    0.081799    3.443128   -1.684634
