36 
4qsk_ligand_dft.xyz
 P   -0.269758    2.506337   -0.937047
 O   -1.311551    1.844546   -1.738285
 O   -0.685789    3.051611    0.509607
 O    0.984140    1.513561   -0.708560
 C    2.177226    1.869508   -0.014573
 C    2.903344    0.601982    0.423676
 O    2.207668   -0.040451    1.498344
 C    3.047847   -0.478377   -0.651176
 O    4.144754   -1.290170   -0.317343
 C    1.736970   -1.254720   -0.503722
 O    1.899384   -2.589542   -0.889693
 C    1.427805   -1.091080    1.007544
 N    0.013998   -0.756336    1.202439
 C   -0.474429    0.335027    1.858260
 N   -1.741440    0.578846    1.616023
 C   -2.111655   -0.435237    0.748871
 C   -3.302795   -0.728312    0.058557
 N   -4.429626   -0.000269    0.211010
 N   -3.326548   -1.787142   -0.763748
 C   -2.212512   -2.506580   -0.916955
 N   -1.021784   -2.327211   -0.345391
 C   -1.035610   -1.270340    0.480785
 H   -1.281036    2.410568    0.961348
 H    1.939889    2.467996    0.872111
 H    2.824800    2.454963   -0.679328
 H    3.887448    0.884523    0.808242
 H    3.153461   -0.048110   -1.656589
 H    3.923078   -2.182192   -0.624439
 H    0.960209   -0.760391   -1.090399
 H    0.998455   -2.960619   -0.903082
 H    1.660766   -2.008339    1.555186
 H    0.169179    0.942889    2.476117
 H   -5.164888   -0.151230   -0.462701
 H   -4.361176    0.910011    0.638054
 H   -2.288548   -3.344614   -1.604844
 H    0.316559    3.666590   -1.456457
