15 
4qsu_ligand_xtb.xyz
 N   -1.111737   -1.320622    0.158588
 C   -1.667086   -0.050233    0.027996
 O   -2.846455    0.147084   -0.034623
 N   -0.756634    1.012257    0.042535
 C    0.610210    0.932016   -0.058321
 O    1.319709    1.894066    0.074890
 C    1.120293   -0.463201   -0.403454
 C    2.509896   -0.716165    0.182526
 C    0.127006   -1.502726   -0.006078
 H   -1.152219    1.937616    0.175246
 H    1.196333   -0.483995   -1.501648
 H    2.454501   -0.784644    1.266434
 H    2.928605   -1.639229   -0.209249
 H    3.165985    0.111150   -0.073795
 H    0.497443   -2.509692    0.157002
