32 
4qsw_ligand_xtb.xyz
 O    0.548095   -2.512996    0.291519
 C    1.139643   -1.493223   -0.004653
 N    2.511747   -1.401012    0.187677
 C    3.289840   -0.261405    0.180722
 O    4.424525   -0.272121    0.588310
 C    2.589848    0.927331   -0.368834
 C    3.063166    2.148172   -0.152028
 C    1.370038    0.610681   -1.179992
 N    0.548313   -0.375956   -0.494361
 C   -0.885781   -0.432472   -0.810759
 O   -1.336830    0.829956   -1.191242
 C   -2.351870    1.313931   -0.307803
 C   -1.771893    2.360750    0.655799
 O   -0.781413    1.839683    1.504280
 C   -2.917733    0.079184    0.400993
 O   -3.989759   -0.441910   -0.328307
 C   -1.717033   -0.884183    0.419645
 O   -2.160367   -2.201601    0.334710
 H    2.938651   -2.235256    0.576360
 H    2.575909    3.029594   -0.532354
 H    3.970348    2.282419    0.412198
 H    1.681779    0.213954   -2.159341
 H    0.761174    1.497999   -1.359160
 H   -1.041063   -1.137157   -1.645875
 H   -3.122659    1.775890   -0.931028
 H   -1.373938    3.195599    0.062621
 H   -2.565014    2.735225    1.304645
 H   -0.058509    1.503951    0.960668
 H   -3.235698    0.322352    1.424064
 H   -3.937738   -1.406505   -0.254630
 H   -1.129460   -0.715322    1.332351
 H   -1.367560   -2.764656    0.363566
