30 
4qsx_ligand_dft.xyz
 O    1.118454   -2.750811   -0.048214
 C    1.237581   -1.544161   -0.157943
 N    2.491921   -0.941827    0.034761
 C    2.756702    0.408849    0.234821
 O    3.805657    0.788742    0.710120
 C    1.636240    1.284332   -0.207278
 C    1.588005    2.563702    0.156170
 C    0.614097    0.601068   -1.067489
 N    0.222501   -0.667360   -0.447714
 C   -1.112140   -1.227562   -0.760155
 O   -2.026823   -0.179778   -0.950704
 C   -1.699691   -2.025957    0.402605
 C   -2.264183   -0.922610    1.302780
 C   -2.632031    0.187055    0.309711
 C   -2.128793    1.567531    0.708813
 O   -2.300536    2.507718   -0.330996
 H    3.214098   -1.587305    0.328838
 H    0.758012    3.201518   -0.136304
 H    2.382842    2.990553    0.759891
 H    1.024706    0.422625   -2.073953
 H   -0.265516    1.227541   -1.175640
 H   -1.063562   -1.791830   -1.697181
 H   -0.973953   -2.673275    0.888950
 H   -2.505980   -2.647649    0.001118
 H   -3.126547   -1.255974    1.883890
 H   -1.499420   -0.572528    2.004530
 H   -3.708582    0.235315    0.114178
 H   -2.687487    1.927113    1.579609
 H   -1.069240    1.492745    0.998759
 H   -2.229048    2.015007   -1.159876
