114 
4qwf_ligand_xtb.xyz
 C    1.687278   -2.115016    2.380868
 O    0.865942   -2.244249    3.264107
 C    2.221513   -3.331711    1.601734
 N    1.336778   -3.673846    0.464025
 O   -0.031004   -6.161975    0.927719
 C    1.742032   -4.941943   -0.191917
 C   -0.111418   -3.751101    0.789612
 C    1.344102   -6.159530    0.650016
 C   -0.419307   -4.995169    1.617065
 N    2.214336   -0.942490    2.002781
 C    1.539646    0.273217    2.411791
 C    0.088088    0.146668    1.922482
 O   -0.198282   -0.652766    1.041995
 C    2.188900    1.500959    1.776392
 C    3.640350    1.694907    2.226104
 C    4.294163    2.830449    1.483079
 C    4.456712    2.774672    0.103457
 C    4.745382    3.955739    2.158417
 C    5.056988    3.813226   -0.584037
 C    5.350463    4.996520    1.474758
 C    5.508470    4.928002    0.101889
 N   -0.802294    0.956916    2.492278
 C   -2.190376    0.955374    2.054318
 C   -2.155482    0.825006    0.525424
 O   -1.577165    1.660030   -0.151504
 C   -2.906487    2.251667    2.440075
 C   -3.491228    2.283657    3.860236
 C   -2.437039    2.073032    4.945251
 C   -4.629684    1.277790    4.021929
 N   -2.813907   -0.234041    0.034794
 C   -2.849587   -0.642066   -1.363111
 C   -1.452064   -1.015708   -1.872120
 O   -1.179518   -2.188449   -2.138159
 C   -3.521449    0.428686   -2.244469
 C   -4.890463    0.733687   -1.699848
 C   -5.091748    1.851873   -0.901717
 C   -5.956455   -0.123145   -1.942366
 C   -6.335929    2.108394   -0.352174
 C   -7.201619    0.134308   -1.397184
 C   -7.392696    1.248361   -0.596955
 N   -0.599913   -0.010192   -2.024174
 C    0.683686   -0.090578   -2.707139
 C    1.083685    1.334145   -3.096225
 C    0.050381    2.062480   -3.969836
 C   -0.189185    1.339280   -5.292747
 C    0.538919    3.486125   -4.231362
 C    1.728498   -0.808240   -1.825926
 C    3.172976   -0.733113   -2.364745
 C    3.284683   -1.318673   -3.770148
 C    4.114285   -1.507493   -1.429494
 O    4.165603   -0.980716   -0.117001
 O    1.386737   -2.185147   -1.699703
 H    2.269016   -4.168899    2.299891
 H    3.219496   -3.121478    1.213734
 H    1.417686   -2.913965   -0.292176
 H    1.227286   -4.990197   -1.153717
 H    2.818982   -4.936095   -0.363034
 H   -0.410271   -2.845573    1.315664
 H   -0.651728   -3.799067   -0.159297
 H    1.544619   -7.072270    0.086514
 H    1.924195   -6.195382    1.584135
 H    0.069923   -4.937199    2.598715
 H   -1.495437   -5.078923    1.770849
 H    2.843725   -0.898432    1.205926
 H    1.554157    0.337255    3.505654
 H    1.610011    2.388697    2.036356
 H    2.144705    1.394152    0.690305
 H    4.202156    0.772933    2.056535
 H    3.660501    1.899143    3.297583
 H    4.102402    1.912230   -0.446780
 H    4.627691    4.016952    3.230557
 H    5.175151    3.753023   -1.655929
 H    5.698982    5.862349    2.016572
 H    5.980511    5.737719   -0.432405
 H   -0.536173    1.599784    3.220655
 H   -2.701756    0.088610    2.488747
 H   -2.210504    3.081497    2.300435
 H   -3.728712    2.399079    1.736476
 H   -3.912254    3.286525    3.989740
 H   -1.630387    2.798411    4.851668
 H   -2.888900    2.207931    5.924776
 H   -2.027173    1.065930    4.906925
 H   -5.140285    1.444132    4.966550
 H   -5.355609    1.383169    3.218887
 H   -4.258942    0.255204    4.023611
 H   -3.216068   -0.881216    0.692380
 H   -3.447660   -1.557294   -1.404714
 H   -3.587856    0.043262   -3.263227
 H   -2.920407    1.336839   -2.248086
 H   -4.270231    2.531046   -0.721801
 H   -5.812466   -0.990916   -2.570319
 H   -6.482876    2.984363    0.262557
 H   -8.025144   -0.533877   -1.598652
 H   -8.364055    1.449221   -0.171712
 H   -0.837903    0.873884   -1.570084
 H    0.541819   -0.705674   -3.603970
 H    2.024073    1.311386   -3.645879
 H    1.237901    1.911108   -2.180435
 H   -0.899404    2.123947   -3.430877
 H   -0.653784    0.368323   -5.139933
 H    0.747156    1.199290   -5.828822
 H   -0.852211    1.927995   -5.921066
 H   -0.195345    4.037154   -4.812488
 H    1.473302    3.473560   -4.788178
 H    0.701221    4.017065   -3.296290
 H    1.691026   -0.352054   -0.824400
 H    3.487052    0.314960   -2.370556
 H    2.887449   -2.330138   -3.783181
 H    4.325578   -1.352889   -4.081128
 H    2.736775   -0.720369   -4.491063
 H    5.119516   -1.529735   -1.862683
 H    3.761271   -2.535955   -1.332903
 H    4.655671   -0.148653   -0.137673
 H    0.435122   -2.288574   -1.984741
