114 
4qwi_ligand_xtb.xyz
 C    1.736163   -2.096863    2.367469
 O    0.929768   -2.233049    3.263145
 C    2.276462   -3.309632    1.586032
 N    1.381680   -3.665549    0.460872
 O    0.079043   -6.187571    0.926528
 C    1.805135   -4.919101   -0.211470
 C   -0.058107   -3.777472    0.812179
 C    1.449023   -6.151912    0.626575
 C   -0.323787   -5.036022    1.632819
 N    2.241651   -0.919537    1.975457
 C    1.561400    0.290509    2.391639
 C    0.104357    0.151429    1.921028
 O   -0.189872   -0.659349    1.053680
 C    2.197519    1.523118    1.752177
 C    3.653467    1.719538    2.186471
 C    4.298265    2.863664    1.448498
 C    4.432601    2.830988    0.065059
 C    4.773389    3.972845    2.134193
 C    5.027474    3.877075   -0.615884
 C    5.374101    5.020392    1.457096
 C    5.503313    4.975233    0.080248
 N   -0.783360    0.962140    2.495243
 C   -2.177369    0.944217    2.076726
 C   -2.161805    0.816752    0.547518
 O   -1.593807    1.654548   -0.134929
 C   -2.906260    2.229537    2.475014
 C   -3.479993    2.245368    3.899932
 C   -2.415097    2.030446    4.973439
 C   -4.611352    1.231446    4.060867
 N   -2.823372   -0.243121    0.063155
 C   -2.871630   -0.651042   -1.334409
 C   -1.477702   -1.022992   -1.854156
 O   -1.203620   -2.194908   -2.121221
 C   -3.549684    0.419066   -2.211693
 C   -4.921526    0.714839   -1.669286
 C   -5.130432    1.827155   -0.864949
 C   -5.983633   -0.143498   -1.923247
 C   -6.378463    2.076604   -0.320899
 C   -7.232552    0.106826   -1.383439
 C   -7.431367    1.215217   -0.577291
 N   -0.629678   -0.014913   -2.013618
 C    0.645746   -0.091350   -2.711361
 C    1.038131    1.333995   -3.105534
 C   -0.012323    2.066530   -3.954502
 C   -0.294303    1.337171   -5.265590
 C    0.482405    3.484082   -4.236462
 C    1.703956   -0.803306   -1.842335
 C    3.139409   -0.726986   -2.404491
 C    3.230144   -1.324289   -3.806435
 C    4.098672   -1.487407   -1.476581
 O    4.166063   -0.946209   -0.170705
 O    1.367114   -2.180003   -1.703972
 H    2.343359   -4.144103    2.285848
 H    3.266793   -3.087541    1.185254
 H    1.432253   -2.900835   -0.292864
 H    1.276737   -4.971314   -1.165646
 H    2.878845   -4.887108   -0.399371
 H   -0.366055   -2.883991    1.353472
 H   -0.615131   -3.828057   -0.126778
 H    1.660775   -7.055431    0.052404
 H    2.045378   -6.181481    1.550610
 H    0.180422   -4.976279    2.606792
 H   -1.394997   -5.145504    1.803785
 H    2.859382   -0.871380    1.169855
 H    1.587172    0.353283    3.485467
 H    1.618935    2.407917    2.022468
 H    2.140653    1.420016    0.666378
 H    4.216944    0.801234    2.002601
 H    3.684703    1.913763    3.259583
 H    4.060979    1.981110   -0.493339
 H    4.678422    4.015778    3.209486
 H    5.122412    3.835598   -1.690967
 H    5.741648    5.873128    2.007067
 H    5.972251    5.790027   -0.449088
 H   -0.510710    1.617630    3.209773
 H   -2.670433    0.069463    2.516230
 H   -2.221730    3.068781    2.335111
 H   -3.735761    2.371107    1.778718
 H   -3.905983    3.244339    4.042616
 H   -1.616061    2.764471    4.882605
 H   -2.859906    2.148073    5.958383
 H   -1.995597    1.028180    4.917865
 H   -5.109160    1.379389    5.015321
 H   -5.349160    1.347033    3.270148
 H   -4.236230    0.210682    4.039679
 H   -3.213518   -0.893642    0.724706
 H   -3.469829   -1.566395   -1.371209
 H   -3.612775    0.036956   -3.231961
 H   -2.953842    1.330622   -2.211647
 H   -4.311995    2.507707   -0.676311
 H   -5.833655   -1.006611   -2.556206
 H   -6.531501    2.948324    0.298351
 H   -8.052998   -0.562318   -1.594119
 H   -8.405751    1.410665   -0.156487
 H   -0.866035    0.868850   -1.558354
 H    0.495344   -0.707603   -3.605987
 H    1.965962    1.310557   -3.676229
 H    1.213598    1.908734   -2.192187
 H   -0.946306    2.140410   -3.390170
 H   -0.773672    0.376583   -5.093617
 H    0.627331    1.174572   -5.820453
 H   -0.959533    1.933004   -5.884778
 H   -0.262199    4.039762   -4.799652
 H    1.401063    3.459887   -4.818457
 H    0.675345    4.017364   -3.308546
 H    1.680914   -0.342352   -0.842522
 H    3.449019    0.322212   -2.424514
 H    2.831314   -2.335221   -3.805485
 H    4.266214   -1.362407   -4.132562
 H    2.672429   -0.730907   -4.523942
 H    5.097525   -1.508818   -1.924414
 H    3.752696   -2.516593   -1.364036
 H    4.642748   -0.107059   -0.209239
 H    0.412489   -2.288125   -1.977187
