114 
4qws_ligand_dft.xyz
 C    2.183779   -2.826574    1.573287
 O    1.445244   -3.622502    2.128511
 C    3.108713   -3.272113    0.442132
 N    2.425122   -3.114510   -0.884741
 O    2.142055   -5.607315   -2.293368
 C    3.322896   -3.516355   -2.021897
 C    1.105867   -3.834509   -1.017457
 C    3.414824   -5.032866   -2.144895
 C    1.320636   -5.327837   -1.180935
 N    2.215946   -1.500032    1.844026
 C    1.090033   -0.894327    2.522761
 C   -0.188337   -1.248401    1.746599
 O   -0.144842   -1.554694    0.558420
 C    1.213247    0.636307    2.509584
 C    2.485563    1.199628    3.159542
 C    2.716557    2.625140    2.715389
 C    3.714685    2.926128    1.788481
 C    1.893365    3.660599    3.164657
 C    3.890095    4.221851    1.311252
 C    2.064127    4.958918    2.694356
 C    3.060745    5.243008    1.763025
 N   -1.355016   -1.105699    2.405374
 C   -2.604917   -1.107679    1.660316
 C   -2.428734   -0.142848    0.479992
 O   -2.075233    1.018782    0.679865
 C   -3.794128   -0.649159    2.511600
 C   -4.322656   -1.643085    3.562193
 C   -3.333728   -1.933189    4.696554
 C   -4.818192   -2.945142    2.926815
 N   -2.693519   -0.661773   -0.734013
 C   -2.439109    0.008192   -2.004492
 C   -0.930081    0.173571   -2.250921
 O   -0.368528   -0.469421   -3.147506
 C   -3.225426    1.325985   -2.162576
 C   -4.698306    1.117259   -1.908787
 C   -5.246119    1.403659   -0.656384
 C   -5.524266    0.585114   -2.899886
 C   -6.591935    1.159161   -0.399220
 C   -6.870501    0.339988   -2.646171
 C   -7.407261    0.624261   -1.393411
 N   -0.286613    1.058753   -1.473694
 C    1.047653    1.573895   -1.764493
 C    1.188812    2.958426   -1.117234
 C    0.055023    3.946877   -1.436473
 C   -0.163865    4.103098   -2.942654
 C    0.354511    5.295449   -0.779287
 C    2.148984    0.599687   -1.312428
 C    3.575008    1.133087   -1.522992
 C    3.847798    1.534469   -2.975489
 C    4.601678    0.083144   -1.102465
 O    4.420000   -0.388788    0.238478
 O    2.031959   -0.656636   -1.985493
 H    3.354641   -4.321875    0.594046
 H    4.018377   -2.669192    0.397727
 H    2.213587   -2.097931   -1.052484
 H    2.881861   -3.084734   -2.922729
 H    4.302310   -3.062892   -1.855037
 H    0.498428   -3.589238   -0.148982
 H    0.634681   -3.409102   -1.907374
 H    3.986748   -5.278316   -3.042101
 H    3.940992   -5.469015   -1.281295
 H    1.739817   -5.765377   -0.262268
 H    0.357461   -5.805815   -1.367633
 H    2.813834   -0.914656    1.265050
 H    1.028988   -1.279236    3.546987
 H    0.329501    1.066559    2.991638
 H    1.159014    0.967719    1.466817
 H    3.352560    0.588563    2.884430
 H    2.399936    1.136659    4.250519
 H    4.363076    2.130137    1.431349
 H    1.115149    3.450692    3.894580
 H    4.676351    4.434537    0.592806
 H    1.418500    5.752699    3.057483
 H    3.191225    6.255828    1.395572
 H   -1.359174   -0.762523    3.354210
 H   -2.782053   -2.121882    1.285211
 H   -3.526827    0.305435    2.982645
 H   -4.610140   -0.424407    1.812901
 H   -5.192294   -1.144493    4.009504
 H   -2.950239   -1.007407    5.144832
 H   -3.824027   -2.499081    5.494705
 H   -2.485454   -2.533897    4.348523
 H   -5.330336   -3.564697    3.669404
 H   -5.522367   -2.749732    2.110379
 H   -3.988084   -3.541608    2.528734
 H   -2.805788   -1.662482   -0.779705
 H   -2.775368   -0.685590   -2.777567
 H   -3.052299    1.685816   -3.183289
 H   -2.831424    2.080790   -1.479382
 H   -4.609800    1.823661    0.118993
 H   -5.112204    0.368976   -3.883474
 H   -7.007798    1.395108    0.576085
 H   -7.503105   -0.066016   -3.429669
 H   -8.458627    0.438930   -1.196617
 H   -0.794403    1.414483   -0.665986
 H    1.113221    1.670064   -2.854910
 H    2.131130    3.405229   -1.454401
 H    1.280297    2.847765   -0.027002
 H   -0.876904    3.569471   -0.994870
 H   -0.500447    3.170553   -3.408930
 H    0.761701    4.418065   -3.441356
 H   -0.924256    4.863874   -3.145101
 H   -0.462382    6.003788   -0.950329
 H    1.271447    5.735336   -1.191061
 H    0.493347    5.185575    0.300990
 H    1.998459    0.414740   -0.244062
 H    3.701341    2.004098   -0.869286
 H    3.589923    0.715995   -3.655244
 H    4.904050    1.781011   -3.125351
 H    3.267526    2.413838   -3.269423
 H    5.615962    0.479809   -1.221552
 H    4.511391   -0.789897   -1.755039
 H    5.002853    0.103263    0.827215
 H    1.217223   -0.647456   -2.547670
