35 
4qxr_ligand_dft.xyz
 O    0.461714    3.619553    0.283699
 C    0.284609    2.423238    0.112713
 C    1.389145    1.447717    0.051147
 C    2.717725    1.848509    0.223579
 C    3.732191    0.915399    0.176879
 C    3.463060   -0.448039   -0.037921
 C    4.609339   -1.429129   -0.067791
 C    2.144285   -0.874914   -0.214495
 C    1.749718   -2.312498   -0.436477
 C    1.133216    0.094443   -0.169467
 O   -0.132888   -0.376426   -0.360488
 C   -1.196935    0.460817   -0.262235
 C   -1.060097    1.829448   -0.040219
 C   -2.214212    2.619169    0.039904
 C   -3.462842    2.045152   -0.097883
 C   -3.573940    0.666647   -0.319595
 C   -2.453718   -0.142984   -0.407845
 C   -2.525570   -1.622562   -0.658511
 C   -1.982492   -2.450866    0.507521
 O   -1.650946   -3.724887    0.193681
 O   -1.869419   -2.055842    1.632854
 H    2.915132    2.901430    0.395234
 H    4.761938    1.232951    0.313047
 H    5.563069   -0.916402    0.081052
 H    4.510769   -2.184696    0.719490
 H    4.661312   -1.958592   -1.025640
 H    1.225101   -2.428993   -1.391869
 H    2.615992   -2.975399   -0.446606
 H    1.067188   -2.656092    0.348134
 H   -2.087334    3.682595    0.214146
 H   -4.357922    2.654603   -0.032140
 H   -4.558136    0.216920   -0.421912
 H   -1.967621   -1.874615   -1.569988
 H   -3.565939   -1.927521   -0.825184
 H   -1.772131   -3.882651   -0.751572
