32 
4qy3_ligand_xtb.xyz
 C    1.259208   -0.340866   -0.758429
 C    1.765295    0.437145    0.286599
 C    2.644281    1.487833   -0.026100
 C    3.051448    1.729944   -1.316770
 C    1.686861   -0.085890   -2.057896
 C   -1.181904   -1.497440    0.571001
 C   -3.306531   -0.628302   -0.411383
 C   -4.169873    0.407703   -0.714491
 C   -3.852460    1.706254   -0.352646
 C   -2.668204    1.961014    0.317377
 C   -1.807017    0.923681    0.624576
 O    1.206465   -0.823975    2.257277
 C    1.503866    0.222502    1.723772
 O    1.671108    1.333077    2.456723
 C    2.578952    0.922964   -2.344898
 S    0.104576   -1.726006   -0.735743
 O    1.096187   -2.750646    0.249471
 C   -2.111846   -0.383461    0.258727
 H    3.015864    2.100387    0.780325
 H    3.737515    2.536376   -1.525127
 H    1.281109   -0.703668   -2.844421
 H   -0.664504   -1.370911    1.516109
 H   -1.689015   -2.461825    0.570929
 H   -3.552269   -1.639190   -0.702023
 H   -5.093208    0.202311   -1.235950
 H   -4.525600    2.516333   -0.591105
 H   -2.414545    2.971262    0.603947
 H   -0.886446    1.133943    1.149628
 H    1.533664    1.130559    3.395864
 H    2.901529    1.088015   -3.361412
 H    1.301932   -2.418543    1.128358
 H   -0.761779   -0.715080   -1.617631
