87 
4qz2_ligand_xtb.xyz
 C   -3.635886   -0.858259   -0.299130
 O   -3.406732   -1.780811   -1.058573
 C   -3.697463    0.587035   -0.823755
 N   -2.498304    0.858584   -1.647993
 O   -3.141493    2.355657   -4.010503
 C   -2.196740    2.300659   -1.791664
 C   -2.543493    0.233037   -2.994601
 C   -3.183684    2.971040   -2.748214
 C   -3.485519    0.993670   -3.928591
 N   -3.845513   -0.991815    1.017306
 C   -3.644334   -2.240006    1.767923
 C   -2.120479   -2.441434    1.800304
 O   -1.465336   -2.101276    2.776479
 C   -4.442721   -3.414603    1.218817
 N   -1.560245   -2.893147    0.673658
 C   -0.144150   -2.654050    0.447346
 C    0.377916   -3.420922   -0.768513
 C    1.840515   -3.107953   -0.947782
 C    2.807294   -3.813745   -0.248437
 C    4.150607   -3.497630   -0.357987
 C    4.551946   -2.444426   -1.174774
 O    5.830887   -2.034961   -1.351091
 C    6.869427   -2.754553   -0.725992
 C    3.580561   -1.729126   -1.880246
 C    2.248289   -2.061844   -1.768986
 C   -0.007233   -1.142461    0.202201
 O   -0.506887   -0.640958   -0.802760
 N    0.613588   -0.464286    1.164120
 C    0.965299    0.950678    1.137565
 C   -0.249814    1.882892    1.423599
 O   -1.465890    1.315269    0.973237
 C   -0.390863    2.301104    2.902449
 C    0.797656    3.115699    3.401732
 C   -0.656244    1.096912    3.816813
 O   -1.871199    0.458839    3.436835
 C    1.651183    1.310718   -0.193753
 C    2.314462    2.656448   -0.098481
 C    3.481700    2.804189    0.641560
 C    4.084575    4.041952    0.769511
 C    3.527307    5.152426    0.157364
 C    2.371387    5.015053   -0.590395
 C    1.769867    3.774250   -0.716118
 H   -3.711605    1.295506    0.003500
 H   -4.602155    0.703697   -1.424628
 H   -1.676571    0.410872   -1.141281
 H   -1.193135    2.381229   -2.214918
 H   -2.207546    2.768208   -0.808042
 H   -1.530071    0.260399   -3.398275
 H   -2.853752   -0.806322   -2.886267
 H   -4.204093    2.945075   -2.338187
 H   -2.898739    4.012197   -2.906060
 H   -4.532179    0.885421   -3.607702
 H   -3.395180    0.594913   -4.939749
 H   -3.980123   -0.166286    1.580443
 H   -3.962127   -2.036350    2.794314
 H   -4.212620   -4.304362    1.798139
 H   -4.222357   -3.605901    0.173940
 H   -5.505752   -3.206623    1.311639
 H   -2.137373   -3.015729   -0.151048
 H    0.399053   -2.950850    1.349469
 H   -0.185993   -3.106880   -1.648660
 H    0.226869   -4.488969   -0.609263
 H    2.513290   -4.635643    0.388454
 H    4.872196   -4.079340    0.192575
 H    6.881823   -3.799995   -1.047616
 H    6.790874   -2.707725    0.364722
 H    7.791889   -2.270321   -1.040703
 H    3.904114   -0.922212   -2.518518
 H    1.512384   -1.506341   -2.331214
 H    0.924070   -0.991819    1.965913
 H    1.697505    1.097658    1.933493
 H   -0.093297    2.795472    0.835153
 H   -1.809386    0.839140    1.760437
 H   -1.285064    2.934433    2.944197
 H    0.556238    3.574173    4.356557
 H    1.679510    2.496518    3.543815
 H    1.043973    3.902517    2.693412
 H   -0.744760    1.444937    4.853021
 H    0.177165    0.390016    3.767013
 H   -1.772278   -0.503738    3.552909
 H    2.398288    0.542271   -0.407652
 H    0.916629    1.302072   -0.998140
 H    3.928417    1.938883    1.110148
 H    4.992650    4.140774    1.344323
 H    3.996851    6.118667    0.256270
 H    1.937503    5.873987   -1.079721
 H    0.873180    3.676430   -1.313428
