87 
4qz5_ligand_xtb.xyz
 C   -3.802255   -0.219404   -0.362309
 O   -3.695320   -0.870894   -1.383011
 C   -3.629782    1.311867   -0.377272
 N   -2.424672    1.682039   -1.152542
 O   -2.950684    3.886780   -2.915488
 C   -1.954116    3.059456   -0.879372
 C   -2.575264    1.505942   -2.620104
 C   -2.880435    4.089813   -1.526819
 C   -3.448306    2.606901   -3.223303
 N   -4.089026   -0.736136    0.840744
 C   -4.135383   -2.175640    1.137374
 C   -2.665377   -2.624886    1.139768
 O   -2.054243   -2.739309    2.192465
 C   -5.056346   -2.962160    0.215191
 N   -2.084899   -2.763142   -0.059111
 C   -0.638742   -2.678669   -0.147539
 C   -0.095644   -3.234417   -1.467896
 C    1.374702   -2.915894   -1.548804
 C    2.294546   -3.615769   -0.781593
 C    3.637026   -3.277739   -0.778138
 C    4.086593   -2.211181   -1.551715
 O    5.366088   -1.770231   -1.607503
 C    6.365350   -2.481235   -0.912507
 C    3.166103   -1.510897   -2.335922
 C    1.832857   -1.861931   -2.331920
 C   -0.279553   -1.186764   -0.053516
 O   -0.830408   -0.385487   -0.803632
 N    0.598591   -0.867560    0.895049
 C    1.174544    0.452204    1.132981
 C    0.219001    1.398097    1.911892
 O   -1.095915    1.346616    1.390326
 C    0.186167    1.190334    3.440861
 C    1.542397    1.433044    4.095425
 C   -0.366739   -0.182771    3.845382
 O   -1.683156   -0.347283    3.333919
 C    1.623035    1.100961   -0.191162
 C    2.729206    2.089746    0.048729
 C    4.031671    1.634249    0.217295
 C    5.062402    2.522765    0.461914
 C    4.803078    3.880972    0.543712
 C    3.511030    4.344757    0.370631
 C    2.480648    3.453329    0.123478
 H   -3.508265    1.693124    0.636492
 H   -4.520332    1.754900   -0.829211
 H   -1.669199    1.002489   -0.842401
 H   -0.962145    3.160032   -1.325422
 H   -1.874270    3.204417    0.197317
 H   -1.576539    1.554955   -3.057013
 H   -2.999269    0.520220   -2.811339
 H   -3.883883    4.052003   -1.077956
 H   -2.474924    5.092616   -1.385267
 H   -4.491058    2.512893   -2.886076
 H   -3.433186    2.527727   -4.311036
 H   -4.096992   -0.131385    1.647594
 H   -4.495315   -2.265913    2.166222
 H   -5.016260   -4.013324    0.486594
 H   -4.780695   -2.855476   -0.828432
 H   -6.078398   -2.612155    0.337162
 H   -2.603922   -2.501552   -0.890029
 H   -0.223949   -3.229335    0.701434
 H   -0.626802   -2.760459   -2.294876
 H   -0.268510   -4.310510   -1.505482
 H    1.964119   -4.450194   -0.179458
 H    4.321179   -3.853019   -0.175229
 H    6.424345   -3.520421   -1.248085
 H    6.199706   -2.454924    0.169345
 H    7.300076   -1.974599   -1.144850
 H    3.528683   -0.696783   -2.943365
 H    1.135915   -1.311508   -2.947081
 H    0.995576   -1.629425    1.422945
 H    2.064565    0.294691    1.745193
 H    0.589094    2.414961    1.728865
 H   -1.544213    0.672121    1.941157
 H   -0.519839    1.939911    3.817781
 H    1.424891    1.511190    5.172667
 H    2.234296    0.618771    3.894793
 H    1.981905    2.357216    3.729439
 H   -0.392695   -0.246588    4.940565
 H    0.286576   -0.980102    3.477077
 H   -1.864283   -1.300009    3.239593
 H    1.982430    0.310225   -0.852812
 H    0.770099    1.585375   -0.665015
 H    4.238698    0.576508    0.137909
 H    6.070453    2.156622    0.583159
 H    5.606575    4.575592    0.733417
 H    3.304132    5.403020    0.423271
 H    1.476299    3.827689   -0.023618
