97 
4r02_ligand_dft.xyz
 O   -0.627564    1.576540   -2.724706
 C   -0.849105    1.686244   -1.527023
 O   -2.014744    1.387511   -0.936364
 C   -3.015477    0.791671   -1.752269
 C   -2.830000   -0.696510   -1.939228
 C   -3.839798   -1.407359   -2.590622
 C   -3.714635   -2.773179   -2.815825
 C   -2.571934   -3.447958   -2.392627
 C   -1.566250   -2.750675   -1.730469
 C   -1.699578   -1.381849   -1.500669
 N    0.049504    2.113302   -0.604828
 C    1.423774    2.373720   -1.000680
 C    2.244890    1.080196   -0.864654
 O    3.218248    1.004939   -0.115328
 C    2.033870    3.508263   -0.184761
 C    1.235188    4.817156   -0.235442
 C    1.001949    5.303646   -1.668413
 C    1.952504    5.887464    0.591082
 N    1.756043    0.028497   -1.563969
 C    2.157470   -1.369532   -1.406391
 C    1.699375   -1.960050   -0.062145
 O    1.100959   -3.042694   -0.022120
 C    3.658745   -1.623733   -1.622738
 C    4.222950   -1.027530   -2.917790
 C    5.711839   -1.364187   -3.029623
 C    3.461890   -1.494514   -4.160691
 N    2.005437   -1.245429    1.027060
 C    1.707755   -1.642848    2.394085
 C    2.412509   -0.680762    3.357265
 C    3.927338   -0.519851    3.148128
 C    4.493111    0.394113    4.238220
 C    4.660296   -1.862747    3.124655
 C    0.198003   -1.751756    2.686075
 O   -0.337723   -3.001458    2.311539
 C   -0.646588   -0.579185    2.131295
 O   -0.205238    0.563854    2.024342
 N   -1.917318   -0.974103    1.884083
 C   -3.072871   -0.213785    1.613663
 C   -3.119202    1.164414    1.825148
 C   -4.289374    1.866709    1.573010
 C   -5.438136    1.219860    1.116363
 C   -6.715090    1.982236    0.865722
 C   -5.371974   -0.160013    0.921899
 C   -4.214617   -0.897622    1.163554
 C   -4.199795   -2.388895    0.948363
 H   -3.950673    0.992957   -1.224861
 H   -3.031879    1.292103   -2.724924
 H   -4.733407   -0.884434   -2.924616
 H   -4.510354   -3.310572   -3.323760
 H   -2.468613   -4.514218   -2.570005
 H   -0.675955   -3.260789   -1.375856
 H   -0.924343   -0.855562   -0.950629
 H   -0.140500    1.861769    0.364283
 H    1.389020    2.641464   -2.060677
 H    3.052454    3.678697   -0.554524
 H    2.142582    3.178839    0.855403
 H    0.254572    4.632066    0.221678
 H    0.373273    4.613524   -2.241036
 H    1.955318    5.418391   -2.200519
 H    0.502408    6.278440   -1.668694
 H    2.932339    6.121332    0.156250
 H    2.115062    5.553043    1.621820
 H    1.371615    6.815613    0.624171
 H    0.966102    0.213696   -2.174020
 H    1.590586   -1.923257   -2.157385
 H    3.798969   -2.713365   -1.624982
 H    4.218242   -1.223716   -0.772352
 H    4.127724    0.063544   -2.846270
 H    5.861130   -2.447071   -3.123863
 H    6.156567   -0.888602   -3.910321
 H    6.262831   -1.023012   -2.146452
 H    3.932973   -1.107450   -5.070370
 H    2.422647   -1.148419   -4.161741
 H    3.455369   -2.589965   -4.227838
 H    2.517221   -0.378951    0.889098
 H    2.096598   -2.657430    2.546897
 H    1.926405    0.298553    3.285191
 H    2.237833   -1.052870    4.375876
 H    4.101298   -0.020487    2.186087
 H    3.978193    1.360930    4.251531
 H    5.559904    0.581911    4.077187
 H    4.378231   -0.063305    5.229092
 H    5.741676   -1.710851    3.041473
 H    4.349780   -2.482269    2.276208
 H    4.471206   -2.427775    4.046495
 H    0.076187   -1.691445    3.776118
 H    0.069510   -3.227263    1.447304
 H   -2.019377   -1.982149    1.941319
 H   -2.230956    1.680047    2.164240
 H   -4.304059    2.941998    1.732548
 H   -7.243342    2.185069    1.805079
 H   -7.395767    1.418602    0.220324
 H   -6.517317    2.947531    0.388227
 H   -6.254809   -0.687421    0.565961
 H   -3.404632   -2.691137    0.258298
 H   -5.147699   -2.726034    0.522151
 H   -4.053505   -2.932616    1.891260
