58 
4r06_ligand_dft.xyz
 C   -7.234578   -2.102769    1.285650
 C   -7.518583   -2.569948    0.006293
 C   -6.976893   -1.919723   -1.099688
 C   -6.158772   -0.808861   -0.923167
 C   -5.859195   -0.336514    0.358327
 C   -6.407536   -0.995931    1.457717
 C   -4.962434    0.871271    0.547759
 C   -5.532175    2.148796   -0.091622
 C   -6.870180    2.562346    0.515658
 N   -3.628232    0.565536    0.042447
 C   -2.526308    1.236370    0.476816
 C   -1.217754    0.804610   -0.119306
 O   -2.593626    2.138844    1.302045
 C   -0.191223    1.767270   -0.163379
 C    1.052547    1.480214   -0.693224
 C    1.261899    0.182940   -1.162863
 C    0.258973   -0.806204   -1.118413
 C   -0.994779   -0.482984   -0.590798
 N    2.392767   -0.410885   -1.722576
 C    2.099454   -1.743651   -2.023099
 C    0.818863   -2.012248   -1.674208
 S    3.933251    0.283759   -1.852957
 O    3.772789    1.559198   -2.520455
 O    4.767983   -0.761538   -2.412607
 C    4.365309    0.609986   -0.152394
 C    4.522046    1.932424    0.181739
 C    4.818103    2.298556    1.511263
 C    4.931315    1.331466    2.472122
 C    4.782428   -0.043827    2.154123
 C    4.512416   -0.437242    0.810518
 C    4.906820   -1.036508    3.159614
 C    4.776774   -2.365027    2.854837
 C    4.530872   -2.756078    1.520812
 C    4.406209   -1.823172    0.523628
 H   -7.655725   -2.600900    2.153916
 H   -8.161507   -3.434384   -0.129718
 H   -7.196671   -2.274690   -2.102333
 H   -5.757243   -0.299766   -1.797200
 H   -6.185221   -0.637185    2.459313
 H   -4.843222    1.062890    1.619435
 H   -5.638154    1.996220   -1.173304
 H   -4.791422    2.941105    0.053342
 H   -6.772665    2.726228    1.595066
 H   -7.229733    3.493825    0.068015
 H   -7.635406    1.794419    0.360164
 H   -3.548160   -0.060717   -0.743226
 H   -0.403921    2.753422    0.234463
 H    1.823640    2.238550   -0.750919
 H   -1.761815   -1.249540   -0.520915
 H    2.855337   -2.359124   -2.486551
 H    0.314721   -2.958815   -1.806862
 H    4.407996    2.692449   -0.583062
 H    4.940976    3.346968    1.760607
 H    5.139996    1.603684    3.503228
 H    5.107784   -0.720287    4.179529
 H    4.870034   -3.118170    3.630755
 H    4.444989   -3.810794    1.278841
 H    4.252721   -2.153486   -0.494528
