37 
4r3b_ligand_xtb.xyz
 O   -2.439720   -1.612689    1.149512
 C   -3.262605   -1.797185    0.004807
 C   -3.154452   -0.610606   -0.969259
 C   -3.901990    0.646497   -0.494282
 O   -3.243951    1.244426    0.612178
 C   -1.695955   -0.298644   -1.320038
 N   -0.986086    0.166460   -0.107474
 C    0.452261    0.471910   -0.249004
 C    0.755859    1.906181    0.183728
 O    1.845196    2.286257    0.492543
 O   -0.329710    2.676063    0.148670
 C    1.359142   -0.547797    0.449700
 C    1.020836   -1.970109    0.033301
 C    1.481155   -0.395846    1.950179
 S    3.049193   -0.277190   -0.301712
 O    2.817884    0.154702   -1.649604
 O    3.843750   -1.434269   -0.056421
 H   -2.727383   -2.206484    1.849797
 H   -4.308514   -1.912426    0.301866
 H   -2.952483   -2.711324   -0.518475
 H   -3.654835   -0.929676   -1.887816
 H   -4.925524    0.367753   -0.224258
 H   -3.950064    1.361325   -1.326348
 H   -3.803961    1.935667    0.979072
 H   -1.206554   -1.195190   -1.703835
 H   -1.651150    0.482644   -2.081255
 H   -1.165792   -0.562676    0.614379
 H   -1.525494    0.994734    0.233472
 H    0.735221    0.439328   -1.314587
 H   -0.116126    3.598059    0.371488
 H    1.003170   -2.054411   -1.051252
 H    1.810899   -2.627837    0.389336
 H    0.077920   -2.317518    0.451736
 H    0.534055   -0.582572    2.455444
 H    2.207743   -1.117571    2.315920
 H    1.833286    0.596476    2.219372
 H    3.628008    0.769179    0.395840
