42 
4r3w_ligand_xtb.xyz
 P    3.035220    1.347406   -1.131841
 O    4.585406    1.206387   -0.841484
 O    2.836078    2.922519   -1.267636
 O    2.504671    0.550761   -2.233180
 P   -3.276343    0.969046   -0.731538
 O   -3.183366   -0.199920    0.318936
 O   -4.689298    1.620871   -0.346990
 O   -3.123045    0.641489   -2.144595
 O   -2.228566    2.091522   -0.253669
 C   -2.136357    2.402784    1.118567
 C   -0.766730    1.999599    1.663422
 O   -0.719853    0.591583    1.871179
 C    0.391180    2.367263    0.708029
 O    1.273230    3.217821    1.379888
 C    1.024673    0.995522    0.394825
 O    2.426956    1.038506    0.313775
 C    0.589094    0.168879    1.618205
 N    0.675742   -1.239150    1.403454
 C    1.661804   -2.054793    1.902838
 N    1.658411   -3.252402    1.415129
 C    0.615456   -3.266844    0.522740
 C    0.091883   -4.247207   -0.340461
 N    0.578731   -5.493517   -0.411911
 N   -0.944370   -3.916108   -1.118593
 C   -1.455596   -2.705073   -1.033890
 N   -1.066395   -1.706737   -0.253186
 C   -0.010247   -2.008647    0.502377
 H    4.890500    0.325668   -1.053697
 H    2.804871    3.177059   -2.189497
 H   -2.365066   -0.735055    0.154113
 H   -5.299769    1.441390   -1.059478
 H   -2.261730    3.483745    1.226045
 H   -2.910058    1.879760    1.683876
 H   -0.588903    2.510176    2.620908
 H    0.007640    2.835832   -0.206926
 H    2.070239    3.322060    0.841735
 H    0.595168    0.568014   -0.518010
 H    1.258819    0.419264    2.461078
 H    2.363905   -1.703919    2.633432
 H    0.172145   -6.137797   -1.066163
 H    1.372231   -5.746934    0.147921
 H   -2.296623   -2.491867   -1.678601
