65 
4r4q_ligand_xtb.xyz
 C   -3.312087   -1.234303   -3.197828
 C   -5.160185   -0.416584   -1.896280
 C   -2.961029    0.502700    1.643956
 C   -0.718973    0.566027    2.508554
 C    0.913309   -3.918935    2.039828
 C    0.583547   -4.250188    3.480383
 C    1.242799   -2.237009    0.324808
 C    3.742342   -2.241074    0.465148
 C    5.053113   -0.267233    0.032772
 O   -7.468008    3.766028    2.306293
 C   -7.258174    3.170057    1.285957
 C   -6.073979    2.315267    1.063058
 N   -5.911082    1.671785   -0.088394
 N   -4.769281    1.002703    0.015150
 C   -4.275010    0.267946   -1.069834
 C   -2.909502    0.236661   -1.333294
 C   -2.429401   -0.527239   -2.382345
Cl   -0.733429   -0.589664   -2.666862
Cl   -2.718431   -2.186842   -4.500431
 C   -4.677162   -1.158775   -2.956141
 C   -4.180515    1.191727    1.235777
 C   -1.899697    1.213000    2.196965
 C   -0.581336   -0.799736    2.296085
 C    0.730297   -1.489275    2.592380
 N    0.972766   -2.603871    1.708211
 O    1.118874   -4.789333    1.216288
 C    2.568897   -1.541772    0.198856
 C    4.969019   -1.617473    0.383646
 C    6.337560    0.396455   -0.058994
 C    7.620600   -0.073956    0.125441
 C    8.484183    1.010470   -0.093304
 C    7.683902    2.084591   -0.399188
 C    8.031091    3.474515   -0.718463
 O    9.160014    3.882498   -0.750095
 O    6.977497    4.272642   -0.975817
 O    6.377821    1.707999   -0.377710
 C    3.874384    0.432803   -0.230994
 C    2.649442   -0.198629   -0.145318
 C   -1.662944   -1.516433    1.797775
 C   -2.839728   -0.874808    1.469588
 C   -5.003137    2.046813    1.936121
 O   -8.089787    3.222607    0.235555
 H   -6.218450   -0.361755   -1.697868
 H    0.110533    1.129570    2.910271
 H    0.518748   -5.331803    3.564206
 H    1.369412   -3.896909    4.145016
 H   -0.366483   -3.813681    3.779858
 H    0.436372   -1.593592   -0.041622
 H    1.249618   -3.169295   -0.246744
 H    3.680710   -3.285574    0.732110
 H   -2.217124    0.803387   -0.732945
 H   -5.355848   -1.696021   -3.598742
 H   -1.994674    2.277562    2.349659
 H    0.737662   -1.824361    3.630711
 H    1.548932   -0.768400    2.473915
 H    5.868765   -2.174999    0.588486
 H    7.908133   -1.072008    0.382886
 H    9.552806    1.022370   -0.039150
 H    6.143422    3.785814   -0.911306
 H    3.925072    1.476118   -0.503362
 H    1.744934    0.354948   -0.354681
 H   -1.576773   -2.582059    1.645372
 H   -3.669541   -1.442058    1.074518
 H   -4.881927    2.414366    2.932832
 H   -7.740563    2.681479   -0.491010
