59 
4r4t_ligand_dft.xyz
 C    2.959315    0.741709    0.011820
 C    3.645881    3.393232    0.514534
 C    1.252812    4.106788    0.177380
 C   -1.865965    2.650921    0.488276
 C   -2.714502    1.577600    0.699986
 C   -3.686737    1.246136   -0.252010
 C   -2.951931    3.106486   -1.609116
 C   -5.925565   -0.032641   -0.005656
 O    6.741734   -4.244301   -0.251414
 C    5.871028   -3.426598   -0.398199
 C    6.012428   -2.029972    0.047848
 O    4.696267   -3.730891   -0.982869
 C    7.046845   -1.356395    0.620350
 C    6.588183   -0.025702    0.822061
 C    5.301340    0.022202    0.359074
 O    4.946521   -1.198665   -0.116459
 C    4.286353    1.068538    0.302102
 C    1.992270    1.733043   -0.048415
 C    2.323452    3.069715    0.198887
 C    4.618435    2.407076    0.550129
 N    0.391130    3.956969   -0.848338
 S    1.129664    5.273116    1.354250
 C   -0.949305    4.513945   -0.928405
 C   -1.963756    3.417018   -0.679176
 C   -3.812473    2.031130   -1.397437
 C   -4.553728    0.073017   -0.049171
 C   -6.179260   -1.382350    0.333180
 N   -5.053207   -2.068180    0.474836
 N   -4.076152   -1.182433    0.231604
 C   -2.729266   -1.638347    0.239308
 C   -1.853734   -1.243169   -0.764777
 C   -0.538398   -1.693089   -0.744634
 C   -0.104102   -2.547937    0.270196
 C   -1.001310   -2.953418    1.256124
 C   -2.311987   -2.500946    1.247945
Cl    1.528324   -3.138039    0.331878
Cl    0.523703   -1.185149   -2.025040
 C   -7.487114   -2.063964    0.560461
 O   -8.541525   -1.477412   -0.051525
 O   -7.630954   -3.040619    1.240422
 H    2.679731   -0.292195   -0.154818
 H    3.901091    4.426080    0.726740
 H   -1.113061    2.898914    1.231942
 H   -2.624270    0.985541    1.605783
 H   -3.041387    3.693165   -2.519721
 H   -6.624083    0.785811   -0.111414
 H    4.138123   -2.940682   -1.046041
 H    8.011112   -1.776215    0.864349
 H    7.136353    0.789252    1.271653
 H    0.960656    1.448964   -0.241239
 H    5.646410    2.679473    0.768443
 H    0.597470    3.217902   -1.507629
 H   -1.096641    4.968288   -1.913102
 H   -1.014134    5.304324   -0.176107
 H   -4.562538    1.778799   -2.141322
 H   -2.184840   -0.595963   -1.567626
 H   -0.660289   -3.625602    2.035162
 H   -3.016552   -2.819424    2.007188
 H   -8.236223   -0.795647   -0.664433
