47 
4r59_ligand_dft.xyz
 O    3.891220   -2.307812   -0.542252
 C    3.672197   -0.925858   -0.512655
 C    3.984537   -0.324145    0.862357
 O    5.354207   -0.515965    1.144375
 C    3.608842    1.156135    0.876104
 O    4.557797    1.805079    0.052154
 C    2.162304    1.327063    0.398649
 C    1.741532    2.778401    0.221473
 O    2.499124    3.422132   -0.791215
 O    1.955478    0.732294   -0.886004
 C    2.240359   -0.628571   -0.968785
 S    0.971516   -1.671793   -0.074062
 O    1.300090   -1.765406    1.344808
 O    0.769943   -2.865628   -0.878944
 N   -0.350085   -0.656061   -0.159535
 C   -1.010116   -0.549256   -1.460719
 C   -1.719623    0.800599   -1.541417
 C   -1.260329   -0.587552    0.987948
 C   -1.970823    0.762930    0.961765
 C   -2.676337    1.000537   -0.372937
 O   -3.735118    0.023241   -0.593634
 S   -5.033351    0.115765    0.351331
 O   -4.822503   -0.668070    1.548205
 O   -5.416725    1.511192    0.432787
 N   -6.070672   -0.735819   -0.608610
 H    4.679389   -2.463596   -0.002204
 H    4.312815   -0.407345   -1.244010
 H    3.423223   -0.864430    1.627250
 H    5.824635    0.169860    0.645500
 H    3.671546    1.537427    1.907703
 H    4.168536    2.639119   -0.260408
 H    1.499732    0.856398    1.137424
 H    0.668732    2.819061   -0.011863
 H    1.913584    3.333901    1.147031
 H    2.381185    2.889672   -1.591361
 H    2.111821   -0.923028   -2.012596
 H   -0.262113   -0.615474   -2.253740
 H   -1.721226   -1.372846   -1.605812
 H   -2.266266    0.883698   -2.485442
 H   -0.968551    1.597622   -1.508089
 H   -0.675951   -0.698333    1.901212
 H   -1.998787   -1.399850    0.954680
 H   -2.677765    0.827019    1.793408
 H   -1.234425    1.565473    1.092526
 H   -3.132836    1.993594   -0.404481
 H   -6.583126   -1.421975   -0.067042
 H   -6.662867   -0.136509   -1.171900
