44 
4r5b_ligand_xtb.xyz
 C    3.596525   -0.201202    0.728881
 C    2.318885   -0.602283    1.486736
 C    1.983279   -2.108508    1.389031
 O   -3.149664   -0.253420   -0.119907
 S   -2.517156   -1.644240   -0.591393
 O   -1.152358   -1.761665   -0.168454
 O   -3.395556   -2.693232   -0.202689
 N   -2.549485   -1.443984   -2.204191
 O    2.644257    2.071055   -0.726741
 C    2.194055    0.788672   -1.072912
 C    3.353512   -0.186639   -0.790274
 O    4.521873    0.196917   -1.463549
 O    4.642881   -1.072834    1.065889
 O    1.601294   -2.582280    0.121198
 O    1.239082    0.261467    1.120902
 C    0.994096    0.317866   -0.251551
 S   -0.421247    1.460932   -0.477486
 O    0.051473    2.792801   -0.760232
 O   -1.238841    0.898192   -1.527257
 N   -1.174794    1.594267    1.015529
 C   -1.623978    0.386718    1.674246
 C   -2.310814    2.513342    0.993289
 C   -3.581427    1.664890    1.214215
 C   -3.074607    0.215908    1.216750
 H    3.856786    0.828787    1.029506
 H    2.476839   -0.391798    2.549859
 H    1.210322   -2.329624    2.132765
 H    2.901052   -2.640518    1.658051
 H   -2.032153   -0.593959   -2.399062
 H   -3.494873   -1.393940   -2.544049
 H    1.880494    2.674024   -0.743542
 H    1.916234    0.751912   -2.139262
 H    3.103240   -1.194969   -1.133136
 H    4.611423    1.153921   -1.351179
 H    5.259525   -1.072926    0.320355
 H    0.641770   -2.500480    0.015799
 H    0.617453   -0.621099   -0.662357
 H   -0.995246   -0.454537    1.409890
 H   -1.588276    0.552749    2.755077
 H   -2.312473    3.037401    0.038218
 H   -2.174555    3.244585    1.793875
 H   -4.308848    1.803411    0.418608
 H   -4.045248    1.897648    2.171229
 H   -3.651755   -0.458231    1.858309
