44 
4r5t_ligand_xtb.xyz
 C   -4.897726   -2.900768   -1.141141
 C   -4.692486   -1.712232   -0.202116
 C   -5.605162   -0.552176   -0.596620
 C   -4.923039   -2.126908    1.250045
 O   -3.300318   -1.349498   -0.402292
 C   -2.760430   -0.324221    0.259713
 O   -3.314852    0.398455    1.063867
 N   -1.463745   -0.175723   -0.094204
 C   -0.595652    0.817266    0.517715
 C   -0.879618    2.194328   -0.122162
 O   -0.171059    2.754161   -0.939920
 N   -2.006281    2.744802    0.342491
 O   -2.443529    3.937952   -0.240820
 C    0.847580    0.436411    0.354345
 C    1.667390    0.263575    1.462546
 C    2.996900   -0.070502    1.308280
 C    1.387335    0.271834   -0.915585
 C    2.718068   -0.061024   -1.080725
 C    3.534216   -0.233620    0.033126
 N    4.883333   -0.570276   -0.085569
 N    5.599183   -0.871229    1.003103
 C    6.815205   -1.136425    0.585399
 C    6.907842   -1.005190   -0.811011
 C    5.646876   -0.641052   -1.206070
 H   -4.706345   -2.602145   -2.168328
 H   -5.917442   -3.264483   -1.061340
 H   -4.212676   -3.703277   -0.881164
 H   -5.380363   -0.226632   -1.610143
 H   -6.641744   -0.873748   -0.552243
 H   -5.467847    0.285831    0.080965
 H   -5.945191   -2.473028    1.372747
 H   -4.754696   -1.283496    1.913968
 H   -4.242491   -2.930953    1.522038
 H   -1.078265   -0.789383   -0.793713
 H   -0.861910    0.881297    1.579835
 H   -2.731917    2.227509    0.833532
 H   -1.712108    4.179400   -0.843928
 H    1.262209    0.393096    2.455067
 H    3.642815   -0.210254    2.159752
 H    0.769124    0.424933   -1.786429
 H    3.109735   -0.183675   -2.077667
 H    7.580492   -1.409731    1.284267
 H    7.770097   -1.155020   -1.427343
 H    5.265358   -0.423595   -2.181731
