43 
4r5v_ligand_dft.xyz
 C   -2.801604   -3.176066    0.045808
 C   -3.690433   -1.949876    0.323903
 C   -5.081307   -2.176705   -0.275704
 C   -3.813358   -1.717977    1.841096
 C   -3.071612   -0.708675   -0.337431
 O   -3.645988   -0.066781   -1.214226
 N   -1.833130   -0.349294    0.092710
 C   -1.091424    0.745566   -0.529291
 C   -1.605763    2.078867    0.036628
 O   -1.146013    2.668069    1.010404
 N   -2.661413    2.574723   -0.647280
 O   -3.328410    3.635339   -0.048202
 C    0.393278    0.530338   -0.360464
 C    1.019178    0.670392    0.880309
 C    2.373155    0.395061    1.023669
 C    1.153763    0.107584   -1.451662
 C    2.510218   -0.155433   -1.324373
 C    3.121032   -0.007970   -0.081107
 N    4.504989   -0.272778    0.048247
 N    5.116895   -1.105011   -0.820794
 C    6.383132   -1.123775   -0.436571
 C    6.606682   -0.298349    0.686509
 C    5.372989    0.234859    0.966495
 H   -1.807497   -3.083209    0.496976
 H   -3.270102   -4.072913    0.464878
 H   -2.671221   -3.332495   -1.029975
 H   -5.023251   -2.330149   -1.356298
 H   -5.537662   -3.062041    0.180055
 H   -5.732938   -1.317258   -0.097527
 H   -4.313206   -2.575351    2.304208
 H   -2.838866   -1.604660    2.328943
 H   -4.404819   -0.822127    2.056740
 H   -1.361075   -0.884032    0.805396
 H   -1.339319    0.723607   -1.595566
 H   -3.297308    1.920873   -1.102325
 H   -2.753026    3.819298    0.721824
 H    0.448834    1.015747    1.734838
 H    2.837133    0.481716    2.000480
 H    0.680947   -0.013814   -2.422481
 H    3.103322   -0.479533   -2.170769
 H    7.093505   -1.732725   -0.978792
 H    7.534370   -0.111876    1.205758
 H    5.056520    0.947391    1.712783
