43 
4r5x_ligand_xtb.xyz
 C   -6.755183   -1.580082   -0.776418
 C    3.112811   -1.889498    0.100128
 C    3.998663   -2.916920   -0.221909
 C    5.816350   -1.333398   -0.155276
 C   -2.680884   -0.218128   -1.018023
 C   -1.414164    0.310850   -0.860191
 C   -0.995748    0.799222    0.371822
 C   -1.869992    0.745348    1.450346
 C   -3.136006    0.217369    1.303544
 C   -3.553799   -0.264152    0.064678
 N   -4.843661   -0.785039   -0.050487
 N   -5.582970   -0.998644    1.042954
 C   -6.731758   -1.478059    0.625169
 C   -5.524440   -1.126181   -1.174371
 C    0.373867    1.395056    0.522246
 N    1.401235    0.419244    0.195637
 C    0.541912    2.632429   -0.386793
 O   -0.164097    2.909576   -1.341145
 N    1.559927    3.404653    0.002145
 O    1.896825    4.501890   -0.795998
 C    2.671028    0.526289    0.647247
 C    3.576990   -0.593549    0.289197
 O    3.041194    1.493258    1.300469
 C    5.357538   -2.620007   -0.354739
 C    4.936421   -0.317837    0.172802
 N    3.531355   -4.187918   -0.473816
 H   -7.555342   -1.931936   -1.394218
 H    2.066944   -2.130289    0.234508
 H    6.870661   -1.121936   -0.250313
 H   -2.979054   -0.591315   -1.984674
 H   -0.754889    0.363758   -1.712968
 H   -1.558159    1.123475    2.412546
 H   -3.823164    0.168486    2.132497
 H   -7.500022   -1.733113    1.327629
 H   -5.113665   -1.013711   -2.155943
 H    0.547710    1.715397    1.556644
 H    1.150298   -0.317165   -0.443954
 H    2.296584    3.094136    0.636546
 H    1.195050    4.514925   -1.476954
 H    6.047082   -3.412794   -0.606668
 H    5.281487    0.689549    0.342188
 H    4.208081   -4.932210   -0.435206
 H    2.626180   -4.421631   -0.100067
