45 
4r6e_ligand_dft.xyz
 C    5.434856   -0.984048   -0.198834
 C    5.384233   -0.693807    1.307696
 C    5.625181    0.778172    1.616028
 N    4.711021    1.631111    0.770151
 C    4.901662    1.383810   -0.704008
 C    4.501318   -0.063606   -1.009444
 C    3.002719   -0.280936   -0.775170
 C    2.502227   -1.416956   -0.133100
 C    1.138122   -1.601173    0.060250
 C    2.070973    0.655174   -1.248574
 C    0.706614    0.482414   -1.070634
 C    0.236120   -0.649639   -0.407123
 N   -1.150911   -0.813393   -0.216332
 C   -1.835102   -1.978312   -0.103019
 N   -1.936715    0.281886   -0.149395
 C   -3.173864   -0.203364    0.021956
 C   -3.167941   -1.634149    0.056161
 C   -4.375453   -2.364560    0.215998
 C   -5.534403   -1.653580    0.342706
 C   -5.537892   -0.226866    0.318722
 C   -4.399518    0.519358    0.166011
 C   -4.534499    2.018775    0.166335
 O   -5.625266    2.555116    0.271184
 N   -3.377547    2.720898    0.049577
 H    6.458841   -0.834827   -0.561641
 H    5.202318   -2.034727   -0.386011
 H    4.420575   -0.993016    1.732437
 H    6.150104   -1.271730    1.832461
 H    6.642795    1.090206    1.365709
 H    5.427103    1.022954    2.661406
 H    3.730335    1.412667    0.992906
 H    4.852544    2.620599    0.988548
 H    4.306535    2.125474   -1.235839
 H    5.957758    1.564644   -0.918626
 H    4.710685   -0.216663   -2.074998
 H    3.171028   -2.188785    0.231400
 H    0.786243   -2.477027    0.594339
 H    2.395899    1.526978   -1.810551
 H   -0.004113    1.206883   -1.449325
 H   -1.348161   -2.937939   -0.185736
 H   -4.371027   -3.449512    0.237038
 H   -6.479045   -2.172278    0.467468
 H   -6.474251    0.311572    0.425723
 H   -2.480793    2.263412   -0.033876
 H   -3.446318    3.726424    0.047962
