87 
4r6v_ligand_xtb.xyz
 C   -4.450326    5.861357    1.563659
 C   -5.002668    4.502425    1.997623
 C   -4.505098    3.410718    1.068045
 O   -5.231834    2.871394    0.247646
 N   -3.200586    3.110709    1.261651
 C   -2.339484    2.275977    0.529326
 C   -1.112566    1.946667    1.100430
 C   -0.190353    1.196124    0.398766
 C   -2.638178    1.812933   -0.746515
 C   -1.712539    1.051892   -1.436577
 C   -0.472847    0.748286   -0.885676
 C    0.564123    0.038963   -1.718327
 N    1.613893   -0.630151   -0.968868
 C    2.840077    0.090656   -0.909842
 O    2.871328    1.236949   -1.292763
 N    3.879005   -0.600226   -0.401616
 C    5.156689   -0.067663   -0.222013
 C    5.878034    0.498195   -1.268429
Cl    5.241158    0.516780   -2.862565
 C    5.752236   -0.150089    1.035833
Cl    4.881427   -0.878151    2.336694
 C    7.036429    0.342223    1.268110
 O    7.514835    0.203156    2.526459
 C    8.806695    0.680105    2.822074
 C    7.724479    0.940373    0.216102
 C    7.159549    1.021062   -1.052060
 O    7.767958    1.561328   -2.130014
 C    9.066249    2.089158   -1.992412
 C    1.326018   -1.816623   -0.342780
 C    0.016334   -2.295517   -0.273963
 N    2.318981   -2.530915    0.215916
 C    2.018179   -3.687780    0.768571
 N    0.826702   -4.225991    0.879147
 C   -0.190647   -3.505469    0.387745
 N   -1.429802   -4.059729    0.538256
 C   -2.636052   -3.383722    0.423155
 C   -2.744819   -2.051266    0.817172
 C   -3.917324   -1.353673    0.624607
 C   -3.768821   -4.024310   -0.078431
 C   -4.941670   -3.323265   -0.273580
 C   -5.020121   -1.968490    0.039087
 N   -6.181437   -1.235224   -0.303209
 C   -7.432155   -1.617986    0.308486
 C   -8.584542   -1.037601   -0.512226
 N   -8.468926    0.440734   -0.569538
 C   -9.597917    1.064985   -1.272994
 C   -7.161099    0.807619   -1.167030
 C   -6.041851    0.199968   -0.334611
 H   -3.364081    5.881232    1.613824
 H   -4.749112    6.081150    0.541445
 H   -4.837573    6.643568    2.211135
 H   -6.092439    4.521642    1.951599
 H   -4.701511    4.286287    3.024787
 H   -2.745033    3.581513    2.032359
 H   -0.869034    2.303859    2.091003
 H    0.767795    0.979237    0.844995
 H   -3.574286    2.085029   -1.206388
 H   -1.947665    0.714181   -2.435529
 H    1.075644    0.803236   -2.316645
 H    0.094935   -0.673974   -2.402994
 H    3.641908   -1.491987    0.060357
 H    9.568146    0.176664    2.218939
 H    8.877416    1.762469    2.677637
 H    8.968654    0.446500    3.872848
 H    8.710444    1.336465    0.384977
 H    9.088443    2.922169   -1.283030
 H    9.781496    1.321176   -1.682143
 H    9.337412    2.453200   -2.981728
 H   -0.813896   -1.769667   -0.706897
 H    2.847630   -4.246931    1.180162
 H   -1.435054   -5.038617    0.786191
 H   -1.909411   -1.559505    1.289543
 H   -3.953790   -0.324019    0.940506
 H   -3.716978   -5.069643   -0.342185
 H   -5.793958   -3.827806   -0.702898
 H   -7.509173   -1.255146    1.350957
 H   -7.514313   -2.704556    0.326708
 H   -9.544284   -1.309275   -0.069434
 H   -8.536962   -1.419004   -1.533676
 H   -8.450362    0.785148    0.398595
 H   -9.626390    0.713372   -2.302871
 H  -10.538339    0.809537   -0.787657
 H   -9.483297    2.147340   -1.275877
 H   -7.040110    1.891652   -1.169014
 H   -7.130553    0.425105   -2.187715
 H   -5.092789    0.459467   -0.800341
 H   -6.060649    0.657758    0.667514
