87 
4r6v_ligand_dft.xyz
 C   -6.052837    4.885712    0.463394
 C   -5.303302    3.862584    1.323224
 C   -4.574909    2.849501    0.462373
 O   -5.200681    2.074151   -0.275757
 N   -3.229958    2.865874    0.535727
 C   -2.292556    2.001740   -0.097547
 C   -1.074067    1.796088    0.549561
 C   -0.107766    0.976637   -0.018443
 C   -2.539131    1.383917   -1.322356
 C   -1.572369    0.544737   -1.865329
 C   -0.349210    0.329568   -1.229297
 C    0.689885   -0.564102   -1.881989
 N    1.730545   -1.050917   -0.985395
 C    2.926032   -0.265921   -1.000681
 O    3.002154    0.689340   -1.747913
 N    3.894069   -0.625947   -0.116695
 C    5.100471    0.094075   -0.034248
 C    6.293351   -0.510207   -0.436207
Cl    6.276770   -2.120668   -1.086229
 C    5.126229    1.386107    0.496202
Cl    3.674681    2.133440    1.089391
 C    6.333465    2.088512    0.584799
 O    6.271022    3.333551    1.093584
 C    7.465266    4.078064    1.211425
 C    7.518242    1.476835    0.172682
 C    7.508746    0.175601   -0.329874
 O    8.609107   -0.480832   -0.739021
 C    9.856433    0.178956   -0.673812
 C    1.425474   -2.106984   -0.130093
 C    0.100804   -2.501829    0.054226
 N    2.424008   -2.743404    0.505926
 C    2.081850   -3.755178    1.298477
 N    0.862828   -4.185669    1.584100
 C   -0.134533   -3.521125    0.977998
 N   -1.401053   -3.924224    1.320441
 C   -2.589889   -3.223503    1.055383
 C   -2.638137   -1.828393    1.164068
 C   -3.794852   -1.145935    0.830814
 C   -3.744165   -3.919387    0.687634
 C   -4.908830   -3.228526    0.367780
 C   -4.929853   -1.835136    0.412018
 N   -6.044115   -1.055192   -0.026627
 C   -7.372231   -1.378181    0.444520
 C   -8.161729   -0.056052    0.468434
 N   -7.613188    0.880682   -0.571692
 C   -8.536502    2.003859   -0.856873
 C   -7.220111    0.128924   -1.801401
 C   -6.028932   -0.779679   -1.456249
 H   -5.357939    5.479395   -0.137473
 H   -6.746730    4.386696   -0.218713
 H   -6.623848    5.568942    1.096777
 H   -6.011770    3.302514    1.944469
 H   -4.619122    4.375312    2.006502
 H   -2.826108    3.526705    1.184464
 H   -0.872861    2.280587    1.501943
 H    0.839743    0.837728    0.492534
 H   -3.473517    1.557200   -1.839195
 H   -1.773889    0.057267   -2.816118
 H    1.203165    0.003715   -2.659373
 H    0.205564   -1.422181   -2.358955
 H    3.830980   -1.562138    0.283643
 H    8.179406    3.586181    1.883306
 H    7.932253    4.242718    0.232727
 H    7.173049    5.037854    1.636938
 H    8.452948    2.014107    0.247628
 H    9.864885    1.079903   -1.299350
 H   10.115555    0.443148    0.358816
 H   10.586288   -0.533360   -1.057521
 H   -0.719953   -2.016393   -0.448144
 H    2.904639   -4.282049    1.774730
 H   -1.437038   -4.769789    1.872640
 H   -1.766310   -1.276398    1.497671
 H   -3.832035   -0.064114    0.883618
 H   -3.715258   -5.002342    0.613280
 H   -5.788526   -3.781599    0.048716
 H   -7.315793   -1.782471    1.456822
 H   -7.891460   -2.125170   -0.180284
 H   -8.056382    0.455655    1.427444
 H   -9.224668   -0.202231    0.257025
 H   -6.719080    1.299670   -0.219491
 H   -9.435668    1.623217   -1.345006
 H   -8.802694    2.490486    0.083104
 H   -8.028315    2.715163   -1.509093
 H   -6.959118    0.855441   -2.572366
 H   -8.100317   -0.430180   -2.131429
 H   -6.093212   -1.695485   -2.067166
 H   -5.088317   -0.276604   -1.690189
