47 
4r6w_ligand_xtb.xyz
 N    2.885824    0.214504   -1.136039
 C    3.028353   -0.700596    0.021704
 C    2.431719   -2.082827   -0.272273
 C    0.919690   -2.154902   -0.109143
 S    0.010876   -1.076011   -1.293577
 C    4.542116   -0.832174    0.242569
 O    4.851451   -1.466425    1.345049
 O    5.313547   -0.389696   -0.567905
 C   -1.532720   -2.005755   -1.505368
 C   -2.592812   -1.686976   -0.451131
 O   -2.026519   -1.586985    0.849033
 C   -3.364987   -0.382245   -0.714032
 O   -4.561935   -0.699677   -1.363585
 C   -3.602623    0.178634    0.709661
 O   -4.791788   -0.295033    1.258267
 C   -2.399676   -0.384615    1.480400
 N   -1.249889    0.502800    1.465834
 C   -0.093175    0.211861    2.134938
 N    0.943008    0.888727    1.742703
 C    0.463959    1.710378    0.752955
 C    1.059757    2.597318   -0.140911
 N    2.452597    2.724096   -0.231042
 N    0.315949    3.221523   -1.036264
 C   -0.986703    2.976097   -1.069912
 N   -1.658114    2.112917   -0.334417
 C   -0.918523    1.479878    0.569206
 H    3.779197    0.144706   -1.661288
 H    2.770026    1.248597   -0.822592
 H    2.083271   -0.054967   -1.718360
 H    2.549134   -0.266492    0.909771
 H    2.713601   -2.390286   -1.281848
 H    2.865324   -2.796925    0.430663
 H    0.586758   -3.172289   -0.306785
 H    0.619947   -1.874581    0.898579
 H    5.812282   -1.558546    1.468982
 H   -1.265428   -3.061376   -1.481983
 H   -1.913249   -1.752379   -2.494298
 H   -3.320279   -2.512298   -0.452296
 H   -2.756796    0.323925   -1.293772
 H   -5.004093    0.109567   -1.647940
 H   -3.597890    1.274215    0.725943
 H   -5.259487   -0.811906    0.581692
 H   -2.657815   -0.605960    2.521720
 H   -0.068037   -0.525814    2.913595
 H    2.904022    2.766653    0.676560
 H    2.711120    3.509336   -0.820956
 H   -1.555556    3.529091   -1.802444
