47 
4r6x_ligand_xtb.xyz
 N    2.884879    0.214684   -1.135401
 C    3.029420   -0.700380    0.022244
 C    2.432837   -2.082621   -0.270693
 C    0.920911   -2.154617   -0.105945
 S    0.010773   -1.078124   -1.291403
 C    4.543644   -0.831245    0.240830
 O    4.854761   -1.465115    1.343189
 O    5.313773   -0.388978   -0.570839
 C   -1.531933   -2.009689   -1.501540
 C   -2.592881   -1.688417   -0.449091
 O   -2.027903   -1.586363    0.851458
 C   -3.363559   -0.383422   -0.715291
 O   -4.559438   -0.700550   -1.366673
 C   -3.603344    0.179319    0.707267
 O   -4.793279   -0.293808    1.254613
 C   -2.401632   -0.382973    1.480440
 N   -1.251519    0.504107    1.465612
 C   -0.095243    0.213094    2.135459
 N    0.941348    0.889349    1.743382
 C    0.462973    1.710867    0.753128
 C    1.059337    2.597437   -0.140682
 N    2.452209    2.724075   -0.230398
 N    0.316107    3.221405   -1.036813
 C   -0.986437    2.975857   -1.071288
 N   -1.658397    2.113085   -0.335729
 C   -0.919458    1.480556    0.568722
 H    3.777320    0.144635   -1.662258
 H    2.769647    1.248833   -0.821763
 H    2.081354   -0.054936   -1.716241
 H    2.551246   -0.266412    0.910908
 H    2.713749   -2.390473   -1.280423
 H    2.867272   -2.796470    0.432033
 H    0.587967   -3.172504   -0.301288
 H    0.622359   -1.872405    0.901634
 H    5.815842   -1.556745    1.465551
 H   -1.263891   -3.065066   -1.474670
 H   -1.911936   -1.759591   -2.491563
 H   -3.320898   -2.513194   -0.449647
 H   -2.753436    0.321444   -1.294682
 H   -5.000455    0.108711   -1.652581
 H   -3.598741    1.274957    0.722008
 H   -5.260948   -0.809580    0.577125
 H   -2.661146   -0.602615    2.521750
 H   -0.070815   -0.524004    2.914649
 H    2.903293    2.767131    0.677355
 H    2.711077    3.508967   -0.820600
 H   -1.554727    3.528271   -1.804761
