29 
4r74_ligand_dft.xyz
 O   -4.356905   -0.847021   -0.602272
 C   -3.625228   -0.060199    0.318418
 C   -2.142912   -0.380160    0.161821
 O   -1.940689   -1.754526    0.319614
 C   -1.204421    0.358411    1.151022
 O   -0.227754   -0.511339    1.691417
 C   -0.546459    1.421261    0.273965
 O   -1.420177    2.533215    0.297207
 C   -0.545294    0.748192   -1.104664
 O   -1.779595    0.040818   -1.148008
 C    0.597109   -0.240406   -1.354178
 O    1.852966    0.391543   -1.101659
 P    2.834285   -0.293550   -0.013539
 O    4.172960    0.548959   -0.236219
 O    2.941400   -1.757201   -0.152974
 O    2.374039    0.275490    1.399381
 H   -4.098035   -0.544727   -1.484254
 H   -3.782411    1.014844    0.174314
 H   -3.967753   -0.345334    1.316460
 H   -2.708814   -2.189889   -0.084627
 H   -1.769530    0.832997    1.960433
 H   -0.545400   -1.421164    1.563608
 H    0.454514    1.682723    0.628609
 H   -1.042560    3.226444   -0.256640
 H   -0.567038    1.500607   -1.899744
 H    0.580084   -0.559187   -2.399690
 H    0.466237   -1.134017   -0.739403
 H    4.843340   -0.013588   -0.645091
 H    1.496371   -0.088548    1.658902
