33 
4r75_ligand_dft.xyz
 O   -4.188894   -2.222966   -0.201559
 C   -4.192868   -0.806105   -0.185851
 C   -2.779709   -0.293126    0.045848
 O   -2.208624   -1.025577    1.119414
 O   -2.031237   -0.476344   -1.128296
 C   -0.933535    0.453643   -1.160564
 C    0.380280   -0.313049   -1.029425
 O    0.487978   -0.925059    0.247345
 C    1.566649    0.627149   -1.208260
 O    2.792968   -0.087877   -1.110005
 P    3.527252   -0.193645    0.330259
 O    3.397734    1.029364    1.145020
 O    3.026823   -1.576272    0.929587
 O    5.021651   -0.586853   -0.083668
 C   -1.179375    1.464324   -0.031197
 O   -0.936456    2.762031   -0.518339
 C   -2.634963    1.192152    0.377051
 O   -2.969296    1.517878    1.694755
 H   -3.757677   -2.499679   -1.021447
 H   -4.824121   -0.501696    0.652193
 H   -4.594672   -0.380819   -1.112034
 H   -2.648214   -1.895645    1.096940
 H   -0.966443    0.972869   -2.123814
 H    0.411987   -1.084903   -1.810604
 H   -0.396022   -1.198233    0.557407
 H    1.541136    1.433482   -0.468433
 H    1.537073    1.067697   -2.208419
 H    2.050649   -1.608286    0.824042
 H    5.597103    0.180293    0.033129
 H   -0.527239    1.236865    0.823757
 H   -0.960094    3.366146    0.233997
 H   -3.288006    1.775510   -0.281613
 H   -2.584286    0.824548    2.251371
