43 
4r7m_ligand_xtb.xyz
 C   -6.824829   -1.839885   -0.793075
 C    4.824754   -0.208431    0.325901
 C    5.760616   -1.172556    0.034880
 C    3.995131   -2.779802   -0.252941
 C    5.361035   -2.478983   -0.264476
 N    6.282231   -3.429863   -0.613735
 C    3.060913   -1.808058    0.029224
 C    3.460208   -0.502749    0.316062
 C    2.519602    0.586002    0.647763
 O    2.857641    1.578443    1.285084
 N    1.251185    0.436889    0.198756
 C    0.193205    1.380861    0.519514
 C    0.320368    2.619354   -0.395070
 O   -0.400204    2.874589   -1.345161
 N    1.318869    3.420341   -0.014787
 O    1.620161    4.523825   -0.819177
 C   -1.154989    0.738426    0.368703
 C   -1.553696    0.234910   -0.863738
 C   -2.800435   -0.338627   -1.023558
 C   -2.028286    0.653306    1.445824
 C   -3.274388    0.080348    1.297120
 C   -3.672828   -0.415513    0.057695
 N   -4.943820   -0.980715   -0.060666
 N   -5.680488   -1.215922    1.029884
 C   -6.811053   -1.733913    0.608228
 C   -5.607820   -1.346644   -1.186615
 H   -7.610110   -2.219117   -1.413793
 H    5.129267    0.798263    0.568325
 H    6.813169   -0.929648    0.038641
 H    3.677154   -3.790898   -0.463897
 H    7.245685   -3.252643   -0.386039
 H    5.994209   -4.393220   -0.591347
 H    2.016986   -2.086708    0.060846
 H    1.016743   -0.318325   -0.424271
 H    0.353851    1.712751    1.552484
 H    2.069176    3.125326    0.613168
 H    0.912445    4.514989   -1.494063
 H   -0.894971    0.310639   -1.715229
 H   -3.083475   -0.722393   -1.990640
 H   -1.731332    1.041926    2.408539
 H   -3.960370    0.006647    2.125227
 H   -7.573654   -2.012575    1.307915
 H   -5.196454   -1.223261   -2.166646
