70 
4r8y_ligand_dft.xyz
 C    2.806955   -2.019057    1.842423
 C    3.357211   -2.250039   -0.383553
 C    2.017499   -1.507355   -0.319071
 C   -3.473775   -0.650487    0.232113
 N    3.737424   -2.512535    0.908722
 C    0.996426   -2.289569   -1.167455
 C   -4.886901   -0.634297   -0.337725
 C   -1.134255   -1.282221   -0.097567
 C    2.209122   -0.061419   -0.818308
 C    4.927741    4.248549   -0.361174
 C   -7.995970    1.317003    0.711125
 C   -6.876548    2.371499    0.940210
 C    3.703760    5.079396    0.031143
 C    2.427671    4.488183   -0.571537
 C    2.251569    3.017431   -0.181876
 C    4.748575    2.779814    0.029223
 C   -7.305639    0.122052    0.027505
 C   -5.580122    1.729858    0.408242
 C   -2.705865   -1.818810   -1.870030
 C   -0.356810   -1.616931   -1.375268
 C    4.976844   -3.157862    1.266074
 C   -1.358423   -2.492727   -2.142070
 C    3.336804    0.703157   -0.123948
 C   -5.844145    0.220388    0.480928
 C    3.471922    2.166120   -0.564524
 N    1.727549   -1.575431    1.108196
 N   -2.521096   -1.235364   -0.544098
 N    2.885921   -1.968930    3.110057
 O    3.973466   -2.541357   -1.386366
 O   -3.195008   -0.180841    1.328437
 H    1.458597   -2.477699   -2.143591
 H    0.845654   -3.263779   -0.685320
 H   -5.248617   -1.672060   -0.380689
 H   -4.864400   -0.280137   -1.378215
 H   -0.860222   -0.321202    0.348602
 H   -0.996206   -2.055056    0.670660
 H    1.258014    0.464665   -0.677610
 H    2.397468   -0.099985   -1.898218
 H    5.077505    4.318417   -1.447976
 H    5.831478    4.654865    0.107473
 H   -8.821095    1.709022    0.108969
 H   -8.424898    1.004821    1.669144
 H   -6.776760    2.592708    2.007755
 H   -7.093864    3.320225    0.440350
 H    3.611949    5.093550    1.126493
 H    3.830207    6.120015   -0.289182
 H    1.551662    5.065703   -0.254499
 H    2.477713    4.566753   -1.667015
 H    1.342562    2.625065   -0.652443
 H    2.099598    2.944541    0.905773
 H    5.621184    2.194980   -0.287988
 H    4.698605    2.700123    1.125756
 H   -7.768866   -0.838907    0.276430
 H   -7.352442    0.232292   -1.065237
 H   -5.420358    2.012427   -0.642487
 H   -4.689418    2.020395    0.969654
 H   -2.916888   -1.040984   -2.617361
 H   -3.537492   -2.530732   -1.883961
 H   -0.219478   -0.688387   -1.945248
 H    5.482963   -3.423851    0.337116
 H    4.785186   -4.063436    1.849852
 H    5.614459   -2.481268    1.844746
 H   -1.135089   -2.569645   -3.209549
 H   -1.355824   -3.505744   -1.721321
 H    3.188710    0.675567    0.964838
 H    4.288820    0.193372   -0.322972
 H   -5.769765   -0.090230    1.530615
 H    3.569263    2.187704   -1.662037
 H    1.140783   -0.885601    1.554200
 H    3.761177   -2.361177    3.448500
