29 
4ra1_ligand_xtb.xyz
 C   -0.488386    1.734546    0.064582
 O   -0.530614    2.076706   -1.290003
 O    1.626368    0.728916   -0.356334
 C    0.384728    0.478163    0.259037
 C   -0.311114   -0.714317   -0.391407
 C   -2.482438    0.471755   -0.040846
 C   -3.862849    0.460320    0.620626
 O    3.067193   -1.349524   -0.746257
 P    2.884092   -0.119586    0.223751
 O    2.788048   -0.374019    1.660583
 O    4.089510    0.790952   -0.240139
 O    0.438764   -1.884443   -0.152845
 C   -1.729719   -0.849827    0.173482
 O   -2.329701   -1.941816   -0.477992
 O   -4.656632   -0.542451    0.017988
 O   -1.774040    1.545623    0.559343
 H   -0.079205    2.566218    0.660535
 H    0.364245    1.971249   -1.640196
 H    0.541102    0.269720    1.323489
 H   -0.381651   -0.541420   -1.477470
 H   -2.596417    0.645555   -1.119835
 H   -4.308627    1.452257    0.491645
 H   -3.738369    0.268604    1.694188
 H    2.300794   -1.926976   -0.646321
 H    4.490741    1.190961    0.529963
 H   -0.170479   -2.625814   -0.278869
 H   -1.657242   -1.044452    1.257755
 H   -3.290291   -1.821396   -0.436027
 H   -5.548484   -0.494112    0.377286
