58 
4ra5_ligand_xtb.xyz
 C    4.906392    1.158330   -1.397568
 N    3.722066    2.012231   -1.288064
 C    3.376360    2.531476    0.065722
 C    1.898412    2.076519   -0.117417
 C    0.954236    3.235965   -0.438183
 C    2.389467    1.349603   -1.392337
 N    1.486492    1.180135    0.932585
 C    1.221837    1.819371    2.209676
 C    0.544028    0.160980    0.573120
 C   -0.819466    0.424206    0.555153
 C   -1.746672   -0.553447    0.212535
 N   -3.103789   -0.298636    0.078772
 C   -3.672087    1.029684    0.232275
 C   -4.033285    1.313993    1.695557
 C   -4.942658    1.197199   -0.613377
 O   -5.315561    2.281540   -0.996089
 N   -5.619137    0.052006   -0.839149
 N   -5.169040   -1.205801   -0.561715
 C   -3.969675   -1.341120   -0.155979
 C   -3.430176   -2.718147    0.098604
 O   -2.115540   -2.866478   -0.394017
 C   -1.272532   -1.846987   -0.077336
 C    0.085775   -2.101958   -0.070881
 C    1.014611   -1.116291    0.250810
 C    2.448396   -1.459185    0.250976
 C    3.285464   -1.085154    1.300831
 C    4.627500   -1.423331    1.283318
 C    5.156422   -2.139751    0.219980
 C    4.330728   -2.525244   -0.824326
 C    2.988759   -2.188679   -0.809607
 H    5.804068    1.737248   -1.186379
 H    4.832296    0.337546   -0.683726
 H    4.976682    0.745591   -2.402475
 H    3.807254    2.775588   -1.962558
 H    3.886783    1.955394    0.835532
 H    3.561351    3.595403    0.195389
 H    0.809350    3.865935    0.434780
 H    1.352596    3.852729   -1.239983
 H   -0.010809    2.847658   -0.753591
 H    2.484244    0.273101   -1.255097
 H    1.853428    1.568509   -2.313044
 H    0.336834    2.463616    2.219274
 H    1.078469    1.037561    2.952404
 H    2.087447    2.416929    2.494462
 H   -1.157863    1.411745    0.820608
 H   -2.957656    1.775570   -0.131357
 H   -4.451935    2.313157    1.779018
 H   -4.773001    0.595937    2.044155
 H   -3.152911    1.240207    2.330637
 H   -6.519351    0.080324   -1.301041
 H   -4.048393   -3.459433   -0.407249
 H   -3.443957   -2.915264    1.182476
 H    0.410418   -3.105349   -0.294205
 H    2.873554   -0.555129    2.143576
 H    5.261679   -1.142848    2.111244
 H    6.200895   -2.410222    0.213954
 H    4.731434   -3.097511   -1.646862
 H    2.348735   -2.492237   -1.625372
