64 
4rak_ligand_xtb.xyz
 C   -7.025944   -2.640660    0.100863
 S   -6.637567   -1.031014    0.853049
 O   -7.812668   -0.206188    0.780821
 O   -6.049853   -1.266919    2.144146
 C   -5.383432   -0.363497   -0.242051
 C   -4.058349   -0.622094    0.033216
 C   -5.769952    0.373297   -1.344009
 C   -4.790783    0.860588   -2.194963
 C   -3.455814    0.604753   -1.934139
 C   -3.067077   -0.135641   -0.817113
 C   -1.645194   -0.374614   -0.538004
 C   -0.755561   -0.675444   -1.567350
 C    0.589872   -0.837951   -1.311579
 C   -1.157345   -0.290546    0.763470
 C    0.189135   -0.443376    1.023074
 C    1.078937   -0.680295   -0.017696
 N    2.463173   -0.763548    0.202690
 C    3.234631   -1.817386   -0.229845
 C    4.526092   -1.493453    0.051867
 C    5.778640   -2.277417   -0.196113
 C    6.531409   -2.466373    1.127298
 C    6.656285   -1.512479   -1.196697
 O    5.384167   -3.530977   -0.732442
 N    4.568004   -0.254003    0.619339
 C    3.335819    0.172383    0.693292
 C    2.985851    1.505562    1.300354
 C    2.901021    1.290758    2.821369
 C    4.148190    2.484103    1.049342
 C    1.724294    2.094580    0.697067
 C    0.701481    2.605454    1.490511
 C   -0.454356    3.135985    0.947430
 C   -0.620203    3.179440   -0.424104
 C    0.390025    2.708656   -1.240424
 C    1.545772    2.184496   -0.684565
Cl    2.752440    1.618162   -1.794599
 H   -7.784301   -3.116403    0.710053
 H   -7.397616   -2.461993   -0.899503
 H   -6.120012   -3.232194    0.088039
 H   -3.815011   -1.200844    0.910466
 H   -6.818286    0.568178   -1.504233
 H   -5.068269    1.445802   -3.058614
 H   -2.696176    1.005443   -2.588725
 H   -1.123430   -0.791507   -2.575914
 H    1.276902   -1.059514   -2.114210
 H   -1.835564   -0.075553    1.574958
 H    0.554504   -0.376355    2.035150
 H    2.807434   -2.696552   -0.662369
 H    6.715227   -1.495824    1.577384
 H    5.930093   -3.064746    1.808158
 H    7.481547   -2.971238    0.957907
 H    6.141978   -1.439045   -2.152396
 H    6.843353   -0.511797   -0.819688
 H    7.605408   -2.026111   -1.344153
 H    6.183473   -4.043858   -0.897484
 H    2.053804    0.669567    3.099705
 H    3.809755    0.788449    3.144712
 H    2.834080    2.241696    3.344152
 H    5.063199    2.060396    1.451106
 H    4.295068    2.660083   -0.010934
 H    3.938988    3.433791    1.536898
 H    0.798990    2.582447    2.563111
 H   -1.227595    3.511737    1.599962
 H   -1.523405    3.580585   -0.857162
 H    0.293355    2.745388   -2.314361
