90 
4rcp_ligand_dft.xyz
 C   -1.783684   -0.185954    2.046546
 O   -2.367796   -0.974021    2.789310
 C   -0.559347    0.579739    2.483223
 C   -2.981995   -1.971033   -0.395375
 N   -2.194171    0.043724    0.769232
 O   -3.193721   -2.231889   -1.578559
 C   -3.363512   -0.601972    0.196689
 C   -4.017604    0.287672   -0.868163
 C   -4.678031    1.507720   -0.313452
 C   -2.637173    3.019093   -0.181189
 C   -2.360623    4.447767   -0.644189
 C   -0.878924    4.655827   -0.972597
 C    0.059914    4.504080    0.226226
 C    1.530200    4.649469   -0.161325
 C    2.511932    4.527468    1.008483
 C    2.379006    3.249387    1.845786
 C    2.449014    1.938458    1.046261
 C    3.697037    1.798844    0.207473
 C    4.952457    1.687577    0.812904
 C    6.103818    1.537632    0.047995
 C    6.020428    1.496363   -1.342908
 C    4.777299    1.607990   -1.957345
 C    3.626503    1.758092   -1.185966
 N   -4.052289    2.712107   -0.044190
 C   -5.987805    1.703961    0.042722
 C   -5.010881    3.539121    0.461294
 N   -6.190320    2.969342    0.525262
 N   -2.401693   -2.792022    0.512634
 C   -1.720778   -4.065608    0.343345
 C   -0.234580   -3.984091    0.711931
 O    0.352910   -5.001786    1.070564
 C   -1.862541   -4.740715   -1.029491
 O   -1.370033   -3.981308   -2.111274
 N    0.371170   -2.783099    0.600347
 C    1.805240   -2.664631    0.818984
 C    2.435724   -1.575773   -0.051074
 C    3.950150   -1.615562    0.010262
 O    2.048432   -1.829857   -1.418203
 P    0.821947   -1.068720   -2.103008
 O   -0.098884   -0.427886   -1.130191
 O    1.434952    0.018485   -3.101384
 O    0.262945   -2.157229   -3.096719
 C    2.061258   -2.406391    2.314772
 O    2.303202   -1.292515    2.761690
 N    1.968145   -3.520418    3.073012
 H   -0.758703    1.025255    3.460833
 H   -0.279614    1.364195    1.776023
 H    0.286786   -0.105822    2.600897
 H   -1.496545    0.364969    0.105464
 H   -4.066471   -0.763382    1.020709
 H   -3.273619    0.529452   -1.636606
 H   -4.777572   -0.308665   -1.378837
 H   -2.216835    2.326835   -0.917111
 H   -2.141447    2.815104    0.772719
 H   -2.664017    5.163478    0.129704
 H   -2.971318    4.655602   -1.530139
 H   -0.580466    3.942871   -1.754332
 H   -0.748859    5.655540   -1.405300
 H   -0.200908    5.245435    0.995051
 H   -0.088839    3.520669    0.689367
 H    1.771477    3.895721   -0.921744
 H    1.680939    5.622613   -0.647009
 H    3.532281    4.587475    0.610162
 H    2.388476    5.390270    1.676311
 H    3.172747    3.247100    2.602882
 H    1.434245    3.260648    2.404601
 H    1.573462    1.850635    0.389656
 H    2.393889    1.099455    1.751550
 H    5.024432    1.703182    1.897936
 H    7.069174    1.445215    0.537184
 H    6.919549    1.377581   -1.940192
 H    4.698643    1.576992   -3.040617
 H    2.658548    1.826707   -1.675113
 H   -6.798728    0.991179   -0.036173
 H   -4.793424    4.555051    0.760014
 H   -2.406020   -2.426867    1.467171
 H   -2.141894   -4.773166    1.066867
 H   -2.917163   -4.983391   -1.199114
 H   -1.292982   -5.671314   -0.983074
 H   -2.066382   -3.297772   -2.246116
 H   -0.148760   -1.967287    0.288782
 H    2.242812   -3.629402    0.542538
 H    2.063935   -0.595899    0.255665
 H    4.368475   -0.891213   -0.691329
 H    4.287313   -1.353619    1.015344
 H    4.317764   -2.613977   -0.249173
 H    1.997125   -0.379327   -3.780116
 H   -0.127013   -2.954167   -2.649005
 H    1.973589   -3.411711    4.076624
 H    1.595755   -4.372035    2.665320
