55 
4re9_ligand_dft.xyz
 C   -3.184145    0.777646   -0.727027
 N   -2.764544    0.125417    0.513449
 C   -1.785671   -0.785478    0.727368
 C   -1.780547   -0.938223    2.096737
 N   -2.724408   -0.131921    2.637113
 N   -3.316702    0.515777    1.678674
 C   -0.925379   -1.398896   -0.329129
 N    0.466490   -1.291320    0.065351
 C    1.418391   -1.847802   -0.747179
 C    2.836340   -1.620867   -0.327272
 O    1.122253   -2.501089   -1.735892
 C    3.197684   -1.389908    1.000971
 C    4.528620   -1.189240    1.344887
 C    5.483542   -1.213410    0.340514
 C    5.157214   -1.455198   -0.987092
 C    3.825199   -1.669951   -1.311826
 F    6.766553   -0.995285    0.662685
 C   -2.486749    2.141332   -0.870499
 C   -0.981654    2.039581   -0.847013
 C   -0.280939    2.213928    0.322279
 C    1.135324    2.111059    0.360431
 C    1.838633    1.813307   -0.840050
 C    1.093477    1.597528   -2.028706
 C   -0.271593    1.712063   -2.032249
 C    1.873055    2.300397    1.559847
 C    3.241947    2.225821    1.555390
 C    3.941582    1.953115    0.356064
 C    3.255809    1.744179   -0.811227
 C   -4.710682    0.909590   -0.751730
 C   -5.357478   -0.450948   -0.615637
 N   -5.971822   -0.688663    0.570284
 O   -5.344317   -1.298599   -1.502799
 O   -6.373690   -2.001065    0.783126
 H   -2.888018    0.114607   -1.543488
 H   -1.158716   -1.578174    2.704402
 H   -1.166187   -2.458624   -0.455349
 H   -1.086610   -0.924575   -1.303775
 H    0.721893   -0.464399    0.589422
 H    2.441880   -1.383398    1.779918
 H    4.830430   -1.011395    2.370832
 H    5.939429   -1.478005   -1.737581
 H    3.530653   -1.879000   -2.334986
 H   -2.834572    2.787615   -0.057556
 H   -2.822646    2.590274   -1.812330
 H   -0.813678    2.440972    1.243870
 H    1.624322    1.349751   -2.943857
 H   -0.823759    1.557257   -2.956360
 H    1.334172    2.517373    2.478557
 H    3.796298    2.377660    2.476612
 H    5.025229    1.892714    0.369106
 H    3.788164    1.514813   -1.729876
 H   -5.006335    1.326358   -1.718347
 H   -5.041669    1.590837    0.036253
 H   -5.580921   -0.282131    1.414202
 H   -6.137289   -2.419711   -0.070510
