119 
4ret_ligand_xtb.xyz
 C   -3.103225    1.229624   -1.500632
 C   -2.618179    1.910206   -0.226540
 C   -1.773339    0.937080    0.592702
 O   -0.610200    0.613813   -0.165868
 C   -2.612429   -0.304641    0.905955
 C   -3.116102   -0.987723   -0.370564
 C   -3.895433   -2.258849   -0.027437
 C   -5.220625   -1.933446    0.648908
 C   -6.069616   -1.007039   -0.223574
 C   -5.306156    0.270150   -0.597093
 C   -3.943696   -0.041380   -1.268826
 C   -6.214475    1.152281   -1.454790
 C   -7.481434    1.513469   -0.682494
 O   -8.313572    2.391589   -1.419754
 C   -8.318447    0.271880   -0.311066
 C   -7.431701   -0.741888    0.461819
 O   -8.096743   -1.982994    0.613166
 C   -7.343561   -0.154977    1.877914
 C   -8.623697    0.665399    2.095110
 C   -9.364621    0.740431    0.743055
 C   -8.960138   -0.320631   -1.565076
 C   -4.133559   -0.682397   -2.651999
 C    0.478653    0.151428    0.588258
 C    5.099630    0.830366    0.095891
 C    9.909025   -0.983738   -0.117717
 C  -10.620179   -0.061663    0.748431
 C  -11.874553    0.464718    0.111415
 O  -12.847188   -0.536444    0.305168
 C  -10.899169   -1.257912    1.273583
 C  -12.307365   -1.579879    0.996415
 O  -12.937662   -2.558646    1.285418
 C    1.489416   -0.463315   -0.379884
 C    6.075858    0.741080    1.267453
 C   10.977638   -1.663453   -0.974374
 C    2.133560    0.655294   -1.199384
 O    2.977660    0.189241   -2.211758
 C    7.498174    0.539564    0.748812
 O    7.908992    1.708468    0.089439
 C   12.282646   -1.761545   -0.189470
 O   12.105981   -2.663312    0.874610
 C    2.835508    1.599220   -0.200850
 O    3.817422    0.941822    0.597204
 C    7.540959   -0.676781   -0.204918
 O    8.777226   -0.790439   -0.894256
 C   12.682565   -0.373451    0.345672
 O   13.833840   -0.563696    1.138415
 C    1.802134    2.166845    0.791655
 O    1.034346    1.144833    1.409126
 C    6.460370   -0.521388   -1.288785
 O    5.191610   -0.351200   -0.689616
 C   11.508615    0.217209    1.150226
 O   10.361566    0.285168    0.325563
 C    0.935801    3.258334    0.161529
 C    6.387000   -1.737935   -2.198007
 C   11.789881    1.627826    1.653197
 H   -2.215967    0.936659   -2.064185
 H   -3.657003    1.944583   -2.110478
 H   -3.454274    2.253231    0.384567
 H   -2.017717    2.781045   -0.491956
 H   -1.453768    1.413269    1.531176
 H   -2.011913   -1.022155    1.469316
 H   -3.438071    0.003421    1.545769
 H   -2.222826   -1.271026   -0.938188
 H   -3.293590   -2.884937    0.634794
 H   -4.079552   -2.831894   -0.937330
 H   -5.033399   -1.460544    1.612135
 H   -5.777954   -2.851804    0.841397
 H   -6.301395   -1.546166   -1.150290
 H   -5.096566    0.819206    0.324929
 H   -5.702053    2.080580   -1.717055
 H   -6.488378    0.647319   -2.380000
 H   -7.178182    2.015838    0.250412
 H   -7.778651    3.130132   -1.728283
 H   -8.226088   -2.378909   -0.255361
 H   -7.272928   -0.973515    2.590637
 H   -6.458941    0.470467    1.979692
 H   -8.382461    1.667443    2.449260
 H   -9.260700    0.196713    2.842245
 H   -9.638995    1.770167    0.500333
 H   -8.205893   -0.754093   -2.218032
 H   -9.467514    0.469827   -2.111280
 H   -9.683471   -1.090089   -1.307753
 H   -3.176687   -1.040511   -3.024791
 H   -4.512223    0.048629   -3.362167
 H   -4.818835   -1.523364   -2.629530
 H    0.143294   -0.610693    1.311281
 H    5.362188    1.698070   -0.540704
 H    9.689779   -1.614060    0.766006
 H  -11.753199    0.653011   -0.960681
 H  -12.213107    1.393197    0.585945
 H  -10.242617   -1.929119    1.789927
 H    2.263743   -0.980777    0.187780
 H    0.977391   -1.166317   -1.035375
 H    6.025861    1.663535    1.843509
 H    5.776919   -0.095722    1.897784
 H   10.635905   -2.661352   -1.242426
 H   11.121170   -1.073252   -1.878621
 H    1.349674    1.217845   -1.716603
 H    3.747663   -0.232431   -1.787936
 H    8.164645    0.343412    1.605457
 H    8.814395    1.549455   -0.217703
 H   13.088128   -2.122209   -0.849677
 H   12.887454   -2.588375    1.438037
 H    3.311217    2.426450   -0.747978
 H    7.352925   -1.592008    0.378013
 H   12.897065    0.287960   -0.506894
 H   14.143622    0.291475    1.453522
 H    2.360424    2.594894    1.633450
 H    6.714389    0.375710   -1.874541
 H   11.306279   -0.455191    2.001001
 H    0.367712    2.865328   -0.675673
 H    0.241264    3.636747    0.907574
 H    1.563878    4.075687   -0.182379
 H    7.364116   -1.915496   -2.634880
 H    5.658084   -1.565550   -2.984863
 H    6.082769   -2.607423   -1.621499
 H   10.884095    2.037055    2.091645
 H   12.569872    1.617920    2.410132
 H   12.088359    2.266836    0.825427
