33 
4rfd_ligand_dft.xyz
 C    0.168232   -0.878512   -0.788770
 C    1.527152   -1.051141   -0.602893
 C    2.269808   -0.040552    0.008776
 S    4.012895   -0.276991    0.280775
 O    4.445779    0.772480    1.189017
 O    4.225345   -1.687579    0.558868
 N    4.680145    0.003477   -1.227749
 C    1.662213    1.130331    0.433957
 C    0.292444    1.309808    0.249042
 C   -0.450509    0.299987   -0.358428
 O   -1.797567    0.362260   -0.569880
 C   -2.502874    1.497240   -0.115062
 C   -3.975863    1.242759   -0.400024
 C   -4.463957   -0.027593    0.305681
 C   -5.908355   -0.333553   -0.049749
 N   -6.348746   -1.625791    0.614793
 H   -0.434591   -1.646757   -1.261048
 H    2.013257   -1.969262   -0.915036
 H    5.152370    0.902026   -1.257884
 H    5.304703   -0.758755   -1.473991
 H    2.254596    1.896140    0.922904
 H   -0.167257    2.231630    0.585448
 H   -2.169082    2.400542   -0.640769
 H   -2.338970    1.645723    0.962131
 H   -4.111509    1.142876   -1.482916
 H   -4.553935    2.113743   -0.071479
 H   -4.363302    0.096117    1.392307
 H   -3.814791   -0.857768    0.004162
 H   -6.047248   -0.481614   -1.122989
 H   -6.600722    0.437885    0.294697
 H   -7.319471   -1.866995    0.389663
 H   -5.755602   -2.408380    0.318536
 H   -6.272763   -1.559032    1.635334
