49 
4rhu_ligand_xtb.xyz
 O   -3.447203    3.645302   -0.597699
 P   -2.670549    2.289857   -0.210328
 O   -3.189770    1.907213    1.221012
 O   -2.873772    1.242529   -1.243129
 C   -0.989198    2.974848   -0.017264
 C    0.028599    1.857205   -0.101636
 O   -0.329551    0.921143    0.887052
 C    0.564796   -0.155961    1.057928
 C    0.411464   -1.285341    0.018806
 O   -0.675583   -2.137893    0.299201
 C   -1.911090   -1.447447    0.284681
 C   -3.084439   -2.403165    0.204709
 P   -4.548577   -1.319632    0.095078
 O   -4.652936   -0.275122    1.143341
 O   -5.762111   -2.348844    0.129877
 O   -4.615453   -0.727606   -1.369767
 C    1.672128   -2.165842   -0.021520
 N    2.753702   -1.501376   -0.689015
 C    3.762180   -0.802035   -0.105205
 N    3.981858   -0.669258    1.223788
 C    5.031425    0.047601    1.510235
 N    5.314393    0.301455    2.814112
 N    5.837597    0.612214    0.568383
 C    5.676354    0.531225   -0.841291
 O    6.468961    1.100777   -1.551359
 C    4.523971   -0.265495   -1.145592
 N    3.972776   -0.633072   -2.343315
 C    2.938737   -1.351388   -2.040003
 H   -4.291901    3.464183   -1.010469
 H   -3.720394    1.070144    1.241887
 H   -0.831265    3.710756   -0.802327
 H   -0.946184    3.460190    0.954892
 H   -0.005259    1.408743   -1.104248
 H    1.049816    2.230372    0.077430
 H    1.599996    0.209122    1.043903
 H    0.350366   -0.566119    2.048489
 H    0.263669   -0.829359   -0.976632
 H   -1.935107   -0.775181   -0.582772
 H   -2.014790   -0.832767    1.186488
 H   -3.024038   -3.038423   -0.675794
 H   -3.148158   -3.026046    1.093609
 H   -6.572454   -1.902757    0.380256
 H   -4.009503    0.045899   -1.442902
 H    1.423628   -3.089896   -0.549260
 H    1.989277   -2.402741    0.995805
 H    6.242105    0.592825    3.069108
 H    4.802812   -0.245880    3.485091
 H    6.626601    1.174441    0.864686
 H    2.285159   -1.805843   -2.757479
