37 
4rio_ligand_xtb.xyz
 C   -1.064502    1.434562    0.073116
 C   -2.357495    1.688135    0.590645
 N   -3.335926    0.839165    0.613924
 N   -3.083943   -0.367018    0.105995
 C   -1.850021   -0.776649   -0.388081
 C   -0.778985    0.152034   -0.386695
 C   -3.954595   -1.389287    0.035257
 C   -3.302166   -2.476336   -0.512838
 C   -1.984703   -2.104852   -0.776375
 C   -0.133348    2.591048    0.024020
 N    0.501447    2.744068   -1.168883
 O    0.017801    3.375312    0.938081
 N    0.446751   -0.253994   -0.852248
 C    1.681537    0.097556   -0.190935
 C    2.835255    0.369043   -1.180985
 C    4.013745   -0.502068   -0.721096
 C    3.703869   -0.846818    0.735961
 C    2.191133   -1.037021    0.736508
 C    1.522076   -1.063720    2.098048
 F    1.915675   -2.257636    0.110799
 H   -2.574629    2.664256    0.996293
 H   -4.963965   -1.279374    0.375110
 H   -3.737698   -3.438717   -0.696837
 H   -1.222850   -2.729544   -1.200382
 H    0.351555    2.112244   -1.933878
 H    1.091885    3.547389   -1.302930
 H    0.448980   -1.220232   -1.158097
 H    1.505734    0.972755    0.436426
 H    3.100046    1.424884   -1.162223
 H    2.527658    0.114500   -2.194398
 H    4.968643    0.008640   -0.827309
 H    4.050094   -1.421713   -1.305477
 H    4.217413   -1.745760    1.072209
 H    3.958832   -0.020075    1.398094
 H    0.449143   -1.204619    1.980174
 H    1.916139   -1.887868    2.688044
 H    1.700424   -0.129846    2.622533
