57 
4rj3_ligand_xtb.xyz
 C    4.082455   -1.626488   -0.397931
 C    4.215099   -0.672535    0.791999
 C    3.741644    3.243405   -0.144885
 C    1.849821   -0.826674    1.241479
 C    1.621232   -1.772010    0.060169
 C    2.810699    1.288592    0.502287
 C    2.501341    3.820766   -0.293084
 C    1.392501    2.988634   -0.046279
 C    2.900135   -2.579449   -0.205733
 C    1.967223   -4.489114   -1.277201
 O    2.817385   -3.376577   -1.372839
 N    2.975696    0.037578    0.997463
 N    3.917908    1.987128    0.236353
 N    1.557050    1.734636    0.362343
 N    0.139913    3.487046   -0.240434
 C   -1.098001    2.865827   -0.228729
 C   -1.269179    1.504506   -0.029178
 C   -2.577713    1.044067   -0.071499
 C   -3.652125    1.940754   -0.318146
 C   -4.839991    1.157102   -0.313610
 C   -4.458946   -0.125209   -0.074011
 N   -3.096279   -0.206173    0.080746
 C   -2.348498   -1.407469    0.343426
 C   -2.904395   -2.209041    1.544231
 C   -3.396259   -3.538195    0.968339
 C   -2.473851   -3.770814   -0.224947
 C   -2.368686   -2.383793   -0.852642
 C   -3.339134    3.284103   -0.505068
 N   -2.102763    3.726733   -0.460390
 H    4.996757   -2.205428   -0.525835
 H    3.913541   -1.052838   -1.310031
 H    4.998554    0.062382    0.611630
 H    4.445582   -1.237557    1.701903
 H    4.650712    3.797949   -0.342374
 H    2.064968   -1.413123    2.142963
 H    0.975388   -0.203619    1.426198
 H    1.379890   -1.191970   -0.832783
 H    0.788065   -2.441706    0.280678
 H    2.376245    4.843979   -0.605685
 H    3.092764   -3.232891    0.665173
 H    2.194855   -5.088842   -0.386732
 H    0.909733   -4.201506   -1.249701
 H    2.146452   -5.087196   -2.168880
 H    0.077291    4.467614   -0.480501
 H   -0.412802    0.876579    0.130756
 H   -5.838837    1.512294   -0.469410
 H   -5.067334   -1.006131    0.002470
 H   -1.324276   -1.091017    0.551888
 H   -3.695032   -1.658653    2.052153
 H   -2.106452   -2.388003    2.265240
 H   -4.427061   -3.447021    0.622695
 H   -3.352463   -4.345228    1.697759
 H   -2.861301   -4.513784   -0.920126
 H   -1.494364   -4.103799    0.124056
 H   -1.489497   -2.270139   -1.484867
 H   -3.251552   -2.184879   -1.462338
 H   -4.101800    4.026716   -0.700085
