24 
4rkx_ligand_xtb.xyz
 N    5.417544    0.119206    0.225117
 C    4.415509   -0.425917    0.286413
 C    3.134243   -1.101889    0.313461
 N    2.170752   -0.451905   -0.544706
 C    1.137926    0.259782   -0.017796
 O    0.849891    0.278744    1.150451
 O    0.483109    0.912499   -0.996674
 C   -0.691245    1.614759   -0.580222
 C   -2.150665   -0.341383   -1.140473
 C   -3.175193   -1.222390   -0.846049
 C   -3.882719   -1.091782    0.337111
 C   -3.557838   -0.081491    1.225781
 C   -2.527827    0.796231    0.935582
 C   -1.821118    0.674342   -0.251681
 H    2.726940   -1.067114    1.331283
 H    3.276061   -2.147943    0.013382
 H    2.391378   -0.318155   -1.518864
 H   -0.943933    2.250602   -1.433281
 H   -0.450547    2.236698    0.287795
 H   -1.593284   -0.440308   -2.061105
 H   -3.422794   -2.011197   -1.541317
 H   -4.683112   -1.779300    0.567536
 H   -4.103280    0.019409    2.152324
 H   -2.265936    1.574684    1.636386
