39 
4rlk_ligand_xtb.xyz
 O    7.474235   -0.170789    0.427430
 C    6.607328    0.049999   -0.374236
 O    6.914118    0.541613   -1.590711
 C    5.164591   -0.180346   -0.088502
 C    4.783632   -0.282498    1.250044
 C    3.465696   -0.488188    1.591566
 C    2.487561   -0.613148    0.600296
 C    1.105345   -0.808075    0.969735
 N    0.194324   -0.873640    0.080218
 N   -1.021137   -1.191312    0.121657
 C   -2.100646   -0.515019    0.026291
 C   -3.428727   -1.102257   -0.103507
 C   -3.824638   -2.424261   -0.182555
 C   -5.180202   -2.700676   -0.289402
 C   -6.116660   -1.677340   -0.315117
 C   -5.726591   -0.347544   -0.235503
 C   -4.378957   -0.059595   -0.129322
 C   -3.669589    1.208679   -0.030780
 C   -4.121528    2.514501   -0.023369
 C   -3.190395    3.540004    0.073794
 C   -1.833033    3.269356    0.157697
 C   -1.365906    1.962048    0.152251
 C   -2.288211    0.936891    0.061886
 C    2.875613   -0.533515   -0.741492
 C    4.192967   -0.317488   -1.081949
 H    6.129558    0.720769   -2.125219
 H    5.548269   -0.190646    2.006200
 H    3.180706   -0.556125    2.631203
 H    0.870325   -0.861289    2.034013
 H   -3.093382   -3.217957   -0.162314
 H   -5.512372   -3.726397   -0.352946
 H   -7.166067   -1.919743   -0.398158
 H   -6.462580    0.442352   -0.255797
 H   -5.175942    2.736382   -0.093358
 H   -3.527682    4.566116    0.081585
 H   -1.129239    4.085526    0.228124
 H   -0.306747    1.755769    0.211919
 H    2.123287   -0.645919   -1.507229
 H    4.456835   -0.289940   -2.131863
