39 
4rlk_ligand_dft.xyz
 O    7.192560    0.215632    1.014240
 C    6.503233    0.215609    0.028146
 O    7.021734    0.580278   -1.164884
 C    5.056377   -0.179433    0.038812
 C    4.619353   -1.012551    1.068713
 C    3.291017   -1.408920    1.127744
 C    2.372561   -0.963470    0.172257
 C    0.969846   -1.390248    0.264309
 N    0.093389   -0.941107   -0.548879
 N   -1.169552   -1.440141   -0.412157
 C   -2.112949   -0.593511   -0.224825
 C   -3.529833   -1.011846   -0.147971
 C   -4.090385   -2.274459   -0.249282
 C   -5.476938   -2.390720   -0.145043
 C   -6.271400   -1.261862    0.057280
 C   -5.702135    0.008903    0.159255
 C   -4.323975    0.126052    0.055057
 C   -3.436558    1.304156    0.116584
 C   -3.732735    2.645599    0.295655
 C   -2.683302    3.566884    0.312308
 C   -1.364269    3.148948    0.154193
 C   -1.059627    1.797353   -0.021569
 C   -2.102056    0.879516   -0.044821
 C    2.807267   -0.106868   -0.846072
 C    4.137292    0.277252   -0.912829
 H    6.403238    0.371783   -1.877139
 H    5.335486   -1.340814    1.814327
 H    2.959401   -2.067680    1.925966
 H    0.698463   -2.092137    1.058893
 H   -3.459428   -3.143624   -0.406194
 H   -5.942862   -3.368357   -0.221518
 H   -7.348743   -1.372844    0.136669
 H   -6.329689    0.881587    0.315831
 H   -4.758949    2.978833    0.420689
 H   -2.898942    4.621874    0.453182
 H   -0.561984    3.880051    0.173242
 H   -0.032264    1.473888   -0.138114
 H    2.089446    0.249214   -1.577673
 H    4.440912    0.971397   -1.693171
