71 
4rn6_ligand_xtb.xyz
 S   -0.529639   -1.694832   -1.087239
 O   -0.286413   -2.849093   -1.893821
 O   -0.335590   -0.393629   -1.692158
 C   -3.978800    1.213618   -1.588555
 C   -4.932068    1.357504   -0.402886
 C   -5.492786   -0.025151   -0.069854
 C   -4.402457   -1.052148    0.075462
 C   -4.616851   -2.211558    0.794586
 C   -3.638672   -3.191703    0.909896
 C   -2.414466   -2.987480    0.307254
 C   -2.171232   -1.820044   -0.394744
 C   -3.155687   -0.840100   -0.550966
 C   -6.045628    2.350584   -0.712252
 N   -2.902714    0.318534   -1.227357
 N    0.546479   -1.767896    0.169592
 C    0.725176   -0.613141    1.024397
 C    2.148953   -0.702896    1.621761
 O    2.301841   -1.032531    2.784224
 C   -0.305400   -0.502276    2.155035
 C   -0.340588    0.911606    2.747988
 C   -1.395748    1.827997    2.105932
 N   -1.249138    2.033041    0.684828
 C   -0.222265    2.733068    0.113740
 N   -0.122680    2.579867   -1.243167
 N    0.579250    3.548378    0.704723
 N    3.183449   -0.464480    0.792612
 C    3.043313    0.015167   -0.564921
 C    4.187888   -0.435419   -1.478038
 C    5.560235   -0.183552   -0.859919
 C    5.593081   -0.881862    0.497689
 C    4.501782   -0.314337    1.391945
 C    2.835089    1.539166   -0.604473
 O    2.648101    2.054769    0.590240
 O    2.770543    2.154611   -1.639798
 C    6.668094   -0.687096   -1.778678
 H   -4.531666    0.843060   -2.463444
 H   -3.537120    2.179364   -1.844904
 H   -4.355065    1.722498    0.453243
 H   -6.170368   -0.338819   -0.870852
 H   -6.079393    0.017163    0.850134
 H   -5.576953   -2.360013    1.267000
 H   -3.834920   -4.096581    1.461425
 H   -1.631390   -3.727667    0.356379
 H   -6.722552    2.438322    0.133847
 H   -5.630857    3.332714   -0.924165
 H   -6.618324    2.024878   -1.577941
 H   -2.095050    0.294224   -1.836670
 H    0.563191   -2.654172    0.646529
 H    0.641492    0.255774    0.371491
 H   -0.018960   -1.211758    2.933839
 H   -1.293894   -0.779524    1.780723
 H   -0.569776    0.852392    3.812766
 H    0.649377    1.359941    2.650800
 H   -1.367384    2.801263    2.609075
 H   -2.389051    1.400493    2.267573
 H   -1.709636    1.365722    0.080431
 H    0.696164    3.020930   -1.640575
 H   -0.287280    1.652944   -1.612583
 H    0.369475    3.710779    1.681864
 H    2.124859   -0.398559   -0.998259
 H    4.076599   -1.502162   -1.682408
 H    4.083683    0.107876   -2.418516
 H    5.688374    0.893887   -0.707362
 H    6.559283   -0.735160    0.982611
 H    5.439141   -1.953921    0.359714
 H    4.686311    0.752487    1.567478
 H    4.472843   -0.824520    2.356077
 H    2.074033    2.908536    0.573915
 H    7.643917   -0.501251   -1.336306
 H    6.565443   -1.756880   -1.947481
 H    6.623522   -0.181754   -2.740122
