13 
4rpn_ligand_dft.xyz
 O   -0.022075   -2.947719    0.000334
 C    0.016498   -1.609135   -0.000014
 C   -1.200936   -0.917655   -0.000053
Cl   -2.657146   -1.843273   -0.000183
 C   -1.219148    0.477799    0.000123
Cl   -2.729759    1.311143    0.000106
 C   -0.018657    1.202031    0.000103
Cl   -0.042631    2.929752   -0.000036
 C    1.199773    0.516709    0.000009
Cl    2.692432    1.383129   -0.000111
 C    1.209268   -0.878936    0.000094
Cl    2.700313   -1.772855    0.000064
 H    0.881255   -3.297358   -0.001539
