45 
4rr6_ligand_xtb.xyz
 O   -0.826686    2.618095   -1.099219
 C    0.307170    3.017833   -0.366112
 C    1.054494    1.780157    0.151254
 O    0.352771    1.127825    1.198136
 C   -0.416248    0.077763    0.693052
 N   -1.834778    0.289673    0.803711
 C   -2.738691   -0.545594    0.210721
 N   -2.502685   -1.629602   -0.540411
 C   -3.625256   -2.205501   -0.950898
 N   -4.865349   -1.837410   -0.709468
 C   -5.108033   -0.750686    0.034669
 N   -6.375666   -0.392946    0.257381
 C   -4.001961   -0.037592    0.540075
 N   -3.853286    1.087194    1.312981
 C   -2.575038    1.245241    1.446774
 C   -0.044637   -0.117475   -0.805351
 O    0.162437   -1.459867   -1.123840
 C    1.235376    0.717788   -0.946232
 N    2.350450   -0.180708   -0.705761
 N    5.937678   -0.240116   -0.393473
 C    4.644418   -0.947797   -0.307664
 C    4.497065   -1.494340    1.127035
 O    5.779502   -1.936823    1.513284
 C    3.603585    0.179646   -0.568303
 O    4.058171    1.319889   -0.584943
 H   -1.357672    3.394218   -1.309147
 H    0.993896    3.600699   -0.995055
 H    0.023247    3.620703    0.504447
 H    2.009078    2.110423    0.569443
 H   -0.166248   -0.837190    1.259762
 H   -3.505667   -3.088754   -1.563412
 H   -7.116981   -0.954892   -0.122703
 H   -6.572406    0.410706    0.826560
 H   -2.111067    2.033144    2.004547
 H   -0.828786    0.329005   -1.425874
 H   -0.731759   -1.877462   -1.060996
 H    1.331678    1.179318   -1.930844
 H    2.056582   -1.154749   -0.745167
 H    6.469717   -0.435200   -1.242497
 H    5.583447    0.790271   -0.402368
 H    6.501092   -0.490218    0.434280
 H    4.576967   -1.751860   -1.040931
 H    4.150298   -0.695430    1.797845
 H    3.764457   -2.306167    1.140723
 H    5.732547   -2.418751    2.345192
