45 
4rsc_ligand_xtb.xyz
 O    3.598221   -1.448495   -1.394326
 C    3.961893   -0.180965   -0.832007
 C    4.786188   -0.465640    0.437856
 C    3.949059   -1.159557    1.503513
 N    3.508788   -2.479602    0.968948
 C    2.760238    0.684651   -0.520579
 C    1.507346    0.128236   -0.330038
 C    0.402474    0.929783   -0.025660
 C    0.581253    2.305649    0.093720
 C    1.837720    2.854374   -0.095223
 C    2.926501    2.059719   -0.400517
 O   -0.758835    0.267463    0.139957
 C   -1.951530    1.005724    0.366080
 C   -3.123790    0.025463    0.413628
 C   -4.408752    0.752897    0.810420
 C   -5.580901   -0.222809    0.866372
 C   -5.763019   -0.922371   -0.476881
 C   -4.481815   -1.647077   -0.876713
 C   -3.313727   -0.667642   -0.936352
 H    3.045717   -1.298336   -2.170390
 H    4.607102    0.346155   -1.546368
 H    5.153961    0.480444    0.830373
 H    5.646191   -1.081461    0.170765
 H    4.515791   -1.293818    2.425246
 H    3.061161   -0.560622    1.715167
 H    4.261971   -3.170715    1.024907
 H    3.321250   -2.282505   -0.070259
 H    2.681005   -2.841801    1.446941
 H    1.328150   -0.932237   -0.436957
 H   -0.248227    2.951869    0.327034
 H    1.965151    3.921671   -0.006703
 H    3.898065    2.501729   -0.555425
 H   -2.100925    1.729456   -0.444748
 H   -1.876540    1.548967    1.317347
 H   -2.895277   -0.733972    1.169257
 H   -4.621077    1.532854    0.075647
 H   -4.280064    1.234353    1.782353
 H   -6.491978    0.315103    1.132554
 H   -5.394467   -0.968903    1.642067
 H   -6.588503   -1.633089   -0.415545
 H   -6.014393   -0.182811   -1.240043
 H   -4.611722   -2.124955   -1.849237
 H   -4.264420   -2.429214   -0.145478
 H   -2.396118   -1.191761   -1.210673
 H   -3.513230    0.086462   -1.701242
