34 
4rsk_ligand_xtb.xyz
 N    1.946472   -0.147511   -0.563678
 C    2.352538   -1.372378   -0.077229
 N    3.667180   -1.449835    0.270384
 C    4.636457   -0.439657    0.205102
 C    4.112741    0.794131   -0.340035
 C    2.820508    0.886346   -0.698067
 O    1.592186   -2.317351    0.030438
 O    5.764360   -0.656829    0.576732
 P   -3.658965   -0.440197    0.169694
 O   -3.641613   -1.859216   -0.517526
 O   -3.588660   -0.352942    1.629534
 O   -4.987964    0.143776   -0.468947
 O    0.895421    2.096419    1.319386
 C    0.083848    2.858201    0.452763
 C   -0.654500    1.925401   -0.515797
 O    0.237848    1.255187   -1.398243
 C   -1.425991    0.817341    0.202876
 O   -2.531893    0.451558   -0.575097
 C   -0.391314   -0.315814    0.277759
 O   -1.004383   -1.562948    0.219813
 C    0.529127   -0.021770   -0.938002
 H    3.975444   -2.346694    0.631788
 H    4.791163    1.621210   -0.452706
 H    2.390273    1.779368   -1.123772
 H   -2.809094   -2.294159   -0.319680
 H   -5.519889    0.534005    0.222831
 H    1.305804    2.684398    1.963073
 H   -0.665339    3.428396    1.015922
 H    0.695650    3.556600   -0.134311
 H   -1.325703    2.518625   -1.142899
 H   -1.759810    1.097109    1.204801
 H    0.190310   -0.197215    1.201772
 H   -0.279305   -2.218714    0.236320
 H    0.336516   -0.750604   -1.740441
