50 
4ruu_ligand_dft.xyz
 C   -3.955270   -0.866557    0.509794
 C   -5.116859   -0.099613    1.166827
 C   -5.699122    0.973757    0.257978
 C   -4.621920    1.997391   -0.083029
 C   -3.285470    1.386058   -0.447703
 C   -2.969855    0.106969   -0.160426
 C   -1.656922   -0.487400   -0.487000
 C   -0.464414    0.025515   -0.143803
 C    0.843137   -0.565673   -0.430284
 C    1.948806    0.089575   -0.008148
 C    3.334985   -0.299341   -0.176462
 C    4.359189    0.440965    0.289209
 C    5.784207    0.125859    0.163640
 C    6.676263    0.983556    0.691940
 C    8.171429    0.896357    0.700023
 C   -4.502810   -1.853021   -0.541022
 C   -3.241733   -1.668725    1.612618
 C   -2.362551    2.351898   -1.148422
 C    0.871796   -1.872035   -1.178389
 C    6.151991   -1.147097   -0.554392
 H   -4.748726    0.378678    2.085365
 H   -5.890189   -0.815838    1.472742
 H   -6.550389    1.466607    0.740887
 H   -6.081741    0.519957   -0.664210
 H   -4.468875    2.674512    0.772167
 H   -4.959041    2.639924   -0.906742
 H   -1.684261   -1.453435   -0.991033
 H   -0.447350    0.963826    0.409877
 H    1.796285    1.028662    0.525364
 H    3.547203   -1.226943   -0.701241
 H    4.125967    1.368586    0.813533
 H    6.275731    1.869488    1.186078
 H    8.558294    0.004399    0.202366
 H    8.609220    1.772390    0.205116
 H    8.549883    0.895924    1.729974
 H   -3.697557   -2.430156   -1.008389
 H   -5.188102   -2.568413   -0.070252
 H   -5.042220   -1.333920   -1.339236
 H   -3.965328   -2.296506    2.146626
 H   -2.463576   -2.323166    1.207144
 H   -2.767561   -0.998882    2.338300
 H   -1.983854    3.110111   -0.449451
 H   -1.502679    1.860471   -1.606017
 H   -2.909005    2.894306   -1.929959
 H    0.378228   -1.770013   -2.152154
 H    1.884489   -2.237298   -1.354555
 H    0.329715   -2.646321   -0.621910
 H    7.229994   -1.307193   -0.603396
 H    5.707541   -2.015070   -0.053110
 H    5.768649   -1.135312   -1.581589
