27 
4rux_ligand_xtb.xyz
 C    0.622737    1.335170   -0.227529
 C   -0.748328    1.280210   -0.107332
 C   -1.364017    0.057598    0.090442
 S   -3.133869   -0.023025    0.196393
 O   -3.526835   -1.236374    0.853313
 O   -3.652362    1.230319    0.663129
 N   -3.539454   -0.171255   -1.437134
 C   -0.628161   -1.104358    0.172794
 C    0.750465   -1.060021    0.054083
 C    1.388271    0.163805   -0.151970
 O    2.720456    0.327681   -0.288519
 C    3.572555   -0.802876   -0.229319
 C    5.006416   -0.317997   -0.422995
 C    5.478738    0.530856    0.750543
 H    1.137007    2.270623   -0.380071
 H   -1.356120    2.169304   -0.150802
 H   -4.019033   -1.037619   -1.620266
 H   -4.077357    0.617917   -1.756654
 H   -1.144874   -2.035333    0.342032
 H    1.315321   -1.975551    0.124538
 H    3.304175   -1.514306   -1.022071
 H    3.471083   -1.300779    0.744175
 H    5.049111    0.268860   -1.341464
 H    5.652122   -1.189737   -0.540766
 H    4.812149    1.377722    0.888122
 H    5.489265   -0.055392    1.666830
 H    6.483093    0.904160    0.568354
