27 
4ruy_ligand_dft.xyz
 C    5.437608    0.583406    0.756510
 C    5.006580   -0.370458   -0.355694
 C    3.566747   -0.832951   -0.216394
 O    2.730490    0.310261   -0.326613
 C    1.396599    0.161569   -0.193067
 C    0.644288    1.340107   -0.280538
 C   -0.732734    1.298197   -0.158428
 C   -1.366054    0.073083    0.049772
 S   -3.130110    0.008338    0.199734
 O   -3.480116   -1.085352    1.093390
 O   -3.599743    1.367646    0.427617
 N   -3.633517   -0.487886   -1.325492
 C   -0.628860   -1.100368    0.145921
 C    0.754984   -1.063053    0.023869
 H    4.813975    1.481510    0.760753
 H    5.348870    0.105780    1.739059
 H    6.479333    0.890965    0.624906
 H    5.643123   -1.263529   -0.357745
 H    5.126108    0.108450   -1.334194
 H    3.409850   -1.313372    0.760218
 H    3.310780   -1.555834   -1.003041
 H    1.166748    2.277485   -0.437153
 H   -1.321342    2.207925   -0.206780
 H   -4.342363   -1.207814   -1.220528
 H   -3.983006    0.300482   -1.861867
 H   -1.133924   -2.043083    0.328397
 H    1.318228   -1.984803    0.103811
