38 
4rvk_ligand_dft.xyz
 C    6.155133    8.414522   18.037441
 C    8.114778    7.434266   17.121485
 N    3.898103   10.668022   19.657757
 C    2.722988   10.044622   19.610255
 N    6.202188   10.451733   19.041604
 C    6.748078    7.344802   17.375299
 C    4.819599    8.733367   18.486395
 N    8.893243    8.476668   17.470778
 N    9.265078    5.455429   15.883048
 C    6.971925    9.507702   18.403832
 C    8.773163    6.347040   16.435535
 C    8.335588    9.497714   18.101243
 C    4.900126   10.000564   19.102370
 C    3.576330    8.111923   18.457967
 C    2.495121    8.777769   19.033399
 C    1.135320    8.184359   19.039789
 C    0.335587    8.298014   20.180672
 C   -0.947764    7.747435   20.193768
 N   -1.801833    7.823705   21.308940
 C   -1.616226    8.495814   22.496419
 O   -0.620191    9.139958   22.765589
 C   -2.785866    8.357342   23.455180
 C   -1.421528    7.071246   19.064130
 C   -0.622246    6.955883   17.936093
 C    0.651293    7.512325   17.914360
 H    1.886462   10.584648   20.047615
 H    6.512990   11.331762   19.420770
 H    6.184823    6.471776   17.064263
 H    8.987095   10.325547   18.371653
 H    3.447737    7.125919   18.020218
 H    0.704158    8.793935   21.067954
 H   -2.680580    7.337012   21.207860
 H   -2.553960    8.911584   24.364202
 H   -3.704515    8.759207   23.014041
 H   -2.961656    7.306572   23.709929
 H   -2.418878    6.637538   19.068248
 H   -1.002835    6.436992   17.061714
 H    1.258173    7.447282   17.016182
