32 
4rvl_ligand_dft.xyz
 N    9.389674    5.515298   15.626884
 C    8.861127    6.362622   16.213793
 C    8.160331    7.392471   16.944853
 N    8.890126    8.464756   17.309296
 C    8.295021    9.436620   17.980792
 C    6.939479    9.365133   18.311249
 N    6.135226   10.249053   18.993342
 C    4.861608    9.728654   19.067624
 N    3.837827   10.326399   19.663497
 C    2.694805    9.646987   19.615613
 C    6.806404    7.223151   17.223385
 C    6.173981    8.241601   17.929200
 C    4.833945    8.476390   18.415381
 C    3.624194    7.790350   18.393831
 C    2.519721    8.385198   19.008521
 C    1.195021    7.714446   19.055828
 C    0.548014    7.502617   20.277758
 C   -0.683809    6.865282   20.342770
 C   -1.288428    6.427771   19.165852
 C   -0.673712    6.638107   17.939496
 C    0.560332    7.283947   17.878923
 O    1.098290    7.470439   16.643640
 H    8.908425   10.289485   18.262144
 H    6.407820   11.134363   19.389657
 H    1.838528   10.123927   20.087485
 H    6.282697    6.330887   16.898181
 H    3.536055    6.809864   17.932831
 H    1.040523    7.829224   21.189874
 H   -1.163547    6.703183   21.302324
 H   -2.249503    5.923674   19.201457
 H   -1.136446    6.320088   17.011268
 H    1.850273    8.074013   16.713251
