41 
4rvt_ligand_xtb.xyz
 C    5.580517   -1.106810   -0.105746
 C    5.373347    0.038765    0.660481
 C    4.138679    0.650198    0.671067
 C    3.079116    0.139309   -0.078014
 C    3.296225   -1.002134   -0.847638
 C    4.533391   -1.619900   -0.861950
 C    1.765411    0.808066   -0.060013
 C    1.657519    2.147477   -0.275368
 N    0.459077    2.761346   -0.278489
 C   -0.768298    2.126725   -0.084034
 C   -0.664224    0.715965    0.202181
 C    0.558303    0.080976    0.212275
 O    0.603956   -1.235549    0.458036
 O    6.809711   -1.677935   -0.084918
 O   -1.780740    2.801516   -0.149956
 C   -1.896599   -0.055962    0.567009
 C   -3.074863    0.179405   -0.339856
 O   -1.921772   -0.791886    1.522574
 C   -4.253068   -0.730548   -0.011985
 C   -5.447086   -0.448857   -0.919468
 C   -6.613306   -1.412355   -0.696818
 C   -7.280430   -1.239864    0.662622
 H    6.194950    0.427990    1.239748
 H    3.981876    1.529852    1.276789
 H    2.506189   -1.394021   -1.472959
 H    4.688251   -2.501549   -1.469488
 H    2.525019    2.758648   -0.476273
 H    0.395636    3.755879   -0.459804
 H    1.523203   -1.536415    0.514373
 H    6.826080   -2.458304   -0.652315
 H   -2.750992    0.045459   -1.375477
 H   -3.352285    1.231612   -0.229378
 H   -4.526222   -0.579677    1.032305
 H   -3.942657   -1.771977   -0.123269
 H   -5.123889   -0.527578   -1.961217
 H   -5.790313    0.575719   -0.758372
 H   -6.254851   -2.439601   -0.796521
 H   -7.358180   -1.245350   -1.479228
 H   -6.594042   -1.489105    1.467035
 H   -7.610186   -0.211725    0.795988
 H   -8.148183   -1.891178    0.743132
