59 
4rwl_ligand_xtb.xyz
 C   -4.748655    0.301690    0.015018
 C   -1.988025    0.456627    0.439237
 C    1.533815   -0.361293    0.827188
 C    4.298825   -0.217126    0.642322
 C    3.733663   -1.361429    1.121855
 C    2.329309   -1.468328    1.220181
 C    0.509718   -2.695654    1.802074
 C    7.341473   -0.154274   -1.079488
 C   -8.522236   -1.218024   -2.698400
 N   -7.773324   -0.351423   -1.821396
 C   -6.772481   -0.805740   -1.034335
 O   -6.413990   -1.967727   -1.027956
 C   -6.156883    0.249496   -0.166403
 C   -6.964359    1.135105    0.508580
 C   -6.422396    2.103970    1.363518
 C   -5.070239    2.185760    1.542722
 C   -4.205665    1.290353    0.880238
 C   -3.863501   -0.580588   -0.641437
 C   -2.515831   -0.510691   -0.435975
 C   -2.810490    1.345747    1.075624
 O   -0.614530    0.583980    0.607580
 C    0.120209   -0.490124    0.956861
 C    2.138140    0.803047    0.314135
 C    3.498904    0.871469    0.203257
 N    1.808188   -2.614147    1.688544
 C   -0.382844   -1.673009    1.458909
 O    5.670193   -0.010286    0.561023
 C    6.440321   -0.960058   -0.148190
 C    8.351447   -0.793471   -1.977773
 C    8.801156    0.037459   -0.810488
 N    6.590550    1.019538   -1.591569
 O    4.219538    1.917020   -0.347566
 C    3.515101    3.106148   -0.653930
 H    4.333065   -2.194372    1.451030
 H    0.129668   -3.629912    2.191970
 H   -8.387335   -0.925818   -3.741465
 H   -8.146856   -2.229883   -2.554767
 H   -9.584946   -1.187872   -2.452681
 H   -8.006063    0.628519   -1.819551
 H   -8.038550    1.073048    0.408537
 H   -7.084971    2.780512    1.881608
 H   -4.645430    2.928296    2.201816
 H   -4.268066   -1.333104   -1.298376
 H   -1.843354   -1.186132   -0.944568
 H   -2.392602    2.090935    1.735670
 H    1.495704    1.612312    0.008553
 H   -1.443535   -1.813018    1.594227
 H    7.048466   -1.553508    0.541374
 H    5.792029   -1.639344   -0.715788
 H    8.481216   -0.396574   -2.973000
 H    8.468120   -1.864103   -1.926114
 H    9.231436   -0.460030    0.043440
 H    9.243523    1.002599   -1.005654
 H    7.201777    1.830704   -1.719655
 H    6.107373    0.814591   -2.472993
 H    5.852982    1.247626   -0.849664
 H    2.796682    2.941753   -1.461311
 H    2.995683    3.491402    0.224816
 H    4.265556    3.827319   -0.972949
