59 
4rwl_ligand_dft.xyz
 C   -4.750261    0.173672    0.176557
 C   -1.966067    0.172109    0.435854
 C    1.539669   -0.762108    0.257507
 C    4.317156   -0.619233    0.304787
 C    3.722354   -1.802457   -0.024202
 C    2.307318   -1.906991   -0.065898
 C    0.455075   -3.177289   -0.422551
 C    7.392553    0.585922   -0.794548
 C   -8.766648    1.363796   -2.394848
 N   -8.002829    1.105572   -1.190339
 C   -6.877290    0.342576   -1.227218
 O   -6.481024   -0.185828   -2.257381
 C   -6.179767    0.176814    0.098503
 C   -6.926484   -0.012831    1.239307
 C   -6.313592   -0.199593    2.497320
 C   -4.949714   -0.188226    2.602411
 C   -4.140039   -0.001991    1.452003
 C   -3.911765    0.353090   -0.959343
 C   -2.547825    0.355531   -0.834644
 C   -2.724375   -0.001922    1.556517
 O   -0.578545    0.210391    0.549587
 C    0.121942   -0.898566    0.224304
 C    2.171716    0.462562    0.588930
 C    3.538768    0.535116    0.600928
 N    1.766842   -3.106814   -0.405917
 C   -0.421720   -2.113282   -0.117245
 O    5.685435   -0.476390    0.393209
 C    6.423322   -0.569910   -0.810322
 C    8.640027    0.618700   -1.619933
 C    8.725597    0.486125   -0.119660
 N    6.637944    1.858559   -0.608800
 O    4.265072    1.673841    0.868981
 C    3.553542    2.803369    1.362181
 H    4.311415   -2.687965   -0.238347
 H    0.029590   -4.140728   -0.694625
 H   -8.288612    2.121912   -3.025963
 H   -8.845408    0.440578   -2.970921
 H   -9.766567    1.703670   -2.118166
 H   -8.176531    1.671974   -0.375174
 H   -8.009688   -0.051798    1.170196
 H   -6.931458   -0.357414    3.375385
 H   -4.468241   -0.330211    3.566008
 H   -4.369098    0.465459   -1.933954
 H   -1.906040    0.490167   -1.699351
 H   -2.247526   -0.141059    2.521863
 H    1.547572    1.317937    0.815549
 H   -1.493699   -2.263917   -0.153673
 H    6.980135   -1.511623   -0.861514
 H    5.754271   -0.520320   -1.679867
 H    8.945598    1.562584   -2.062995
 H    8.847179   -0.248542   -2.238840
 H    8.984138   -0.474245    0.313498
 H    9.094138    1.338739    0.444342
 H    7.237143    2.620772   -0.283704
 H    6.195671    2.160919   -1.482279
 H    5.865273    1.715346    0.093821
 H    2.867603    3.199059    0.605421
 H    2.996317    2.536828    2.264951
 H    4.304668    3.554650    1.608389
