68 
4rxa_ligand_xtb.xyz
 N    9.995519   -0.442220   -1.431656
 C   11.299239   -0.774208   -1.973155
 C   12.157095    0.407252   -1.449942
 N   11.310645    1.131388   -0.528590
 C   10.147346    0.598204   -0.547053
 C    9.038293    1.084671    0.270307
 C    7.743581    0.614685    0.078399
 C    9.291945    2.035919    1.256684
 C    8.257419    2.507889    2.041303
 C    6.970126    2.035334    1.860242
 C    6.707936    1.082025    0.878227
 N    5.389403    0.639517    0.725664
 C    4.927607   -0.427349    0.008934
 O    5.630831   -1.190622   -0.621535
 C    3.446782   -0.597956    0.082258
 C    2.563918    0.477235    0.134437
 C    1.200787    0.256559    0.162374
 C    2.935495   -1.892452    0.045928
 C    1.574561   -2.111642    0.096896
 C    0.686549   -1.038719    0.155364
 C   -0.763881   -1.270148    0.193706
 C   -1.626409   -0.498721   -0.582830
 C   -2.990247   -0.716200   -0.556006
 C   -1.303186   -2.276925    0.992957
 C   -2.664662   -2.495439    1.020057
 C   -3.526591   -1.711248    0.257026
 C   -4.984226   -2.031741    0.316070
 O   -5.379119   -3.155404    0.547973
 N   -5.795317   -0.951944    0.108987
 C   -7.191267   -0.898145    0.051672
 C   -7.780598    0.352511   -0.116613
 C   -7.995561   -2.030772    0.141725
 C   -9.370778   -1.902325    0.048226
 C   -9.958648   -0.664918   -0.126851
 C   -9.161747    0.475804   -0.205057
 C   -9.797276    1.777677   -0.387730
 N  -10.979194    1.920262   -0.847947
 C  -11.282959    3.331140   -0.903058
 C  -10.067434    4.048436   -0.259741
 N   -9.120648    2.954202   -0.121625
 H    9.299968   -1.157260   -1.305998
 H   11.262962   -0.811373   -3.065132
 H   11.659314   -1.741114   -1.600531
 H   12.456775    1.081517   -2.257108
 H   13.061792    0.081349   -0.930839
 H    7.522050   -0.104080   -0.691417
 H   10.302526    2.387837    1.381949
 H    8.450440    3.247901    2.803602
 H    6.162978    2.404077    2.478704
 H    4.714627    1.127019    1.298785
 H    2.933274    1.493421    0.117910
 H    0.524219    1.097563    0.207447
 H    3.627225   -2.718448   -0.021968
 H    1.190064   -3.119932    0.061948
 H   -1.219315    0.258989   -1.236304
 H   -3.625285   -0.128863   -1.205095
 H   -0.649124   -2.879582    1.605378
 H   -3.088527   -3.277955    1.631080
 H   -5.338541   -0.057488   -0.002789
 H   -7.152893    1.229195   -0.206134
 H   -7.540388   -2.996872    0.278379
 H   -9.987038   -2.786350    0.112371
 H  -11.027113   -0.551248   -0.208672
 H  -12.220842    3.520995   -0.375676
 H  -11.419062    3.621135   -1.948361
 H  -10.319978    4.492772    0.710307
 H   -9.654986    4.827419   -0.905910
 H   -8.440919    2.990557    0.620206
