31 
4rxc_ligand_xtb.xyz
 O    1.205774    2.511381    1.036900
 P    1.739682    1.419111    0.003312
 O    3.202146    1.333810   -0.099070
 O    1.093297    1.895165   -1.363909
 C    1.005766   -0.194841    0.481841
 P    2.079075   -1.483546   -0.316906
 O    2.230704   -0.989695   -1.831611
 O    1.539753   -2.826269   -0.193136
 O    3.499974   -1.315761    0.363976
 O    1.216561   -0.234787    1.876938
 C   -0.432120   -0.429973    0.065068
 C   -1.410460    0.539485    0.736956
 C   -2.816010    0.231563    0.313187
 C   -3.377469    0.802980   -0.822459
 C   -4.664783    0.452672   -1.193126
 C   -5.346471   -0.465987   -0.409256
 N   -4.826121   -1.015859    0.673557
 C   -3.599034   -0.676935    1.019675
 H    1.612207    2.401258    1.897289
 H    0.194115    2.217973   -1.295435
 H    2.750218   -0.188423   -1.945637
 H    3.822215   -0.400157    0.325223
 H    1.227355   -1.162317    2.156993
 H   -0.692697   -1.460040    0.326430
 H   -0.484291   -0.351707   -1.024249
 H   -1.158914    1.570177    0.474128
 H   -1.315921    0.435730    1.819730
 H   -2.816025    1.518442   -1.408903
 H   -5.127117    0.881548   -2.068580
 H   -6.353366   -0.775818   -0.654304
 H   -3.218475   -1.153674    1.914295
