109 
4rxh_ligand_dft.xyz
 N    4.525361   -1.563621   -0.804910
 C    5.497303   -0.764996    0.027244
 C    4.828695    0.623696    0.189216
 O    5.217929    1.566382   -0.472129
 C    6.872856   -0.647296   -0.628679
 C    7.685087   -1.950997   -0.659457
 C    9.081804   -1.729644   -1.266744
 C    9.891937   -3.023435   -1.278627
 N   11.278174   -2.803913   -1.849928
 N    3.770820    0.640886    1.050482
 C    2.564297    1.430059    0.822188
 C    1.739596    0.697929   -0.262563
 O    2.295927    0.085294   -1.176537
 C    2.804321    2.902244    0.433175
 C    3.669788    3.645223    1.457056
 C    4.181220    5.016318    0.986546
 C    3.078869    6.060655    0.848675
 N    3.670857    7.419744    0.526957
 N    0.404223    0.742592   -0.140260
 C   -0.473929    0.009394   -1.037207
 C   -1.892300    0.537653   -0.801486
 O   -2.165973    1.169737    0.216689
 C   -0.384857   -1.508278   -0.769745
 C   -1.000892   -1.944356    0.569734
 C   -0.278022   -3.121030    1.238834
 N    0.861492   -2.697109    2.053232
 C    2.152626   -2.597720    1.669670
 N    3.007675   -1.958689    2.577711
 N    2.679687   -2.968567    0.544105
 N   -2.799225    0.233793   -1.751659
 C   -4.198906    0.648221   -1.650528
 C   -4.932926   -0.404035   -0.802695
 O   -5.389633   -1.433806   -1.308564
 C   -4.816956    0.811440   -3.042422
 C   -6.022519    1.761254   -3.090170
 C   -7.315955    1.324464   -2.386912
 C   -8.053485    0.154217   -3.059523
 N   -7.941476   -1.109600   -2.255878
 N   -4.991028   -0.149419    0.510797
 C   -5.571959   -1.063227    1.474406
 C   -7.096136   -1.091209    1.344268
 O   -7.736093   -0.527647    0.478662
 C   -5.106010   -0.734991    2.910333
 C   -3.590150   -0.909277    3.041654
 C   -5.560925    0.653251    3.372800
 O   -7.638951   -1.849751    2.283047
 H    3.854054   -2.198381   -0.200847
 H    3.868019   -0.929498   -1.295984
 H    5.000097   -2.154226   -1.489047
 H    5.575313   -1.274897    0.993763
 H    7.426015    0.110411   -0.064062
 H    6.750080   -0.232902   -1.635743
 H    7.790766   -2.343473    0.359834
 H    7.168650   -2.727928   -1.240575
 H    9.610314   -0.966231   -0.681792
 H    8.978983   -1.343239   -2.288701
 H    9.429247   -3.794500   -1.898826
 H   10.040382   -3.425548   -0.273907
 H   11.814644   -2.123288   -1.299713
 H   11.244135   -2.455344   -2.814879
 H   11.821925   -3.675565   -1.863163
 H    3.588578   -0.220060    1.569172
 H    2.006674    1.407975    1.765909
 H    3.279178    2.935031   -0.550167
 H    1.814947    3.369022    0.341401
 H    3.131829    3.754770    2.407287
 H    4.556094    3.041679    1.668493
 H    4.917552    5.371094    1.718459
 H    4.704824    4.893046    0.030169
 H    2.379008    5.837347    0.040856
 H    2.519426    6.189738    1.778181
 H    4.203930    7.401895   -0.349714
 H    4.313883    7.731450    1.264094
 H    2.947900    8.142157    0.430350
 H   -0.062228    1.259201    0.598139
 H   -0.162131    0.206614   -2.068078
 H   -0.861311   -2.048934   -1.595272
 H    0.679420   -1.754347   -0.816401
 H   -1.005362   -1.110607    1.281002
 H   -2.051953   -2.213875    0.417201
 H   -0.956982   -3.647611    1.913383
 H    0.046641   -3.864817    0.504251
 H    0.654789   -2.530951    3.027048
 H    3.889478   -2.451889    2.664617
 H    2.621864   -1.774638    3.496993
 H    2.043566   -3.498418   -0.042721
 H   -2.524318   -0.312793   -2.556408
 H   -4.199834    1.610921   -1.129969
 H   -5.065797   -0.180025   -3.440842
 H   -4.047196    1.230948   -3.699163
 H   -5.719711    2.726474   -2.667790
 H   -6.250463    1.959273   -4.143624
 H   -7.993267    2.183003   -2.388128
 H   -7.143144    1.095917   -1.328137
 H   -7.656024   -0.067466   -4.053008
 H   -9.120382    0.357277   -3.162062
 H   -8.448176   -1.883979   -2.691244
 H   -6.947126   -1.381467   -2.111371
 H   -8.298612   -0.966496   -1.298998
 H   -4.522486    0.678769    0.854467
 H   -5.246987   -2.081180    1.221393
 H   -5.588391   -1.479031    3.550708
 H   -3.040814   -0.195193    2.416024
 H   -3.284861   -1.923446    2.757065
 H   -3.289491   -0.745693    4.080711
 H   -6.642305    0.787120    3.268557
 H   -5.064984    1.463289    2.823276
 H   -5.318068    0.791659    4.429617
 H   -8.606223   -1.855664    2.179774
