40 
4ryl_ligand_xtb.xyz
 C   -2.975403   -1.944303   -0.054180
 C   -4.305905   -1.817803    0.211060
 C   -4.901588   -0.540991    0.270828
 N   -0.816082   -1.036054   -0.527064
 C   -6.268848   -0.332450    0.547420
 C   -6.065383    1.923533    0.390377
 N   -6.831984    0.842425    0.606942
 C   -4.727167    1.864681    0.112191
 C   -4.093511    0.604509    0.044813
 C   -2.722393    0.450972   -0.228713
 C    5.138066    1.299700   -0.339816
 N    4.725407    0.027473    0.219504
 C    6.453385    1.609096    0.376582
 C    7.013732    0.221257    0.683631
 C    5.760252   -0.560323    1.056960
 O    0.040676    1.087396   -0.741204
 C    0.187330   -0.115713   -0.739537
 N    1.388947   -0.714440   -1.017504
 C    2.597129    0.071794   -0.964898
 C    3.581054   -0.619686   -0.024695
 O    3.322182   -1.713441    0.453465
 C   -2.164045   -0.804856   -0.275128
 H   -2.519474   -2.924246   -0.097678
 H   -4.919428   -2.690895    0.380173
 H   -0.546585   -2.009537   -0.546676
 H   -6.917260   -1.182301    0.727438
 H   -6.588562    2.868784    0.452586
 H   -4.149968    2.761418   -0.054474
 H   -2.112233    1.322270   -0.397683
 H    4.382878    2.070541   -0.169047
 H    5.293490    1.203749   -1.421250
 H    6.255348    2.142796    1.306411
 H    7.121864    2.210697   -0.235025
 H    7.748945    0.231372    1.484558
 H    7.472130   -0.205267   -0.209219
 H    5.827963   -1.631411    0.859605
 H    5.502751   -0.421977    2.112927
 H    1.553349   -1.660808   -0.686089
 H    2.343318    1.077534   -0.615537
 H    3.044359    0.153301   -1.963627
