60 
4s1g_ligand_dft.xyz
 C    2.334866   -2.731440   -0.196524
 C    3.005086   -1.570046   -0.887762
 N    2.186559   -0.813047   -1.729633
 C    0.782470   -1.031165   -1.820137
 N    0.255442   -1.896605   -0.909510
 C    0.947814   -2.311474    0.308179
 C    0.206726   -3.523854    0.870443
 C    1.018604   -1.127320    1.323392
 N   -0.004122   -0.478646   -2.676393
 C    2.723265    0.515304   -2.103027
 O    4.172393   -1.279566   -0.710520
 C   -0.363667   -0.730881    1.844697
 C    1.996666   -1.353474    2.478972
 C    2.303369    1.491587   -1.025000
 C    0.991829    1.959667   -1.050796
 C    0.383574    2.452951    0.097646
 C    1.145808    2.663697    1.245099
 C    2.486410    2.312787    1.215887
 C    3.073148    1.688482    0.121437
 F    3.228495    2.505129    2.316387
 C   -1.113599    2.578374    0.191987
 O   -1.658851    3.234685    1.067184
 N   -1.791006    1.840655   -0.736967
 C   -3.225740    1.599766   -0.634057
 C   -3.457241    0.192643   -0.102616
 C   -3.172220   -0.927973   -0.891737
 C   -3.310686   -2.212174   -0.372101
 C   -3.733639   -2.395243    0.943931
 C   -4.020679   -1.286241    1.732979
 C   -3.882943   -0.001959    1.210532
 C   -3.908874    1.863051   -1.975627
 H    2.998058   -3.071478    0.598950
 H    2.209028   -3.551249   -0.913639
 H   -0.755888   -1.920332   -0.923314
 H    0.681604   -3.873633    1.791468
 H    0.213249   -4.342812    0.144514
 H   -0.835623   -3.276851    1.096616
 H    1.395020   -0.269186    0.756717
 H    0.508526    0.035104   -3.386035
 H    2.346190    0.801595   -3.086383
 H    3.803593    0.404670   -2.171295
 H   -0.763967   -1.469506    2.548311
 H   -1.087908   -0.609798    1.033834
 H   -0.302478    0.227377    2.370297
 H    1.974663   -0.488341    3.149948
 H    3.028000   -1.463103    2.129947
 H    1.734573   -2.237011    3.073534
 H    0.416036    1.847867   -1.959191
 H    0.686861    3.058981    2.144372
 H    4.086577    1.309208    0.194465
 H   -1.275467    1.157228   -1.282908
 H   -3.590603    2.318469    0.103205
 H   -2.811162   -0.801879   -1.910054
 H   -3.092065   -3.073605   -0.998297
 H   -3.843584   -3.397239    1.348341
 H   -4.348709   -1.418481    2.759694
 H   -4.088996    0.862404    1.836120
 H   -3.502985    1.221289   -2.764905
 H   -4.983766    1.672123   -1.900431
 H   -3.753746    2.904194   -2.271927
