18 
4tim_ligand_xtb.xyz
 C    1.216590   -0.977574    0.039387
 C    0.956856    0.315323   -0.707947
 C    2.126889    1.297325   -0.504893
 P   -1.521927   -0.004410   -0.074264
 O    0.618125   -1.287708    1.036428
 O    2.172799   -1.703617   -0.507500
 O    2.317506    1.594260    0.845414
 O   -0.198664    0.930380   -0.194257
 O   -2.658166    1.029031   -0.459347
 O   -1.834888   -0.148322    1.463702
 O   -1.454611   -1.197608   -0.920899
 H    0.836955    0.076003   -1.770605
 H    1.908987    2.205989   -1.082706
 H    3.052278    0.846470   -0.868267
 H    2.309069   -2.527445   -0.009288
 H    1.472005    1.892838    1.206291
 H   -3.037011    0.784605   -1.302290
 H   -1.212199   -0.754095    1.873219
