30 
4tjz_ligand_xtb.xyz
 C    3.918262    0.603740    0.087700
 O    4.559212   -0.229639    0.668782
 C    2.531405    0.407172   -0.379896
 C    1.905867   -0.752864   -0.190481
 C    0.515721   -1.064834   -0.610800
 C   -0.336965   -1.498212    0.588361
 C   -1.704219   -2.048604    0.180923
 C   -2.614324   -1.055180   -0.543565
 C   -3.023354    0.136399    0.319096
 C   -4.008040    1.051025   -0.405934
 C   -4.457262    2.211339    0.473740
 O    4.455226    1.815046   -0.179269
 H    2.045681    1.234093   -0.884000
 H    2.447481   -1.538443    0.321622
 H    0.547033   -1.890083   -1.328560
 H    0.069374   -0.198884   -1.100736
 H   -0.460114   -0.652700    1.266329
 H    0.197979   -2.278711    1.134007
 H   -2.215292   -2.396442    1.081915
 H   -1.552508   -2.916205   -0.466382
 H   -3.517935   -1.587373   -0.851788
 H   -2.126883   -0.697718   -1.452464
 H   -2.141870    0.717323    0.596269
 H   -3.483569   -0.228636    1.240475
 H   -4.881444    0.470712   -0.712367
 H   -3.537928    1.441674   -1.311684
 H   -4.960694    1.840551    1.364037
 H   -3.602853    2.806908    0.788359
 H   -5.145806    2.857719   -0.065556
 H    3.841299    2.393068   -0.650439
