49 
4tk0_ligand_xtb.xyz
 O   -5.061284   -0.886404    0.400733
 C   -3.893049   -0.951824    0.088513
 N   -3.343503   -2.079461   -0.425363
 C   -1.936587   -2.246871   -0.687430
 C   -1.385517   -0.964932   -1.308298
 C   -1.726425    0.204382   -0.428504
 C   -0.895557    1.316196   -0.289937
 O    0.348857    1.239669   -0.924339
 C    1.000979    2.442820   -1.320999
 C    2.002937    2.994139   -0.301155
 C    3.265102    2.149273   -0.088961
 C    3.082651    0.978485    0.875268
 N    2.297856   -0.138890    0.297495
 C    1.780811   -1.076823    1.333365
 C    2.766558   -2.207538    1.584879
 C    2.867170   -3.102169    0.342638
 C    2.574253   -2.291475   -0.924594
 C    3.059406   -0.857804   -0.763650
 C   -1.297103    2.406824    0.467008
 C   -2.529881    2.393988    1.100092
 C   -3.355424    1.293622    0.989746
 C   -2.955931    0.203823    0.226073
 H   -3.951042   -2.883656   -0.476651
 H   -1.802018   -3.088851   -1.369665
 H   -1.400021   -2.474897    0.248784
 H   -1.860433   -0.811158   -2.281965
 H   -0.311197   -1.042006   -1.475756
 H    0.250647    3.203010   -1.550296
 H    1.522817    2.190884   -2.250285
 H    1.514449    3.153641    0.661361
 H    2.309334    3.971183   -0.676136
 H    4.026203    2.796078    0.349912
 H    3.653482    1.807600   -1.048577
 H    2.559401    1.339167    1.763981
 H    4.056663    0.596168    1.187740
 H    1.464525    0.316673   -0.164894
 H    0.831819   -1.489381    0.986404
 H    1.587010   -0.516229    2.248367
 H    2.431345   -2.787854    2.442975
 H    3.741499   -1.792387    1.842516
 H    2.159104   -3.926679    0.412653
 H    3.864633   -3.535921    0.288851
 H    1.506858   -2.298436   -1.149024
 H    3.082238   -2.736386   -1.779295
 H    4.117257   -0.868567   -0.492797
 H    2.946441   -0.313873   -1.701938
 H   -0.669802    3.279059    0.558887
 H   -2.837304    3.252012    1.676302
 H   -4.321318    1.258439    1.468155
