50 
4tkf_ligand_dft.xyz
 C   -6.609199    2.888051   -0.014166
 C   -5.201613    2.803497   -0.100882
 C   -5.176540   -1.907727    0.230077
 C   -0.422236    0.150490   -0.783622
 C    5.803274   -0.686614    1.461026
 C    5.493208    0.547737    1.869437
 C    0.906731    0.523644   -0.936975
 C   -7.330328    1.729859    0.114085
 C   -2.162389   -1.538079    0.032714
 C   -7.322113   -0.760791    0.288294
 C    7.355789    0.759686    0.452627
 C    1.915243   -0.301789   -0.445469
 C   -0.753531   -1.050081   -0.151726
 C    6.079817    1.523992    0.864827
 C    6.601822   -0.557751    0.175654
 C   -5.244349    0.515872    0.062136
 C   -6.657891    0.484604    0.157086
 C    3.754188    1.367604   -0.272026
 C   -4.504177   -0.712167    0.102047
 N   -4.538167    1.670872   -0.065685
 C   -6.587594   -1.916467    0.321463
 N   -3.122322   -0.563286   -0.003531
 O   -2.403879   -2.721950    0.212585
 C    0.268881   -1.876716    0.315732
 C    1.597537   -1.504333    0.184866
 N    3.277774    0.084200   -0.587472
 C    4.296924   -0.800246   -0.978989
 O    4.132887   -1.957265   -1.279951
 C    5.610820   -0.051092   -0.931826
 C    5.255961    1.369977   -0.462485
 O    3.067772    2.289316    0.097064
 H   -7.095358    3.856980   -0.050257
 H   -4.608574    3.710113   -0.202599
 H   -4.617056   -2.831864    0.264508
 H   -1.190504    0.796846   -1.198315
 H    5.463910   -1.624972    1.884093
 H    4.845710    0.827144    2.692339
 H    1.159221    1.453830   -1.430620
 H   -8.414783    1.750733    0.185531
 H   -8.405599   -0.781509    0.362823
 H    8.077920    0.671000    1.268341
 H    7.846483    1.176651   -0.434391
 H    6.186444    2.557007    1.194440
 H    7.183929   -1.427933   -0.126148
 H   -7.089742   -2.873717    0.423297
 H   -2.844578    0.410794   -0.046626
 H    0.001521   -2.816842    0.785549
 H    2.386171   -2.147656    0.554722
 H    6.083395   -0.090407   -1.916378
 H    5.526845    2.153546   -1.174529
