25 
4tln_ligand_xtb.xyz
 N    0.067308    1.963289    0.062480
 C    0.152736    0.522465    0.411198
 C    1.616399    0.186329    0.044274
 O    2.276009    1.081300   -0.491555
 C   -0.834879   -0.300509   -0.417117
 C   -2.312294    0.004622   -0.112599
 C   -2.682707   -0.373875    1.318828
 C   -3.184557   -0.764430   -1.102937
 N    2.076474   -1.015849    0.304243
 O    3.366506   -1.381519   -0.020516
 H   -0.652734    2.147216   -0.641852
 H   -0.063486    2.589382    0.858461
 H    1.071464    2.098627   -0.367479
 H   -0.014940    0.370618    1.479130
 H   -0.637929   -0.126394   -1.477807
 H   -0.661423   -1.359996   -0.226202
 H   -2.508256    1.074963   -0.252447
 H   -3.747106   -0.224035    1.472650
 H   -2.158702    0.230193    2.056354
 H   -2.463590   -1.421893    1.505904
 H   -2.939631   -0.500515   -2.128720
 H   -3.047004   -1.835282   -0.980618
 H   -4.232814   -0.536319   -0.936019
 H    1.582627   -1.771647    0.756462
 H    3.798743   -0.612869   -0.438183
