56 
4tmf_ligand_dft.xyz
 C   -1.033328    4.408976   -1.467296
 C   -0.416900    3.107917    0.350967
 C   -2.656249    2.938930   -0.603115
 O   -3.848933   -0.192341   -1.533996
 C   -3.250444   -0.724664   -0.383216
 C   -4.122906   -1.821713    0.250113
 O   -4.810997   -2.507736   -0.772350
 C   -3.102850   -2.795739    0.888244
 O   -3.344417   -4.107451    0.565007
 O   -1.811511   -2.356653    0.406299
 C   -1.979024   -1.504632   -0.721986
 C   -0.755847   -0.628974   -0.871219
 O    0.429772   -1.417941   -1.052200
 P    1.197672   -1.963170    0.238667
 O    0.664881   -3.422111    0.514143
 O    1.244656   -1.013944    1.371401
 O    2.642862   -2.322550   -0.388541
 P    3.907471   -1.321846   -0.500469
 O    4.747325   -2.031153   -1.664008
 O    4.662699   -1.048125    0.729701
 O    3.224426   -0.085357   -1.227735
 C    3.803692    1.227991   -1.164985
 C    2.831181    2.165970   -0.466480
 C    2.726802    1.914414    1.037533
 C    1.694900    2.796277    1.738700
 N    0.319992    2.523592    1.338133
 N   -0.052230    4.033654   -0.585513
 N   -2.229895    3.938297   -1.503731
 O   -3.760770    2.419756   -0.731076
 C   -1.690268    2.596046    0.418241
 N   -1.762047    1.673058    1.444636
 C   -0.563227    1.652408    1.967302
 N   -0.132495    0.914702    3.051234
 H   -0.731274    5.172348   -2.181252
 H   -4.026284    0.753365   -1.358195
 H   -3.023670    0.049760    0.356633
 H   -4.828044   -1.431823    0.992537
 H   -4.914659   -1.852930   -1.486351
 H   -3.044369   -2.713972    1.974901
 H   -3.855403   -4.089779   -0.263583
 H   -2.131851   -2.098552   -1.633635
 H   -0.641140    0.008487    0.006982
 H   -0.856975   -0.010660   -1.765032
 H   -0.321866   -3.383296    0.536014
 H    5.495952   -2.517070   -1.291397
 H    3.976259    1.536070   -2.198957
 H    4.761892    1.194613   -0.636723
 H    3.166424    3.197065   -0.655802
 H    1.853268    2.040672   -0.948426
 H    2.477784    0.865968    1.223585
 H    3.700212    2.096514    1.508228
 H    1.889230    3.861507    1.559290
 H    1.732654    2.634200    2.819059
 H    0.883028    4.406730   -0.651143
 H    0.552872    0.211853    2.765820
 H   -0.927612    0.446641    3.471188
