56 
4tmf_ligand_xtb.xyz
 C   -1.000928    4.610201   -1.210052
 C   -0.426748    3.134206    0.464297
 C   -2.558102    2.918691   -0.734777
 O   -3.893852   -0.317839   -1.561141
 C   -3.156336   -0.720627   -0.445189
 C   -3.948896   -1.741663    0.404195
 O   -4.786999   -2.500367   -0.426068
 C   -2.848009   -2.655793    1.002559
 O   -3.104674   -3.990408    0.793117
 O   -1.620707   -2.265719    0.376659
 C   -1.913183   -1.552901   -0.813445
 C   -0.680789   -0.745034   -1.185247
 O    0.441223   -1.598753   -1.298226
 P    1.155957   -2.026910    0.060339
 O    0.777918   -3.510325    0.404531
 O    1.096793   -1.019496    1.120252
 O    2.636097   -2.337794   -0.470871
 P    3.775286   -1.226787   -0.460196
 O    4.772029   -1.781969   -1.567387
 O    4.422328   -0.940714    0.814423
 O    3.044632   -0.018714   -1.179586
 C    3.640783    1.271547   -1.083893
 C    2.708336    2.221319   -0.338279
 C    2.623140    1.862666    1.144044
 C    1.602012    2.716100    1.902384
 N    0.254533    2.482641    1.448418
 N   -0.066344    4.202007   -0.301535
 N   -2.122483    4.049999   -1.425247
 O   -3.581776    2.344304   -1.069280
 C   -1.661330    2.517842    0.329514
 N   -1.741567    1.492976    1.238693
 C   -0.600756    1.481060    1.873291
 N   -0.277733    0.660564    2.910399
 H   -0.737357    5.482383   -1.793674
 H   -3.991717    0.654379   -1.519183
 H   -2.851232    0.118719    0.184346
 H   -4.538886   -1.258901    1.191018
 H   -4.936903   -1.947643   -1.214150
 H   -2.699479   -2.499398    2.076942
 H   -3.763087   -4.048381    0.076051
 H   -2.155356   -2.251983   -1.628522
 H   -0.494170   -0.006202   -0.402854
 H   -0.819513   -0.258739   -2.151936
 H   -0.163686   -3.585153    0.596953
 H    5.469460   -2.300726   -1.168045
 H    3.811374    1.622218   -2.106316
 H    4.597758    1.195459   -0.560222
 H    3.083506    3.240773   -0.466665
 H    1.722632    2.141256   -0.801228
 H    2.350448    0.810564    1.231044
 H    3.601372    1.991006    1.608006
 H    1.825502    3.781955    1.782630
 H    1.636588    2.473544    2.967148
 H    0.833321    4.650749   -0.205618
 H    0.626348    0.212683    2.810156
 H   -0.999645   -0.033737    3.049089
