70 
4tmn_ligand_xtb.xyz
 C    1.553603   -2.540629   -0.262966
 O    0.611307   -3.025400    0.324657
 O    1.942623   -2.905873   -1.497505
 C    0.994098   -3.721257   -2.193856
 C   -0.334552   -3.014422   -2.296299
 C   -0.368784   -1.686712   -2.706005
 C   -1.512851   -3.637037   -1.910594
 C   -1.562580   -0.988296   -2.713848
 C   -2.707682   -2.938244   -1.929142
 C   -2.735844   -1.611191   -2.323525
 N    2.361534   -1.587516    0.256169
 C    1.871141   -0.791964    1.354480
 P    0.477588    0.313241    0.768674
 O    0.260140    1.552953    1.539697
 O    1.010006    0.578237   -0.719677
 C    2.987851    0.046921    1.979306
 C    3.709642    0.861442    0.942686
 C    4.794318    0.321373    0.259078
 C    3.293569    2.148852    0.630037
 C    5.439561    1.046857   -0.727445
 C    3.936592    2.872797   -0.358505
 C    5.007662    2.323463   -1.042533
 N   -0.897668   -0.598267    0.557380
 C   -2.218961   -0.380454    1.124631
 C   -2.945285    0.691185    0.303410
 O   -4.019850    0.500418   -0.229954
 C   -2.237753   -0.004445    2.612246
 C   -1.378630   -0.917873    3.490238
 C   -1.514061   -0.486024    4.949211
 C   -1.745302   -2.391095    3.332168
 N   -2.281454    1.859100    0.239261
 C   -2.698902    2.945233   -0.604459
 C   -1.753829    3.081424   -1.786250
 O   -0.732008    2.454756   -1.932481
 C   -2.753060    4.262344    0.173846
 O   -2.166683    3.986614   -2.666140
 H    1.444816   -3.885065   -3.175852
 H    0.879451   -4.678184   -1.674183
 H    0.549270   -1.196161   -2.995793
 H   -1.490514   -4.664558   -1.578142
 H   -1.572575    0.048626   -3.014653
 H   -3.619186   -3.426981   -1.618447
 H   -3.663213   -1.060329   -2.303498
 H    2.966094   -1.104788   -0.396047
 H    1.463024   -1.482427    2.100726
 H    0.473025    1.248233   -1.172141
 H    2.527171    0.705520    2.717351
 H    3.690324   -0.620276    2.484677
 H    5.145472   -0.670155    0.511121
 H    2.461749    2.581260    1.162691
 H    6.281142    0.614494   -1.249107
 H    3.601765    3.872254   -0.594641
 H    5.508978    2.889765   -1.813722
 H   -0.714312   -1.557102    0.302517
 H   -2.781713   -1.307422    0.981716
 H   -3.277045   -0.041255    2.946681
 H   -1.877483    1.017472    2.731843
 H   -0.333379   -0.778283    3.189441
 H   -1.242230    0.560474    5.064673
 H   -2.539609   -0.616077    5.288714
 H   -0.864215   -1.081799    5.586160
 H   -2.816015   -2.532532    3.464637
 H   -1.458508   -2.765702    2.353116
 H   -1.227340   -2.986428    4.081176
 H   -1.380037    1.936677    0.698582
 H   -3.693863    2.691805   -0.993165
 H   -3.465661    4.169560    0.988318
 H   -1.773542    4.486719    0.590405
 H   -3.061016    5.073311   -0.479640
 H   -1.545573    4.060383   -3.409535
