49 
4tn2_ligand_dft.xyz
 C   -0.584338   -2.716877   -1.397529
 C    0.210690   -1.741885   -0.640900
 C    2.123399   -0.316925    0.063878
 O   -1.911840   -2.528157   -1.301291
 O   -0.098604   -3.578372   -2.097306
 O   -1.591199   -3.011065    1.541721
 C   -2.632632    2.841902    0.616325
 C   -2.517230    3.900932   -0.483901
 C   -3.110126    3.396625   -1.802832
 C   -2.477125    2.067492   -2.225363
 C   -2.603818    1.012909   -1.121423
 C    3.434247    0.333341    0.219680
 C    4.308729    0.471370   -0.864505
 C    5.540807    1.094435   -0.704184
 C    5.915603    1.597557    0.538341
 C    5.052193    1.466491    1.622946
 C    3.824661    0.834353    1.467584
 S    1.884318   -1.607898   -1.060270
 C    0.972879   -0.043873    0.755065
 C   -0.124766   -0.862113    0.364504
 N   -1.381151   -0.777422    0.977410
 C   -1.980778   -1.866509    1.591222
 C   -3.173264   -1.336491    2.371307
 C   -3.382974    0.079657    1.837442
 C   -1.992170    0.508244    1.334654
 C   -1.979010    1.522692    0.183503
 H   -2.314440   -3.249979   -1.809413
 H   -3.695702    2.666588    0.836135
 H   -2.172925    3.207441    1.543997
 H   -1.456714    4.146165   -0.635157
 H   -3.014935    4.825729   -0.170710
 H   -2.979128    4.149323   -2.588765
 H   -4.193149    3.254573   -1.678032
 H   -2.941970    1.700858   -3.147448
 H   -1.413122    2.226959   -2.449853
 H   -2.133106    0.074353   -1.428990
 H   -3.669077    0.793918   -0.964350
 H    4.015842    0.102904   -1.843855
 H    6.207123    1.192884   -1.555753
 H    6.877221    2.085969    0.662335
 H    5.340271    1.847941    2.597929
 H    3.170475    0.705546    2.324814
 H    0.901652    0.727093    1.513628
 H   -2.901802   -1.341197    3.433787
 H   -4.030854   -2.000619    2.248292
 H   -3.766608    0.774579    2.587668
 H   -4.090499    0.062647    1.003448
 H   -1.433829    0.953197    2.175530
 H   -0.922458    1.742249   -0.032658
