49 
4tn2_ligand_xtb.xyz
 C   -0.596573   -2.710530   -1.275328
 C    0.204304   -1.726238   -0.561173
 C    2.116665   -0.291860    0.114101
 O   -1.917419   -2.458153   -1.240357
 O   -0.132293   -3.629476   -1.904192
 O   -1.637081   -2.959611    1.464300
 C   -2.599360    2.864468    0.529261
 C   -2.411023    3.861786   -0.611231
 C   -3.011827    3.320177   -1.905087
 C   -2.400234    1.966565   -2.256013
 C   -2.608908    0.978682   -1.111779
 C    3.416299    0.338826    0.246032
 C    4.438410    0.040353   -0.657609
 C    5.678466    0.636138   -0.544265
 C    5.925986    1.542320    0.474501
 C    4.922756    1.843889    1.380727
 C    3.680141    1.250588    1.271229
 S    1.875751   -1.615454   -0.982117
 C    0.956309    0.007766    0.782053
 C   -0.135028   -0.804549    0.410296
 N   -1.386337   -0.729462    1.013019
 C   -2.020767   -1.818310    1.537078
 C   -3.245084   -1.314598    2.278474
 C   -3.417030    0.124212    1.803486
 C   -2.012729    0.542635    1.345277
 C   -1.962879    1.523027    0.162785
 H   -2.386916   -3.181753   -1.682649
 H   -3.665704    2.726001    0.717425
 H   -2.145660    3.256860    1.442610
 H   -1.343983    4.045197   -0.757602
 H   -2.880958    4.812654   -0.352049
 H   -2.840448    4.028884   -2.717567
 H   -4.091595    3.207699   -1.782388
 H   -2.857730    1.577809   -3.167655
 H   -1.330831    2.087061   -2.444407
 H   -2.179977    0.008844   -1.365283
 H   -3.681549    0.842206   -0.963644
 H    4.245793   -0.664586   -1.452916
 H    6.456245    0.393749   -1.252937
 H    6.895605    2.008677    0.563553
 H    5.111403    2.544347    2.181075
 H    2.914625    1.487602    1.993314
 H    0.876898    0.780326    1.524810
 H   -3.029822   -1.370541    3.347901
 H   -4.104861   -1.949931    2.075605
 H   -3.794724    0.781185    2.584592
 H   -4.108345    0.152015    0.963351
 H   -1.474376    1.001471    2.190605
 H   -0.903774    1.703580   -0.057900
