41 
4tqn_ligand_xtb.xyz
 O    5.125786   -1.423949   -2.101522
 C    5.357516   -0.951977   -1.024895
 O    6.616669   -0.647923   -0.658647
 C    4.292128   -0.664841   -0.016403
 C    4.527233   -0.731105    1.355325
 C    3.497749   -0.480325    2.246008
 C    2.231584   -0.167998    1.781890
 C    3.018293   -0.355736   -0.479964
 C    1.984164   -0.111114    0.413102
 C    0.639162    0.254749   -0.132599
 O    0.503008    0.942723   -1.117328
 N   -0.396027   -0.276886    0.585151
 C   -1.756179   -0.063411    0.291080
 C   -2.623935   -1.136511    0.223810
 C   -3.971323   -0.949383   -0.084345
 C   -4.953893   -2.053715   -0.168023
 O   -6.123285   -1.843180   -0.407085
 C   -4.436642   -3.455387    0.056342
 C   -4.417461    0.347666   -0.337319
 C   -3.566119    1.428694   -0.255697
 C   -2.225927    1.250821    0.084341
 O   -1.341575    2.242350    0.282275
 C   -1.639838    3.550520   -0.171629
 C   -0.343679    4.343612   -0.133305
 H    6.658786   -0.224150    0.208817
 H    5.500223   -1.007937    1.739943
 H    3.684877   -0.529334    3.308326
 H    1.441936    0.052397    2.485485
 H    2.835813   -0.304089   -1.542596
 H   -0.188463   -1.035314    1.218246
 H   -2.229277   -2.124729    0.405157
 H   -4.008954   -3.543590    1.052499
 H   -5.259768   -4.158166   -0.042698
 H   -3.670787   -3.693107   -0.678431
 H   -5.457625    0.488489   -0.588987
 H   -3.951062    2.419951   -0.434796
 H   -2.398297    4.010142    0.478141
 H   -2.025105    3.509173   -1.197408
 H    0.026817    4.408191    0.886214
 H    0.399843    3.837384   -0.742796
 H   -0.508584    5.345361   -0.519028
