75 
4ttv_ligand_xtb.xyz
 C    3.267792   -1.751199   -0.237313
 C    4.397922   -0.920704   -0.903445
 C    5.021303   -2.239883   -1.386258
 C    4.129701   -3.011503   -0.402761
 C    2.870124   -1.316166    1.166048
 C    1.836493   -2.263309    1.800048
 C    0.487293   -2.155412    1.166560
 C    0.016697   -3.007242    0.257092
 C   -1.295510   -2.949431   -0.349921
 C   -2.438058   -2.599268    0.268643
 C   -2.460374   -2.308774    1.647617
 C   -3.776789   -2.602693   -0.441552
 C   -4.521376   -1.243342   -0.363226
 C   -5.272819   -1.080336    0.955392
 C   -3.539203   -0.096286   -0.623680
 C   -4.167545    1.294514   -0.764168
 C   -5.151680    1.353171   -1.932970
 C   -3.081481    2.358552   -0.981692
 C   -2.022464    2.484126    0.122587
 C   -2.652533    2.830910    1.468778
 C   -0.999759    3.544044   -0.307322
 C    0.280676    3.640924    0.536638
 C    1.172113    4.733054   -0.054650
 C    1.005251    2.281664    0.583584
 C    2.354484    2.362129    1.315436
 C    2.995550    1.024410    1.609054
 O    4.009103    0.891664    2.241523
 O    2.316765    0.003237    1.067307
 C    3.889423    0.035493   -1.942818
 O    3.449341   -0.277473   -3.016967
 O    3.915250    1.298247   -1.504272
 O   -3.548350   -2.978938   -1.782502
 O    1.175324    1.821159   -0.739695
 N   -2.487655   -2.099516    2.776809
 H    2.380183   -1.781142   -0.873388
 H    5.001848   -0.384551   -0.171495
 H    6.095085   -2.334830   -1.250087
 H    4.763771   -2.432628   -2.425559
 H    4.653197   -3.274604    0.514413
 H    3.623843   -3.890272   -0.794447
 H    3.759943   -1.262493    1.806972
 H    2.223507   -3.278995    1.707970
 H    1.744901   -2.015153    2.859431
 H   -0.109069   -1.308887    1.474746
 H    0.650330   -3.812395   -0.097120
 H   -1.366666   -3.260069   -1.383008
 H   -4.409954   -3.366371    0.049205
 H   -5.264016   -1.268374   -1.170848
 H   -4.586360   -0.941266    1.785362
 H   -5.932705   -0.218232    0.905580
 H   -5.883455   -1.958059    1.160230
 H   -2.833380   -0.074678    0.207905
 H   -2.976899   -0.323039   -1.533818
 H   -4.711062    1.535467    0.152905
 H   -6.021233    0.726104   -1.752600
 H   -4.670357    1.025267   -2.852198
 H   -5.503073    2.372399   -2.077826
 H   -3.572264    3.328603   -1.097073
 H   -2.570594    2.136110   -1.921809
 H   -1.504960    1.526807    0.207033
 H   -1.887149    2.983276    2.225370
 H   -3.241528    3.742325    1.387443
 H   -3.300677    2.029480    1.813592
 H   -0.691585    3.328111   -1.331278
 H   -1.487378    4.521692   -0.301505
 H    0.025284    3.913576    1.565146
 H    1.553176    4.412273   -1.020323
 H    0.596767    5.644612   -0.197030
 H    2.008786    4.962134    0.599474
 H    0.370157    1.577943    1.142405
 H    3.074085    2.908223    0.701138
 H    2.248573    2.895306    2.261489
 H    3.460655    1.892711   -2.124159
 H   -4.383332   -2.935169   -2.260131
 H    1.476351    0.907579   -0.687133
