77 
4tuh_ligand_dft.xyz
 C    4.538414    5.183179    0.301865
 N    6.533062    3.991553    0.704782
 O    4.449590    0.943160   -1.101847
 S    4.176415    3.609447   -0.375779
 C    3.726903    6.314947    0.357903
 N    6.286279    1.845479   -0.130059
 O    0.618511   -6.621348    1.161449
 S    1.322862   -2.076494   -0.326640
 C    4.240181    7.457129    0.955704
 N    3.832403   -3.132174   -0.156680
 O   -1.367912   -5.617015    1.017818
 C    5.537603    7.470665    1.487719
 N    1.967295   -4.459895    0.422607
 O   -3.499315   -0.819982    0.618523
 C    6.342883    6.344873    1.431367
 N   -8.374705    1.646450   -0.439418
 C    5.840372    5.185882    0.832118
 N   -8.346093    2.926452   -0.907478
 C    5.793096    3.119053    0.106569
 C    5.606114    0.814538   -0.734761
 C    6.396463   -0.448344   -0.895045
 C    7.740598   -0.366349   -1.258850
 C    8.494157   -1.520942   -1.431744
 C    7.900270   -2.755178   -1.222004
 C    6.553316   -2.859641   -0.867226
 C    5.781614   -1.703075   -0.718721
 C    4.309523   -1.776058   -0.364154
 C    4.771421   -4.124581    0.339353
 C    5.938083   -4.217389   -0.631252
 C    2.498633   -3.340144    0.018564
 C    0.588335   -4.362901    0.457028
 C   -0.165761   -5.568046    0.897557
 C    0.034041   -3.177300    0.085214
 C   -1.403457   -2.755862    0.050614
 C   -1.936872   -2.401927    1.446018
 C   -3.396619   -1.991919    1.411356
 C   -4.725913   -0.282446    0.408934
 C   -4.761775    0.859115   -0.399130
 C   -5.962015    1.484741   -0.680031
 C   -7.150795    0.981046   -0.145892
 C   -7.124823   -0.148060    0.663986
 C   -5.914897   -0.783637    0.936708
 C   -9.583866    3.296024   -1.127710
 C  -10.487933    2.245496   -0.803065
 C  -11.858042    1.981686   -0.801922
 C  -11.419042   -0.116031   -0.013298
 C   -9.659435    1.194618   -0.363132
 N  -10.100373   -0.002859    0.039960
 N  -12.323220    0.803792   -0.408362
 H    2.722381    6.305761   -0.053007
 H    7.207531    1.687802    0.255433
 H    1.538490   -6.336315    1.003390
 H    3.627403    8.351388    1.011518
 H    5.915207    8.377321    1.950263
 H    7.348249    6.341530    1.838915
 H    8.195076    0.603257   -1.442058
 H    9.537267   -1.454014   -1.722836
 H    8.485175   -3.664336   -1.335691
 H    4.113306   -1.156263    0.525414
 H    3.743126   -1.320237   -1.182081
 H    4.245807   -5.075525    0.415478
 H    5.124764   -3.849593    1.344651
 H    6.693511   -4.906528   -0.238669
 H    5.578227   -4.635390   -1.579496
 H   -1.992780   -3.585306   -0.351882
 H   -1.531270   -1.899337   -0.617930
 H   -1.344108   -1.589936    1.882642
 H   -1.840740   -3.278744    2.093548
 H   -4.008688   -2.795184    0.976812
 H   -3.763503   -1.790442    2.427168
 H   -3.829875    1.238745   -0.804357
 H   -5.989412    2.368643   -1.305333
 H   -8.044868   -0.547501    1.071133
 H   -5.922008   -1.664736    1.567169
 H   -9.791175    4.288600   -1.502562
 H  -12.590033    2.721522   -1.120029
 H  -11.829668   -1.071519    0.302252
