98 
4tw6_ligand_dft.xyz
 C    2.188407    1.009908    3.855958
 O    0.802770    1.007571    3.597443
 C    0.388480    1.464494    2.387435
 C    1.205375    2.137328    1.477849
 C   -0.949660    1.213003    2.075023
 O   -1.734801    0.466712    2.913135
 C   -2.256699    1.191581    4.016718
 C   -1.465321    1.643448    0.846184
 O   -2.771625    1.356527    0.634820
 C   -3.369605    1.783317   -0.574493
 C   -0.638519    2.281375   -0.076420
 C    0.694291    2.533392    0.245176
 C    1.579698    3.251985   -0.762677
 C    1.091895    4.682572   -1.064466
 C    1.048754    5.528181    0.175001
 C    1.804750    6.601968    0.386791
 C    1.610546    2.423640   -2.052751
 O    0.856769    2.703950   -2.977363
 N    2.476359    1.365981   -2.122385
 C    3.284082    0.843863   -1.020403
 C    4.683277    0.451389   -1.494792
 C    4.625091   -0.497276   -2.690902
 C    3.754543    0.092851   -3.801418
 C    2.368905    0.482662   -3.276461
 C    1.542875   -0.770686   -2.964286
 O    1.691681   -1.824282   -3.540975
 O    0.650094   -0.556283   -1.991975
 C   -0.046603   -1.708171   -1.447498
 C   -1.522860   -1.355214   -1.400141
 C   -2.422678   -2.550677   -1.055481
 C   -3.864861   -2.125881   -0.917718
 C   -4.281709   -1.471895    0.252172
 C   -4.779562   -2.307415   -1.941200
 C   -6.095548   -1.847771   -1.815387
 C   -6.506989   -1.197555   -0.661554
 O   -7.753590   -0.708616   -0.438808
 C   -8.712213   -0.888125   -1.452334
 C   -5.580341   -1.005211    0.390442
 O   -6.059144   -0.351599    1.475668
 C   -5.162220   -0.124218    2.543109
 C    0.627672   -2.002784   -0.118637
 C    1.945623   -2.451274   -0.158738
 C    0.039629   -1.731513    1.116991
 C    0.769339   -1.903116    2.286918
 C    2.100473   -2.312905    2.249052
 C    2.691393   -2.567164    1.010533
 O    3.996969   -2.922081    0.833681
 C    4.887262   -2.720123    1.888642
 C    6.283357   -2.584944    1.309899
 O    7.199977   -2.750792    2.281103
 O    6.557140   -2.323930    0.169121
 H    2.315496    0.503093    4.813815
 H    2.586652    2.029457    3.935931
 H    2.733680    0.461785    3.076692
 H    2.240036    2.352198    1.719269
 H   -2.881357    2.025744    3.674131
 H   -2.870396    0.489954    4.585995
 H   -1.450776    1.570242    4.654359
 H   -2.905501    1.300663   -1.441940
 H   -4.413048    1.474894   -0.509944
 H   -3.305771    2.872778   -0.682623
 H   -1.009147    2.562496   -1.055375
 H    2.584196    3.343192   -0.340289
 H    1.759381    5.132380   -1.807652
 H    0.101607    4.626839   -1.527942
 H    0.347286    5.209496    0.945700
 H    1.735082    7.176545    1.306061
 H    2.518574    6.951888   -0.356295
 H    2.772517   -0.020844   -0.578080
 H    3.362831    1.593587   -0.236826
 H    5.232076    1.361666   -1.770157
 H    5.217651   -0.025773   -0.666578
 H    5.634286   -0.696662   -3.064562
 H    4.215312   -1.463095   -2.371291
 H    3.633718   -0.619575   -4.620718
 H    4.224380    0.997677   -4.204551
 H    1.814905    1.035254   -4.040209
 H    0.116309   -2.542036   -2.135997
 H   -1.805063   -0.966521   -2.384846
 H   -1.687218   -0.544627   -0.683910
 H   -2.328535   -3.312716   -1.838562
 H   -2.080478   -3.016571   -0.123921
 H   -3.561394   -1.302470    1.045890
 H   -4.478784   -2.810166   -2.856566
 H   -6.791561   -2.007212   -2.631219
 H   -8.889256   -1.952404   -1.657758
 H   -9.632259   -0.436429   -1.078978
 H   -8.416099   -0.387794   -2.384311
 H   -5.726234    0.440496    3.287429
 H   -4.822666   -1.069723    2.987630
 H   -4.288855    0.450225    2.217080
 H    2.431054   -2.668618   -1.105425
 H   -0.978801   -1.368137    1.186783
 H    0.301417   -1.675700    3.238518
 H    2.651832   -2.439662    3.175085
 H    4.673066   -1.785963    2.429787
 H    4.865131   -3.539747    2.617991
 H    8.068323   -2.607614    1.871479
