119 
4tw7_ligand_xtb.xyz
 C    4.206160    1.673109   -1.159571
 C    4.649625    2.996580   -1.780045
 O    5.755632    3.530399   -1.093226
 C    5.435327    3.776884    0.248852
 C    5.001809    2.492612    0.963477
 N    3.847896    1.885613    0.262644
 C    3.438208    0.625440    0.925735
 C    2.020508    0.165182    0.582358
 O    1.889062    0.006008   -0.813039
 C    1.180975   -1.052052   -1.323564
 C    0.267194   -1.807573   -0.609136
 C    1.424135   -1.343141   -2.665002
 C    0.763521   -2.388893   -3.274832
 C   -0.115491   -3.176621   -2.549417
 C   -0.351547   -2.896109   -1.213883
 C   -1.289825   -3.745184   -0.397619
 C   -0.597647   -4.472274    0.765470
 C    0.642942   -5.270438    0.340356
 C    1.866147   -4.410482    0.179667
 C    2.377839   -3.743896    1.289430
 C    2.498675   -4.259141   -1.042967
 C    3.583944   -3.409220   -1.169165
 C    4.062634   -2.709085   -0.078024
 O    5.100958   -1.798612   -0.241166
 C    6.353727   -2.258701    0.242904
 C    3.468730   -2.896449    1.181562
 O    4.010813   -2.185749    2.221183
 C    3.532741   -2.432995    3.524149
 O   -2.280948   -2.840076    0.114134
 C   -3.425637   -3.331322    0.586559
 O   -3.701968   -4.498088    0.643788
 C   -4.311827   -2.177349    1.058677
 C   -5.774414   -2.591438    1.204191
 C   -6.417892   -2.809487   -0.160983
 C   -6.214607   -1.566813   -1.019469
 C   -4.721611   -1.262257   -1.143807
 N   -4.148715   -1.036766    0.168594
 C   -3.306385   -0.053439    0.563558
 O   -2.794234   -0.079576    1.670212
 C   -3.058868    1.089369   -0.425219
 C   -4.295046    2.028549   -0.495837
 C   -4.674606    2.684603    0.830295
 C   -5.858153    3.619053    0.598323
 C   -5.426092    4.778894   -0.296037
 C   -4.595105    4.307277   -1.447443
 C   -4.087689    3.089700   -1.540733
 C   -1.786240    1.833122   -0.114339
 C   -0.872215    2.045129   -1.140415
 C   -1.507479    2.297129    1.162746
 C   -0.315894    2.958863    1.429823
 O    0.061073    3.420349    2.652663
 C   -0.830105    3.250857    3.735067
 C    0.601666    3.159923    0.393550
 O    1.841252    3.755264    0.655932
 C    1.774077    5.171636    0.770188
 C    0.319218    2.713247   -0.900480
 O    1.293130    2.954535   -1.829967
 C    1.036248    2.581800   -3.166136
 H    5.016666    0.941440   -1.200047
 H    3.337047    1.279533   -1.681594
 H    4.976375    2.838322   -2.808260
 H    3.809420    3.706055   -1.769997
 H    6.336078    4.178733    0.715325
 H    4.631011    4.523621    0.316315
 H    4.724138    2.719562    1.993376
 H    5.822384    1.770934    0.956563
 H    3.058670    2.577207    0.298372
 H    3.482836    0.770569    2.006175
 H    4.151205   -0.154008    0.638690
 H    1.277437    0.888642    0.940387
 H    1.861521   -0.788564    1.093836
 H    0.008138   -1.562927    0.408138
 H    2.139154   -0.745887   -3.209219
 H    0.946946   -2.603205   -4.316258
 H   -0.611928   -4.009777   -3.022928
 H   -1.792136   -4.485659   -1.033380
 H   -0.326626   -3.731118    1.519158
 H   -1.330035   -5.150101    1.206929
 H    0.840078   -6.018293    1.111978
 H    0.435004   -5.798607   -0.590485
 H    1.907128   -3.897632    2.247959
 H    2.141618   -4.797220   -1.906187
 H    4.067398   -3.271110   -2.123338
 H    6.645161   -3.187063   -0.255027
 H    6.323270   -2.420655    1.323153
 H    7.076770   -1.479691    0.007121
 H    2.489545   -2.120712    3.636178
 H    3.628807   -3.487857    3.793578
 H    4.159218   -1.836228    4.184988
 H   -3.909594   -1.867916    2.033242
 H   -5.814406   -3.508873    1.791062
 H   -6.309117   -1.807766    1.743626
 H   -5.958610   -3.672943   -0.645068
 H   -7.481198   -3.017133   -0.040533
 H   -6.720305   -0.715391   -0.558757
 H   -6.633370   -1.715171   -2.015286
 H   -4.574941   -0.400159   -1.789302
 H   -4.216957   -2.121073   -1.606772
 H   -2.927891    0.647433   -1.417930
 H   -5.146382    1.409892   -0.808115
 H   -3.838340    3.277146    1.200196
 H   -4.920550    1.922583    1.571890
 H   -6.669651    3.069195    0.117376
 H   -6.231337    4.000544    1.549834
 H   -4.840370    5.500903    0.283151
 H   -6.301169    5.312434   -0.674200
 H   -4.415738    5.033357   -2.228380
 H   -3.510246    2.803801   -2.409062
 H   -1.091033    1.673341   -2.127918
 H   -2.194638    2.085922    1.960084
 H   -1.768391    3.785762    3.565535
 H   -1.040541    2.193897    3.917384
 H   -0.322740    3.676990    4.598675
 H    2.758984    5.510491    1.087016
 H    1.038309    5.459560    1.521950
 H    1.514979    5.623975   -0.190892
 H    0.150185    3.088469   -3.557454
 H    0.910423    1.499317   -3.258457
 H    1.909859    2.897943   -3.734048
