46 
4tw9_ligand_dft.xyz
 N   11.349010  -14.936090    7.230953
 C   13.066524  -16.200348    9.258309
 O   11.401881  -16.979003    6.253087
 N    7.374480  -11.242004    5.035287
 C   14.158679  -16.509155   10.061815
 N    6.453641   -9.230862    5.987366
 C   15.328773  -17.368665    8.136834
 C   15.289526  -17.092626    9.499746
 F    3.600673   -3.445432    4.116807
 C    3.148628   -4.651891    4.476651
 F    1.837599   -4.517791    4.705067
 O    3.789018   -5.073595    5.627472
 C    4.414182   -6.260678    5.323261
 C    5.173575   -7.049370    6.151816
 O    3.365434   -5.563524    3.464055
 C    4.154586   -6.565936    3.987028
 C    4.629582   -7.685711    3.354498
 C    5.414248   -8.521981    4.166809
 C    5.665803   -8.197287    5.519028
 N    6.033862   -9.714034    3.831576
 C    6.626618  -10.078396    4.935654
 C    8.032732  -11.669529    6.163720
 O    8.051551  -11.029626    7.202140
 C    8.705183  -12.992023    6.020362
 C    8.293812  -14.016348    5.219837
 S    9.326568  -15.386600    5.413839
 N    9.809770  -13.245317    6.795705
 C   10.233520  -14.450821    6.573576
 C   11.888515  -16.187886    7.036997
 C   13.085890  -16.476313    7.889145
 C   14.230673  -17.064631    7.346731
 O   14.276044  -17.385183    5.996977
 C   14.746704  -16.436051    5.155973
 F   14.656316  -16.905110    3.925127
 F   14.048374  -15.293172    5.239886
 F   16.026474  -16.128422    5.409287
 H   11.821021  -14.257447    7.813636
 H   12.175148  -15.765905    9.702337
 H    7.487447  -11.735999    4.161741
 H   14.122040  -16.300423   11.125770
 H    6.883106   -9.378919    6.891181
 H   16.199698  -17.817611    7.673359
 H   16.145553  -17.335399   10.120786
 H    5.365438   -6.798431    7.187614
 H    4.422550   -7.913343    2.316590
 H    7.428553  -14.064111    4.572565
