46 
4twc_ligand_xtb.xyz
 N    9.551795  -12.896704    6.659221
 C    8.884231  -12.370852    5.594455
 O   12.019779  -15.825501    5.539785
 N    6.003597   -9.110171    5.835961
 C    7.911850  -11.292041    5.854026
 N    6.344832   -8.885649    3.633136
 C   11.971229  -15.531622    6.713591
 C   12.755315  -16.202282    7.786461
 F    1.389936   -5.710143    5.685984
 C    2.662925   -5.389221    6.000600
 F    2.725756   -5.400741    7.340731
 F    2.817068   -4.106072    5.627222
 C    3.656635   -6.303949    5.349480
 C    4.311907   -7.263038    6.106447
 C    5.196459   -8.079901    5.429304
 C    6.654893   -9.539741    4.720414
 C    5.425288   -7.952763    4.033042
 C    4.750120   -6.984353    3.299525
 C    3.867021   -6.167560    3.971863
 N    7.558778  -10.574201    4.735384
 O    7.450764  -11.052128    6.950028
 C   10.339040  -13.844251    6.295007
 S   10.347210  -14.213935    4.585245
 C    9.186469  -12.959058    4.394421
 N   11.134588  -14.543569    7.162063
 C   12.142489  -16.632891    8.957876
 C   12.866264  -17.319989    9.916297
 C   14.210236  -17.575270    9.711223
 C   14.843703  -17.144907    8.555313
 C   14.115076  -16.464521    7.595262
 O   14.662367  -15.945305    6.420978
 C   15.858636  -16.322554    6.009382
 F   16.865021  -15.889805    6.796628
 F   16.080009  -15.818329    4.805365
 F   16.019904  -17.650998    5.924165
 H    6.140051   -9.514642    6.753122
 H    4.139799   -7.359264    7.166624
 H    4.917738   -6.882656    2.240507
 H    3.324285   -5.402110    3.438861
 H    7.980415  -10.768497    3.839594
 H    8.779886  -12.753333    3.424778
 H   11.104081  -14.263895    8.132568
 H   11.087267  -16.454682    9.102269
 H   12.380739  -17.657951   10.818134
 H   14.780558  -18.111921   10.452897
 H   15.893992  -17.348033    8.421762
