30 
4tx6_ligand_xtb.xyz
 C   -5.302432   -0.121975    0.272612
 C   -3.820726   -0.114236    0.125846
 N   -3.208308   -1.203709   -0.206381
 N   -3.174077    1.056757    0.354031
 C   -1.782233    1.275924    0.267397
 O   -1.349114    2.383469    0.488828
 C   -1.105530    0.060242   -0.095735
 C   -1.868245   -1.091029   -0.302145
 O   -1.080539   -2.112140   -0.608625
 N    0.212344   -1.676849   -0.601873
 C    0.238203   -0.403142   -0.302097
 C    1.484529    0.343207   -0.218119
 C    1.500051    1.710852   -0.469190
 C    2.678758    2.431088   -0.417629
 C    3.860067    1.783896   -0.105838
 C    3.867542    0.425220    0.158349
 C    2.690718   -0.315468    0.104779
 O    2.613422   -1.637375    0.372450
 C    3.786925   -2.343165    0.692263
 H   -5.753996    0.591755   -0.414551
 H   -5.674077   -1.117846    0.055270
 H   -5.582041    0.154967    1.287910
 H   -3.710893    1.877128    0.613209
 H    0.577240    2.215732   -0.702199
 H    2.672142    3.490848   -0.618363
 H    4.787888    2.335238   -0.061763
 H    4.801759   -0.054006    0.405198
 H    4.515061   -2.305991   -0.124306
 H    4.250047   -1.967376    1.611135
 H    3.471246   -3.373952    0.843842
