49 
4txe_ligand_dft.xyz
 C   -2.278808   -1.187271    1.434275
 C   -3.357512   -1.323483    0.381479
 C   -3.612071   -2.376332   -0.486574
 C   -4.685687   -2.267155   -1.369681
 C   -5.486839   -1.125421   -1.378065
 C   -5.230906   -0.070166   -0.503309
 C   -4.160868   -0.180350    0.374434
 C   -3.676382    0.800450    1.421001
 C   -2.229564    0.334488    1.658445
 N   -1.333741    0.925437    0.601802
 C   -0.976449    2.368123    0.740287
 C   -0.126279    2.774175   -0.466375
 O   -0.849170    2.281005   -1.574635
 C    1.303728    2.242102   -0.389456
 O    1.251733    0.855653   -0.127727
 C    2.433193    0.134786   -0.082463
 C    3.690874    0.713688   -0.197055
 C    4.839311   -0.081669   -0.141295
 C    6.196914    0.557416   -0.275215
 C    4.719155   -1.469202    0.036421
 C    5.942017   -2.347512    0.091999
 C    3.442279   -2.020749    0.151381
 C    2.298895   -1.235990    0.091700
 H   -1.309240   -1.613256    1.151364
 H   -2.576083   -1.673604    2.371192
 H   -2.990579   -3.267181   -0.483246
 H   -4.897432   -3.076374   -2.061019
 H   -6.314634   -1.055874   -2.076300
 H   -5.857375    0.817138   -0.513034
 H   -3.762587    1.851014    1.126102
 H   -4.236588    0.690294    2.357258
 H   -1.809293    0.628713    2.621893
 H   -0.433373    0.423149    0.541891
 H   -1.762906    0.805125   -0.326620
 H   -0.439135    2.497540    1.682000
 H   -1.900960    2.945426    0.765739
 H   -0.069018    3.871602   -0.480458
 H   -0.399548    2.506450   -2.398251
 H    1.822812    2.436253   -1.338169
 H    1.844674    2.768798    0.409239
 H    3.809111    1.783748   -0.331783
 H    6.120238    1.638337   -0.418573
 H    6.745958    0.142667   -1.127962
 H    6.808572    0.378260    0.616256
 H    6.619748   -2.043181    0.897706
 H    6.512315   -2.296311   -0.842809
 H    5.672225   -3.393175    0.260164
 H    3.337179   -3.093557    0.286146
 H    1.311598   -1.682902    0.165954
