49 
4txe_ligand_xtb.xyz
 C   -2.157936   -1.072890    1.400588
 C   -3.261939   -1.315255    0.405756
 C   -3.497984   -2.422816   -0.381275
 C   -4.604885   -2.413783   -1.219880
 C   -5.453789   -1.320468   -1.261196
 C   -5.218609   -0.208006   -0.464056
 C   -4.117089   -0.216419    0.365770
 C   -3.648629    0.841354    1.330598
 C   -2.186542    0.451090    1.584196
 N   -1.327987    1.058771    0.531580
 C   -0.993157    2.489817    0.669775
 C   -0.105473    2.871633   -0.525490
 O   -0.776393    2.368034   -1.657823
 C    1.316394    2.297453   -0.375798
 O    1.223517    0.910950   -0.123457
 C    2.394263    0.152464   -0.083424
 C    3.669928    0.685109   -0.124373
 C    4.782806   -0.146380   -0.075426
 C    6.153575    0.447553   -0.127893
 C    4.611043   -1.530478    0.019617
 C    5.792802   -2.444789    0.068181
 C    3.322363   -2.044243    0.065670
 C    2.215611   -1.219795    0.014802
 H   -1.186011   -1.442236    1.072210
 H   -2.395495   -1.568187    2.344566
 H   -2.841011   -3.278057   -0.345795
 H   -4.805701   -3.270162   -1.843980
 H   -6.309449   -1.332612   -1.917565
 H   -5.884555    0.640544   -0.492499
 H   -3.764037    1.853688    0.945325
 H   -4.219860    0.776469    2.259050
 H   -1.806582    0.775022    2.554703
 H   -0.403200    0.578881    0.445110
 H   -1.784269    0.945983   -0.386098
 H   -0.466475    2.655738    1.610241
 H   -1.905958    3.086843    0.655072
 H   -0.018730    3.966108   -0.573221
 H   -0.324951    2.634215   -2.465581
 H    1.881851    2.479649   -1.298589
 H    1.823207    2.810115    0.452257
 H    3.825050    1.750739   -0.194539
 H    6.110713    1.531892   -0.183204
 H    6.694505    0.077388   -0.997631
 H    6.725118    0.167135    0.755443
 H    6.415645   -2.221556    0.933328
 H    6.409467   -2.321148   -0.820870
 H    5.476257   -3.482067    0.128182
 H    3.178263   -3.111512    0.138393
 H    1.218622   -1.633036    0.038019
