50 
4ty1_ligand_dft.xyz
 C  -19.692893   29.053194    3.569485
 C  -20.132480   30.337838    2.860897
 C  -21.650583   30.517587    3.006547
 C  -19.382749   31.533635    3.457856
 N  -19.737040   30.173124    1.449059
 C  -20.154957   30.960199    0.422597
 N  -20.199435   30.635759   -0.834817
 N  -20.615642   31.784390   -1.497657
 C  -20.802570   32.697325   -0.607450
 O  -20.520132   32.239254    0.656300
 C  -21.275101   34.065146   -0.795026
 C  -21.425570   34.519071   -2.125885
 C  -21.887663   35.789286   -2.393729
 C  -22.205078   36.603537   -1.304071
 N  -22.693571   37.891814   -1.281571
 C  -22.874422   38.287274    0.012731
 C  -22.505316   37.275920    0.864204
 C  -22.591655   37.368738    2.317505
 N  -23.090359   38.513452    2.818792
 C  -23.175897   38.583083    4.142975
 C  -22.780090   37.551565    4.983039
 C  -22.268281   36.408794    4.370624
 N  -22.177524   36.321180    3.038614
 C  -21.790265   35.253203    5.163915
 C  -21.909045   33.858742    4.587298
 C  -20.566989   34.502604    4.682650
 C  -22.065964   36.176002    0.035056
 C  -21.586210   34.882905    0.285002
 H  -19.904513   29.124593    4.640185
 H  -20.230700   28.181188    3.178253
 H  -18.617572   28.888611    3.442479
 H  -21.922696   30.579421    4.065589
 H  -21.989427   31.435486    2.518633
 H  -22.184301   29.670412    2.562458
 H  -19.632689   31.643011    4.518282
 H  -18.302372   31.388343    3.361646
 H  -19.656337   32.462259    2.952633
 H  -19.613017   29.220080    1.135885
 H  -21.170604   33.842848   -2.934504
 H  -22.002468   36.139119   -3.415181
 H  -22.894782   38.452180   -2.092938
 H  -23.257890   39.265965    0.259433
 H  -23.579841   39.508144    4.550657
 H  -22.860090   37.633222    6.061220
 H  -21.913515   35.355404    6.238073
 H  -22.364499   33.784288    3.604860
 H  -22.152993   33.055959    5.276214
 H  -19.869273   34.148956    5.435163
 H  -20.117161   34.863836    3.762988
 H  -21.470776   34.539053    1.306032
