50 
4ty1_ligand_xtb.xyz
 C  -19.603003   28.961232    3.525142
 C  -20.009045   30.277248    2.863045
 C  -21.400749   30.696375    3.342226
 C  -18.980142   31.367476    3.181241
 N  -20.061310   30.027106    1.425787
 C  -20.268488   30.953938    0.474965
 N  -20.087538   30.756546   -0.801902
 N  -20.457232   31.896532   -1.418451
 C  -20.840498   32.736756   -0.512965
 O  -20.743161   32.188904    0.745640
 C  -21.310071   34.083614   -0.727378
 C  -21.401812   34.528841   -2.060813
 C  -21.836498   35.797252   -2.356976
 C  -22.178699   36.626832   -1.294507
 N  -22.630134   37.918023   -1.296032
 C  -22.827779   38.326119   -0.017006
 C  -22.512964   37.311517    0.855694
 C  -22.604027   37.406158    2.294103
 N  -23.002872   38.581842    2.792619
 C  -23.085300   38.676489    4.105528
 C  -22.781933   37.623655    4.952404
 C  -22.379041   36.433806    4.343131
 N  -22.292149   36.337446    3.021417
 C  -22.044405   35.238570    5.132938
 C  -22.412431   33.886523    4.573183
 C  -20.984608   34.299108    4.614038
 C  -22.090793   36.198775    0.052125
 C  -21.653110   34.909218    0.334324
 H  -19.592867   29.075677    4.605440
 H  -20.308526   28.174769    3.267779
 H  -18.608653   28.659365    3.202725
 H  -21.395497   30.844343    4.418093
 H  -21.701513   31.624845    2.867812
 H  -22.127664   29.926316    3.095344
 H  -18.905612   31.508889    4.255786
 H  -18.001230   31.087729    2.796795
 H  -19.275324   32.310675    2.730284
 H  -19.591553   29.207960    1.075504
 H  -21.118942   33.838837   -2.838701
 H  -21.909983   36.140862   -3.377927
 H  -22.790017   38.475053   -2.118932
 H  -23.181076   39.310505    0.217702
 H  -23.409164   39.637004    4.489205
 H  -22.854951   37.714023    6.024090
 H  -22.115631   35.376476    6.204616
 H  -22.910884   33.886402    3.616249
 H  -22.763356   33.134232    5.263040
 H  -20.325353   33.838702    5.334157
 H  -20.511917   34.577809    3.685308
 H  -21.585494   34.570630    1.355112
