18 
4tya_ligand_xtb.xyz
 O   -3.893955    0.986995   -0.343293
 C   -1.042854    1.181183    0.173326
 C   -1.727009   -0.020919    0.015010
 F    3.036610   -0.455963    1.153720
 F    3.056003   -0.770669   -0.972971
 O   -3.802449   -1.108543    0.362293
 C   -3.223820   -0.111708    0.036135
 C    0.367667   -1.193015   -0.161058
 C    1.039867    0.015108   -0.015101
 C   -1.012821   -1.207148   -0.138811
 F    3.074499    1.229030   -0.181622
 C    2.544359    0.010747   -0.008683
 C    0.340432    1.200243    0.163520
 H   -3.314872    1.703459   -0.635208
 H   -1.571308    2.109475    0.343295
 H    0.925770   -2.107574   -0.289738
 H   -1.560990   -2.130939   -0.239394
 H    0.873695    2.129436    0.290874
