30 
4tz2_ligand_dft.xyz
 C   21.909700  -43.581962   10.275067
 C   20.634036  -43.779136    9.739492
 N   19.519595  -43.206708   10.343525
 C   20.492178  -44.611866    8.619663
 C   21.604903  -45.216243    8.051968
 C   22.875327  -45.014160    8.580319
 C   23.023477  -44.194136    9.702474
 C   24.336607  -43.946757   10.305184
 N   25.454388  -44.699459   10.075471
 N   24.629171  -42.981911   11.146537
 N   25.947430  -43.101398   11.482906
 C   26.437496  -44.136900   10.841290
 C   27.817597  -44.621441   10.929560
 C   28.633847  -44.145333   11.961228
 C   29.945389  -44.586425   12.072573
 C   30.457683  -45.508519   11.161737
 C   29.651427  -45.982121   10.131390
 C   28.338553  -45.538671   10.012927
 H   22.052177  -42.949488   11.146280
 H   19.709479  -42.391364   10.908767
 H   18.722542  -43.069841    9.738657
 H   19.504605  -44.783495    8.199331
 H   21.479731  -45.848754    7.178150
 H   23.736433  -45.467993    8.098301
 H   25.502989  -45.563695    9.560603
 H   28.221089  -43.429745   12.664343
 H   30.570932  -44.211448   12.876863
 H   31.482956  -45.853900   11.253070
 H   30.045746  -46.693460    9.412126
 H   27.732519  -45.898672    9.185199
