27 
4tz8_ligand_xtb.xyz
 C   -2.336825   -0.222664    1.509555
 C    0.604930    0.558647   -0.088063
 C    0.358169   -0.788011   -0.093518
 N    1.467719   -1.575137   -0.051314
 S    2.331092    0.853045    0.001106
 C    2.558936   -0.884037   -0.010605
 C   -0.215448    1.767516   -0.053482
 N   -1.517929    1.665095   -0.409586
 C   -0.941262   -1.525923   -0.129579
 C   -2.213488   -0.696576    0.060441
 O    0.255969    2.841647    0.286271
 N    3.797486   -1.426819   -0.034968
 C   -2.205768    0.504759   -0.911417
 C   -3.416744   -1.580586   -0.284307
 H   -2.468045   -1.077029    2.169452
 H   -1.447497    0.316946    1.823438
 H   -3.196335    0.434317    1.623260
 H   -2.033990    2.527250   -0.323367
 H   -0.887604   -2.300594    0.639484
 H   -0.986723   -2.047994   -1.090819
 H    3.856517   -2.412937    0.157235
 H    4.571048   -0.851826    0.250129
 H   -1.753562    0.186818   -1.859589
 H   -3.234633    0.807392   -1.114164
 H   -3.407537   -1.849362   -1.338425
 H   -3.395419   -2.495540    0.302596
 H   -4.347370   -1.060065   -0.070169
