68 
4u0i_ligand_dft.xyz
 N   -8.902895   -0.490540   -0.362842
 N    4.465211   -3.433967    1.215668
 C   -4.460710    1.448444   -0.045123
 C   -3.242422    2.190423    0.031850
 C   -3.274641    3.601400    0.045231
 C   -2.063400    4.284194    0.114939
 C   -0.850151    3.607317    0.186745
 C   -2.022185    1.512562    0.091220
 C    2.771978    1.425402    1.055696
 C    4.402167    0.191088    2.356304
 C    4.908043    0.827165    0.061502
 C    6.438436   -0.733046    1.326401
 C    4.738666   -3.867260   -0.139275
 C    4.416808   -2.801686   -1.186494
 C    3.085025   -2.999395    1.345315
 C   -8.494324   -2.941276   -0.112666
 C   -7.480777   -3.838323    0.071957
 C   -6.144567   -3.360230    0.173787
 N   -5.790005   -2.103453    0.104443
 N   -6.808847   -1.249187   -0.076486
 C   -8.157034   -1.575009   -0.192559
 C   -8.027683    0.539500   -0.355474
 C   -6.714155    0.121849   -0.180713
 C   -5.499324    0.829424   -0.107759
 C   -0.822437    2.211936    0.186204
 C   -4.585844    4.334924   -0.023958
 C    0.449078    1.413468    0.250274
 O    0.515859    0.304944   -0.280566
 N    1.471170    1.997330    0.924708
 C    3.185484    0.806383    2.260106
 C    5.327587    0.072666    1.238936
 C    3.669445    1.463929    0.002738
 C    5.835522    0.980611   -1.086011
 F    6.167480   -0.217210   -1.680112
 F    5.312237    1.720717   -2.090500
 F    7.016051    1.542029   -0.768084
 C    2.676967   -1.921591    0.347836
 C    2.657428   -1.283575   -2.045191
 N    2.984805   -2.357951   -1.061340
 H    5.094252   -2.649746    1.428437
 H   -2.068051    5.370726    0.105503
 H    0.074480    4.177575    0.204695
 H   -2.001438    0.428657    0.062806
 H    4.696405   -0.269645    3.296758
 H    7.183289   -0.782457    0.541184
 H    6.719934   -1.147225    2.291714
 H    4.168294   -4.785910   -0.345384
 H    5.798847   -4.117879   -0.233796
 H    4.556669   -3.155281   -2.212701
 H    5.028836   -1.913104   -1.022269
 H    2.928041   -2.588030    2.345654
 H    2.428895   -3.878242    1.246815
 H   -9.535408   -3.229598   -0.198841
 H   -7.672167   -4.902637    0.142713
 H   -5.320254   -4.050318    0.321162
 H   -8.355879    1.563084   -0.475839
 H   -5.130984    4.078059   -0.939025
 H   -5.231615    4.061547    0.817913
 H   -4.434851    5.417462   -0.005235
 H    1.260995    2.843996    1.434465
 H    2.516595    0.820206    3.118718
 H    3.388086    1.996569   -0.900630
 H    3.254583   -1.015025    0.500970
 H    1.619344   -1.657027    0.383680
 H    3.404183   -0.498398   -1.930191
 H    2.702770   -1.707022   -3.050332
 H    1.672348   -0.876817   -1.811529
 H    2.391067   -3.166293   -1.264603
