68 
4u0i_ligand_xtb.xyz
 N   -9.545954   -0.583353    1.071434
 N    6.666762   -0.523159    0.218793
 C   -5.207349    1.301345    0.145560
 C   -4.006929    1.991355   -0.110000
 C   -3.962641    3.394064   -0.040062
 C   -2.761647    4.030222   -0.311078
 C   -1.618303    3.314615   -0.623077
 C   -2.861158    1.270768   -0.436592
 C    1.998437    1.100209   -0.768487
 C    4.353678    1.345620   -0.339344
 C    3.574563   -0.515639   -1.604866
 C    6.089912   -0.280259   -1.087757
 C    6.100616   -1.659579    0.919943
 C    6.516104   -1.647909    2.388105
 C    7.463309    2.800430    1.445876
 C   -9.157323   -3.037298    0.974270
 C   -8.158272   -3.950069    0.755231
 C   -6.853972   -3.485650    0.479911
 N   -6.525747   -2.229049    0.417088
 N   -7.494004   -1.357248    0.627015
 C   -8.822542   -1.680873    0.909998
 C   -8.706100    0.441303    0.896870
 C   -7.412732    0.004550    0.616936
 C   -6.238393    0.709974    0.366743
 C   -1.659054    1.922970   -0.677737
 C   -5.196676    4.163071    0.307086
 C   -0.480375    1.081366   -1.028813
 O   -0.588127    0.026182   -1.613498
 N    0.714223    1.608245   -0.604351
 C    3.062492    1.804121   -0.202884
 C    4.645827    0.176573   -1.038357
 C    2.266225   -0.066173   -1.476588
 C    3.812280   -1.774734   -2.393766
 F    4.359561   -2.761885   -1.654429
 F    2.696951   -2.292410   -2.919273
 F    4.652100   -1.584032   -3.432516
 C    7.504783    2.029730    2.514123
 C    8.418832   -1.656186    3.875007
 N    7.936595   -1.394489    2.536104
 H    6.597300    0.303871    0.801153
 H   -2.718733    5.109760   -0.280719
 H   -0.711489    3.853194   -0.860695
 H   -2.899176    0.193893   -0.502060
 H    5.164466    1.905880    0.104359
 H    6.206394   -1.192846   -1.672011
 H    6.685850    0.503030   -1.567915
 H    6.471603   -2.567344    0.430587
 H    4.998106   -1.687113    0.875654
 H    6.209145   -2.606551    2.844711
 H    5.984199   -0.846388    2.915852
 H    6.998518    3.774536    1.454834
 H    7.906894    2.497341    0.510778
 H  -10.174762   -3.319154    1.190614
 H   -8.350456   -5.009806    0.789915
 H   -6.041766   -4.174073    0.303163
 H   -9.045769    1.455688    0.974419
 H   -5.970983    3.988130   -0.439525
 H   -5.591596    3.829961    1.266403
 H   -4.991474    5.229306    0.358461
 H    0.665626    2.463726   -0.068444
 H    2.870929    2.716587    0.344489
 H    1.452256   -0.615869   -1.920009
 H    7.066120    2.339461    3.450078
 H    7.972507    1.057858    2.501730
 H    7.915614   -0.979090    4.567097
 H    8.236403   -2.687637    4.215699
 H    9.488670   -1.458973    3.912594
 H    8.448448   -1.956027    1.862633
