42 
4u0u_ligand_xtb.xyz
 P    2.483671   -1.440681    0.335242
 O    2.898776   -2.799014   -0.012913
 O    2.834728   -0.314875   -0.718157
 O    2.945816   -0.887927    1.702237
 P    0.197766   -1.988932   -0.966269
 O    0.756763   -1.310804   -2.133857
 O    0.430252   -3.537675   -0.826431
 O    0.834124   -1.380279    0.401695
 O   -1.349561   -1.778070   -0.829345
 C   -2.145900   -2.304127    0.229116
 C   -3.071256   -1.209443    0.780369
 O   -2.368053   -0.333921    1.655733
 C   -3.675050   -0.322428   -0.318522
 O   -4.934422    0.137985    0.078364
 C   -2.654503    0.823452   -0.404263
 O   -3.238497    2.001131   -0.863867
 C   -2.161061    0.916010    1.060239
 N   -0.760449    1.258665    1.116439
 C    0.156614    0.797950    2.004998
 N    1.371893    1.198242    1.758270
 C    1.271752    1.976820    0.629863
 C    2.200307    2.654023   -0.183891
 N    3.520778    2.677806    0.060236
 N    1.729549    3.340761   -1.229060
 C    0.434608    3.348433   -1.477742
 N   -0.529180    2.723587   -0.821560
 C   -0.069600    2.029237    0.223303
 H    2.351355   -0.491894   -1.542914
 H    2.494486   -0.018838    1.912589
 H    1.373433   -3.694320   -0.633534
 H   -2.743045   -3.122942   -0.179671
 H   -1.511002   -2.675936    1.034976
 H   -3.866419   -1.678899    1.369004
 H   -3.741803   -0.862907   -1.271306
 H   -5.050049    1.016559   -0.312326
 H   -1.821129    0.510111   -1.043547
 H   -2.503355    2.611120   -1.064763
 H   -2.740951    1.683308    1.603114
 H   -0.122058    0.159227    2.818694
 H    4.110513    3.058555   -0.660802
 H    3.903893    1.994003    0.689941
 H    0.121532    3.931631   -2.332830
