35 
4u0w_ligand_xtb.xyz
 C   -0.442451   -0.947613    0.364564
 C   -1.788729   -0.194064    0.454358
 C   -1.726996    1.146483   -0.296640
 C   -0.452271    1.922124    0.088075
 C    0.757919    1.016098   -0.127320
 C    2.079455    1.682946    0.208596
 C   -4.123869   -0.924624    0.150272
 C   -4.986673   -2.001203   -0.457540
 N   -2.804459   -1.074109   -0.085697
 O   -0.315265   -1.470734   -0.908695
 O   -2.817077    1.986362   -0.007842
 O   -0.322942    3.080913   -0.686043
 O    0.634304   -0.116484    0.726131
 O    3.183851    0.910649   -0.209962
 O   -4.564179    0.003950    0.805635
 P    3.254527   -0.692522   -0.069930
 O    3.177255   -0.997624    1.498686
 O    2.383317   -1.500818   -0.925339
 O    4.773905   -0.913713   -0.390187
 H   -0.426740   -1.752312    1.123799
 H   -2.023842    0.015519    1.506064
 H   -1.692795    0.941197   -1.380225
 H   -0.517956    2.182300    1.158566
 H    0.791202    0.693612   -1.175909
 H    2.133885    1.845707    1.290699
 H    2.143123    2.638007   -0.316834
 H   -4.641193   -2.983913   -0.146812
 H   -4.936193   -1.941008   -1.542477
 H   -6.015337   -1.857910   -0.140376
 H   -2.464093   -1.765563   -0.737236
 H    0.637998   -1.663015   -1.060393
 H   -3.551588    1.454680    0.355929
 H   -1.202912    3.480666   -0.730645
 H    2.263900   -1.073374    1.776271
 H    5.352185   -0.368886    0.143142
