35 
4u0w_ligand_dft.xyz
 C   -0.454263   -0.943862    0.436587
 C   -1.802178   -0.201367    0.469078
 C   -1.734823    1.153170   -0.264577
 C   -0.468775    1.935364    0.097394
 C    0.729602    1.035386   -0.141923
 C    2.085953    1.661029    0.091982
 C   -4.128915   -0.948994    0.094629
 C   -5.014603   -2.031751   -0.478351
 N   -2.797625   -1.104962   -0.085603
 O   -0.283764   -1.489646   -0.826160
 O   -2.811585    2.004251    0.043984
 O   -0.359883    3.091018   -0.695216
 O    0.594497   -0.057008    0.779519
 O    3.149130    0.850638   -0.432386
 O   -4.603204    0.007974    0.706433
 P    3.301746   -0.710538   -0.068376
 O    3.122136   -0.784781    1.522613
 O    2.480386   -1.653149   -0.855765
 O    4.860285   -0.932390   -0.283527
 H   -0.423400   -1.711532    1.220696
 H   -2.056914   -0.002954    1.516536
 H   -1.697809    0.951418   -1.347213
 H   -0.512754    2.190042    1.168752
 H    0.706212    0.651917   -1.167646
 H    2.254364    1.834882    1.161212
 H    2.143561    2.609550   -0.441253
 H   -4.466641   -2.793053   -1.039118
 H   -5.761613   -1.568766   -1.127572
 H   -5.547807   -2.513048    0.346276
 H   -2.444912   -1.809826   -0.718584
 H    0.654998   -1.771995   -0.906398
 H   -3.579173    1.463438    0.315984
 H   -1.231309    3.512060   -0.669266
 H    2.170476   -0.677234    1.712665
 H    5.393931   -0.221205    0.094914
