35 
4u0x_ligand_dft.xyz
 B   -5.587436  -11.916037   -8.733588
 O   -5.853486  -13.159573   -8.246579
 O   -6.009893  -10.726694   -8.208190
 N   -2.657960  -11.481364   -8.757205
 N   -3.062072  -11.649424   -7.478461
 N   -2.468605  -10.762776   -6.751286
 C   -4.720757  -11.839498  -10.068295
 C   -3.271809  -12.294248   -9.799375
 N   -4.732039  -10.504854  -10.633743
 C   -4.287258  -10.270511  -11.894613
 C   -4.097354   -8.800943  -12.258562
 C   -2.687090   -8.423173  -11.888667
 C   -1.535998   -8.965587  -12.386550
 C   -0.361719   -8.459363  -11.751615
 C   -0.640854   -7.547743  -10.777302
 O   -3.973389  -11.168577  -12.663031
 C   -1.671175  -10.006326   -7.554091
 C   -1.794267  -10.458979   -8.852967
 C   -0.829463   -8.902104   -7.074430
 O   -0.086501   -8.254503   -7.780690
 O   -0.962717   -8.676194   -5.759765
 S   -2.337989   -7.290530  -10.625112
 H   -6.253839  -13.181013   -7.371459
 H   -6.442419  -10.779012   -7.349803
 H   -5.125476  -12.534407  -10.812724
 H   -3.251882  -13.333337   -9.464616
 H   -2.672426  -12.192380  -10.705870
 H   -4.952131   -9.734367  -10.019592
 H   -4.825416   -8.158759  -11.752315
 H   -4.248968   -8.704404  -13.336458
 H   -1.540293   -9.716358  -13.168739
 H    0.646008   -8.764905  -12.007401
 H    0.044731   -7.037916  -10.117107
 H   -1.348832  -10.134482   -9.782735
 H   -0.363227   -7.940661   -5.557062
