25 
4u43_ligand_dft.xyz
 C    2.821200   -1.384284    0.000861
 C    4.627389   -0.000901   -0.000552
 C   -3.723382   -1.698469   -0.000773
 C   -0.554175    0.150541    0.000431
 C   -1.830291   -0.494022    0.000128
 C   -2.320483   -1.793396   -0.000547
 C   -4.069834   -0.356976   -0.000379
 C    1.913678   -0.315636    0.000356
 C    3.814689    1.125688   -0.001037
 C    2.432012    0.980522   -0.000592
 N    4.139716   -1.244641    0.000365
 N    0.550129   -0.645987    0.000681
 N   -2.922669    0.362223    0.000152
 N   -2.846393    1.721167    0.000213
 C   -1.623576    2.163185    0.000412
 N   -0.456352    1.463126    0.000485
 H    2.448257   -2.410082    0.001528
 H    5.710519    0.090773   -0.000850
 H   -4.421374   -2.523427   -0.001167
 H   -1.740464   -2.706272   -0.000634
 H   -5.024837    0.144369   -0.000339
 H    4.255648    2.117164   -0.001710
 H    1.766378    1.831871   -0.000837
 H    0.359620   -1.637304    0.000372
 H   -1.528127    3.244174    0.000501
