30 
4u54_ligand_xtb.xyz
 C   -1.920244   -0.006740   -0.035530
 C    5.052565   -1.541201   -0.085027
 N    3.819149   -0.796964   -0.401608
 C    2.986927   -0.452477    0.796377
 C    1.798604    0.366362    0.368169
 C    0.528751   -0.189825    0.342594
 C   -0.572003    0.568979   -0.051786
 C   -0.367854    1.892280   -0.442325
 C    0.899249    2.445183   -0.429152
 C    1.984830    1.689393   -0.022221
 C   -3.008602    0.735952    0.431486
 N   -4.241178    0.277784    0.466678
 C   -4.474395   -0.952869    0.047005
 C   -3.471821   -1.792791   -0.419055
 C   -2.176877   -1.308784   -0.463421
 H    5.679996   -0.951059    0.580297
 H    4.802773   -2.477820    0.409805
 H    5.610270   -1.760112   -0.993335
 H    3.237808   -1.343506   -1.049349
 H    4.051217    0.084351   -0.879213
 H    3.616873    0.109850    1.489023
 H    2.672409   -1.379800    1.277336
 H    0.380172   -1.209506    0.667444
 H   -1.209007    2.485484   -0.764433
 H    1.042523    3.471131   -0.729421
 H    2.968027    2.137556    0.014316
 H   -2.870537    1.738938    0.813581
 H   -5.505512   -1.274769    0.086612
 H   -3.701047   -2.793632   -0.748472
 H   -1.376544   -1.923611   -0.852361
