30 
4u54_ligand_dft.xyz
 C   -1.887007   -0.005347   -0.030766
 C    4.874206   -1.779105   -0.118747
 N    3.659955   -0.954178   -0.395806
 C    3.040418   -0.285388    0.823259
 C    1.841832    0.507854    0.397902
 C    0.580104   -0.089065    0.388343
 C   -0.544236    0.618562   -0.047049
 C   -0.368558    1.938943   -0.480647
 C    0.885053    2.540258   -0.467384
 C    1.995925    1.829040   -0.028214
 C   -3.002927    0.717174    0.407502
 N   -4.238521    0.227321    0.451258
 C   -4.417021   -1.033567    0.053922
 C   -3.380747   -1.850598   -0.391996
 C   -2.097344   -1.325661   -0.435014
 H    5.636787   -1.135999    0.320743
 H    4.603602   -2.569799    0.581134
 H    5.235850   -2.209063   -1.052965
 H    2.935223   -1.526864   -0.840424
 H    3.877508   -0.220546   -1.078210
 H    3.828597    0.332723    1.259884
 H    2.794737   -1.091982    1.518063
 H    0.454176   -1.101791    0.767261
 H   -1.226539    2.498401   -0.840270
 H    0.994898    3.567712   -0.797647
 H    2.971256    2.309924    0.003703
 H   -2.885053    1.740045    0.761805
 H   -5.436945   -1.407240    0.093502
 H   -3.581852   -2.868419   -0.707817
 H   -1.270474   -1.927701   -0.803582
