49 
4u5l_ligand_dft.xyz
 C    2.944277   -2.319167    0.305600
 C   -0.545260   -2.053110   -1.105800
 C   -2.645625   -1.271069   -0.029598
 C   -4.879260   -0.959552   -0.843428
 C   -2.760204   -0.001410    0.528302
 C   -0.692276   -2.113164    1.301610
 C    0.671576   -2.366503    1.380316
 N    5.028898    0.687744   -1.112817
 C    3.968724    1.245320   -0.450816
 C    2.816049    0.251712   -0.152594
 C    1.677658    0.931271    0.610276
 C    0.743053    1.731252   -0.306235
 C   -0.287232    2.526607    0.512147
 C   -1.423686    3.064759   -0.361072
 N   -2.667124    3.343439    0.445819
 N    3.406886   -0.899115    0.660215
 C    1.449138   -2.376744    0.219024
 C    0.822835   -2.284223   -1.024973
 C   -1.298975   -1.892616    0.059396
 C   -3.743837   -1.758217   -0.739069
 C   -4.867706    0.319563   -0.296075
 N   -3.813441    0.802819    0.377375
 O    3.940314    2.373580   -0.020928
 H    3.363424   -2.965741    1.080751
 H    3.422814   -2.557326   -0.646713
 H   -1.015073   -1.927126   -2.076710
 H   -5.760267   -1.312245   -1.367320
 H   -1.926382    0.395658    1.099547
 H   -1.285473   -2.057811    2.209485
 H    1.133003   -2.512767    2.354516
 H    4.878102   -0.032621   -1.807713
 H    5.790670    1.323061   -1.327163
 H    2.455644   -0.196538   -1.083728
 H    1.083263    0.172004    1.127334
 H    2.123151    1.597009    1.357538
 H    0.221845    1.029643   -0.971086
 H    1.322406    2.417333   -0.932985
 H    0.209968    3.355626    1.028166
 H   -0.698522    1.877771    1.294467
 H   -1.728935    2.338517   -1.118197
 H   -1.135939    3.989266   -0.864961
 H   -3.231315    2.436363    0.579861
 H   -2.452387    3.755345    1.358185
 H   -3.281626    4.002344   -0.040927
 H    4.431286   -0.865518    0.568873
 H    3.206965   -0.724756    1.650545
 H    1.405929   -2.357655   -1.939778
 H   -3.715609   -2.742027   -1.197641
 H   -5.721466    0.981083   -0.403135
