49 
4u5l_ligand_xtb.xyz
 C    2.853919   -2.279749    0.181479
 C   -0.716544   -2.199929   -1.079662
 C   -2.725052   -1.213501   -0.010631
 C   -4.986946   -0.898305   -0.749367
 C   -2.780865    0.086786    0.468987
 C   -0.716362   -1.839582    1.298310
 C    0.640702   -2.084832    1.335965
 N    4.234954    2.054578   -1.155525
 C    4.256554    0.914488   -0.489365
 C    2.896119    0.237761   -0.128011
 C    1.929866    1.161574    0.637355
 C    0.769992    1.672545   -0.227742
 C   -0.215858    2.526275    0.579210
 C   -1.382985    3.022943   -0.288844
 N   -2.627181    3.217455    0.482914
 N    3.325889   -0.950136    0.653223
 C    1.348700   -2.293717    0.154932
 C    0.651622   -2.408014   -1.040975
 C   -1.395043   -1.839934    0.080287
 C   -3.865906   -1.712601   -0.641618
 C   -4.936612    0.413548   -0.303060
 N   -3.834963    0.874178    0.287552
 O    5.260362    0.328057   -0.122827
 H    3.246094   -3.039746    0.861333
 H    3.262450   -2.463819   -0.813347
 H   -1.242135   -2.250549   -2.020415
 H   -5.888755   -1.270046   -1.209365
 H   -1.935931    0.521313    0.977292
 H   -1.254340   -1.639499    2.212033
 H    1.150953   -2.088883    2.288279
 H    3.389033    2.502549   -1.463188
 H    5.117537    2.485972   -1.396388
 H    2.427173   -0.106480   -1.054740
 H    1.497273    0.606998    1.473304
 H    2.474323    2.009081    1.057839
 H    0.240660    0.814346   -0.651247
 H    1.148578    2.269731   -1.058417
 H    0.309446    3.383124    1.003319
 H   -0.596173    1.941441    1.419824
 H   -1.603318    2.288081   -1.070894
 H   -1.079481    3.948002   -0.788052
 H   -3.599703    1.921106    0.490866
 H   -2.414353    3.620481    1.392274
 H   -3.208822    3.899079    0.001142
 H    4.409359   -0.844533    0.559466
 H    3.091116   -0.837109    1.642717
 H    1.179074   -2.636807   -1.954350
 H   -3.878532   -2.717912   -1.034431
 H   -5.767114    1.092558   -0.422875
