93 
4u5n_ligand_xtb.xyz
 N    0.832993   -0.748374   -0.911399
 C    1.384227    0.420921   -0.170956
 C   -5.444421    4.856854    1.312427
 C   -7.471132   -4.701646    0.142654
 C   -6.396376   -4.794842    1.010492
 C   -7.720946   -3.511042   -0.521537
 C    9.050247   -1.666667    1.114362
 C    9.225775   -0.402205    0.572044
 C   -5.568924   -3.701645    1.211124
 C   -6.898190   -2.417268   -0.319323
 C    7.830771   -2.319894    0.978195
 C    3.466532   -2.258821   -1.324330
 C    3.236031   -2.320342    1.062193
 C    4.838833   -2.189340   -1.190671
 C    4.612903   -2.288224    1.201105
 C    7.099796   -0.483503   -0.340316
 C   -0.695497    3.327146    1.172864
 C    0.206190    1.403597    0.002574
 O   -0.788642    1.263105   -0.688815
 N   -3.308404   -3.112164   -0.908861
 O   -1.817961   -1.421930   -0.836328
 O   -2.187086    1.514981    1.690155
 O   -4.103223    2.032955   -1.886306
 O   -4.824278    4.499299   -1.025297
 C    2.550597    1.080011   -0.939527
 C    1.162588   -2.089674   -0.348162
 C   -4.935326   -1.294158    0.786612
 C   -2.967886   -1.843374   -0.748229
 C   -2.041844    2.609291    1.155637
 C   -4.492908    1.615935   -0.631082
 C    2.650480   -2.251824   -0.195887
 C   -5.812883   -2.502830    0.547791
 C    5.419669   -2.152437    0.076114
 C    6.820303   -1.716988    0.226725
 C   -5.343820    3.883507    0.143917
 C   -4.134607   -0.887585   -0.461644
 C   -4.382074    2.714537    0.455334
 N    8.244714    0.157581   -0.134206
 N    0.360562    2.362865    0.913211
 N   -3.028695    3.234540    0.512745
 N   -3.578051    0.473748   -0.295186
 C    3.644031    1.661854   -0.035262
 C    4.826151    2.200425   -0.852093
 C    5.990109    2.643679    0.047454
 N    7.294123    2.598621   -0.642659
 H   -0.220925   -0.656490   -0.936848
 H    1.139648   -0.705910   -1.887975
 H    1.728236    0.073825    0.807149
 H   -6.119140    5.670741    1.059276
 H   -5.840718    4.354804    2.189580
 H   -4.472599    5.279227    1.555529
 H   -8.120400   -5.549021   -0.006469
 H   -6.206220   -5.713958    1.541427
 H   -8.565162   -3.430224   -1.187333
 H    9.854312   -2.124014    1.669142
 H   10.138677    0.158234    0.707054
 H   -4.743152   -3.773462    1.904543
 H   -7.116873   -1.486723   -0.823743
 H    7.670378   -3.281905    1.441051
 H    3.032340   -2.297198   -2.312914
 H    2.617112   -2.381213    1.944494
 H    5.465114   -2.159217   -2.068740
 H    5.055557   -2.308276    2.184682
 H    6.366731    0.024618   -0.944237
 H   -0.675007    4.124456    0.424350
 H   -0.539456    3.758232    2.163323
 H   -4.258565   -3.425388   -0.746331
 H   -2.606351   -3.808850   -1.106939
 H   -4.327976    2.974045   -2.010898
 H   -5.357829    5.272356   -1.245791
 H    3.021853    0.321373   -1.568699
 H    2.164226    1.861443   -1.596983
 H    0.750644   -2.840297   -1.025318
 H    0.661143   -2.184739    0.615835
 H   -5.577084   -0.457133    1.071945
 H   -4.250081   -1.488516    1.614206
 H   -5.526694    1.230005   -0.633401
 H   -6.339045    3.465246   -0.065651
 H   -4.785409   -0.887076   -1.343906
 H   -4.638774    2.278709    1.427518
 H    1.179518    2.390932    1.499365
 H   -2.884648    4.097855    0.006320
 H   -3.176877    0.616626    0.675915
 H   -2.747973    0.570324   -0.915868
 H    4.001187    0.876107    0.636144
 H    3.246914    2.473814    0.574610
 H    5.163214    1.428136   -1.546800
 H    4.494998    3.045748   -1.456915
 H    6.064596    1.976476    0.913585
 H    5.774837    3.647551    0.426966
 H    8.185302    1.188287   -0.444781
 H    7.925632    3.252531   -0.185481
 H    7.193220    2.932224   -1.598378
