49 
4u5o_ligand_dft.xyz
 C   -3.974827   -1.370512   -0.827956
 C   -5.013933   -0.464849   -1.023676
 C   -4.929421    0.807773   -0.465033
 N   -3.907246    1.176660    0.320128
 C   -2.966501    0.266251    0.566430
 C   -2.906079   -0.998039   -0.010297
 C   -1.612490   -1.703733    0.155628
 C   -1.004771   -1.764188    1.414535
 C    0.346532   -2.059345    1.528810
 C   -0.878759   -2.085307   -0.972149
 C    0.471294   -2.392274   -0.854734
 C    1.106476   -2.307990    0.386890
 C    2.602797   -2.410011    0.468122
 N    3.268947   -1.260264   -0.266753
 C    3.492725    0.069415    0.418332
 C    4.071553    0.946554   -0.712415
 O    3.741867    0.687127   -1.860919
 N    4.839855    1.979931   -0.340953
 C    2.247104    0.738845    1.029954
 C    1.164267    1.218330    0.049883
 C    0.107493    2.085565    0.756225
 C   -0.895906    2.650614   -0.252521
 N   -2.095755    3.296465    0.406334
 H   -3.997964   -2.346768   -1.302986
 H   -5.870000   -0.727478   -1.634781
 H   -5.692415    1.555694   -0.654957
 H   -2.163495    0.577586    1.228756
 H   -1.584505   -1.545310    2.306495
 H    0.813005   -2.069099    2.510597
 H   -1.346583   -2.081038   -1.952039
 H    1.031479   -2.661844   -1.748288
 H    2.976979   -3.315213   -0.017831
 H    2.972540   -2.395340    1.495578
 H    4.192675   -1.578109   -0.577982
 H    2.784496   -1.038383   -1.150646
 H    4.222678   -0.120693    1.210645
 H    5.231682    2.569198   -1.065378
 H    5.198129    2.092134    0.596204
 H    1.812245    0.079328    1.785777
 H    2.644329    1.603447    1.575638
 H    1.620831    1.794622   -0.762815
 H    0.667150    0.356621   -0.412101
 H    0.596653    2.916309    1.280451
 H   -0.401614    1.482758    1.517243
 H   -1.295568    1.869658   -0.903544
 H   -0.419877    3.408118   -0.878376
 H   -2.919315    2.611881    0.494451
 H   -1.873262    3.671254    1.332776
 H   -2.441152    4.081515   -0.152991
