90 
4u5s_ligand_xtb.xyz
 C    8.447142    0.033668    0.731113
 C    9.461966    0.976793    0.748327
 C    9.537882    1.931799   -0.250554
 C    8.602086    1.935074   -1.272556
 C    7.591749    0.990548   -1.293230
 C    7.499898    0.033024   -0.288028
 C    6.403860   -1.003099   -0.320845
 C    5.001968   -0.402127   -0.181203
 C    4.653213    0.083383    1.247600
 O    3.597932   -0.246590    1.764465
 N    5.548165    0.884806    1.818482
 N    3.995047   -1.390569   -0.525581
 C    2.712114   -1.009613   -0.541604
 O    2.309070    0.113954   -0.785495
 C    1.662889   -2.111997   -0.281036
 C    1.277796   -2.902651   -1.547104
 C    0.707286   -2.009803   -2.648516
 O    0.332432   -3.849615   -1.095929
 N    0.488659   -1.384810    0.218618
 C    0.523529   -1.093063    1.661063
 C   -0.511943   -0.044168    2.079154
 N   -1.885155   -0.545248    2.150544
 C   -2.562582   -1.297831    1.266781
 O   -2.083694   -1.857302    0.297048
 C   -4.066006   -1.444241    1.584583
 N   -4.613895   -2.463733    0.710407
 C   -4.849500   -2.330145   -0.612508
 O   -4.945027   -1.243025   -1.171483
 C   -5.059672   -3.629795   -1.333732
 C   -4.759443   -0.078913    1.434996
 C   -6.280924   -0.169916    1.578027
 C   -6.982266    1.128330    1.154066
 C   -7.520171    1.102638   -0.272705
 N   -6.439796    0.985363   -1.275926
 C   -0.429010    1.236238    1.225350
 O   -0.737226    0.946846   -0.125199
 C   -0.757189    2.085501   -0.972261
 C   -2.064366    2.829191   -0.879839
 C   -2.146130    4.191709   -0.611530
 C   -3.394085    4.791249   -0.530043
 C   -4.520433    4.004194   -0.700360
 N   -4.448113    2.702319   -0.953240
 C   -3.253659    2.133041   -1.053915
 H    8.401376   -0.717842    1.506712
 H   10.195725    0.958640    1.538966
 H   10.329543    2.664085   -0.239807
 H    8.666139    2.668716   -2.061058
 H    6.879100    0.986117   -2.105317
 H    6.564969   -1.737948    0.471297
 H    6.443660   -1.523876   -1.281236
 H    4.877360    0.453876   -0.853616
 H    5.383404    1.217227    2.755914
 H    6.439512    1.075571    1.382574
 H    4.207299   -2.333302   -0.229965
 H    2.006047   -2.820519    0.476663
 H    2.183537   -3.407622   -1.915699
 H   -0.279392   -1.644526   -2.371637
 H    1.364805   -1.166587   -2.837029
 H    0.611287   -2.577624   -3.570581
 H    0.074457   -4.422553   -1.825674
 H   -0.433244   -1.845680    0.003334
 H    0.508622   -0.462920   -0.284564
 H    0.352970   -2.018616    2.216220
 H    1.518672   -0.707682    1.908488
 H   -0.253834    0.246931    3.102423
 H   -2.423671   -0.154155    2.908363
 H   -4.185695   -1.804371    2.612123
 H   -4.492428   -3.410188    1.039708
 H   -5.336660   -3.437134   -2.366304
 H   -4.139837   -4.210869   -1.316622
 H   -5.842751   -4.212645   -0.853657
 H   -4.491739    0.334778    0.466502
 H   -4.375743    0.594958    2.203516
 H   -6.517403   -0.388211    2.619599
 H   -6.663320   -1.000192    0.984559
 H   -6.303794    1.973813    1.275222
 H   -7.836312    1.302951    1.807596
 H   -8.071226    2.025300   -0.463965
 H   -8.209712    0.264049   -0.390518
 H   -6.820701    1.043982   -2.220549
 H   -5.673463    1.761897   -1.149489
 H   -5.936250    0.069363   -1.193900
 H    0.589250    1.642034    1.299231
 H   -1.131841    1.981666    1.623293
 H   -0.631246    1.690637   -1.984633
 H    0.088050    2.744443   -0.746431
 H   -1.248677    4.776247   -0.475727
 H   -3.491304    5.846113   -0.333394
 H   -5.515227    4.421121   -0.634169
 H   -3.238586    1.075410   -1.284103
