49 
4u5u_ligand_xtb.xyz
 C   -4.480687    1.183684    0.212225
 C   -1.722682   -3.008336   -0.781699
 C   -1.555291   -1.863615   -0.006534
 C   -2.625978   -0.864197    0.118369
 C   -3.988017   -1.164826    0.233389
 C   -4.912091   -0.131957    0.288674
 C   -0.656171   -3.867080   -0.982505
 C    0.585295   -3.586144   -0.436465
 C    0.764366   -2.460044    0.359983
 C   -0.315857   -1.618851    0.585543
 C    2.109856   -2.182637    0.989821
 N   -3.183146    1.457455    0.099146
 C   -2.283156    0.480161    0.062300
 N    2.474650   -0.749137    0.956007
 C    2.853459   -0.139732   -0.341959
 C    4.200879    0.574265   -0.009137
 O    4.603170    0.444507    1.135460
 N    4.810332    1.249695   -0.966100
 C    1.774937    0.782395   -0.921206
 C    1.335082    1.925600    0.001820
 C    0.282529    2.813222   -0.680282
 C   -0.543297    3.635118    0.322454
 N   -1.941134    3.777697   -0.125404
 H   -5.168195    2.015060    0.238650
 H   -2.673307   -3.212302   -1.247919
 H   -4.315022   -2.191504    0.292581
 H   -5.964827   -0.344053    0.385135
 H   -0.788289   -4.753816   -1.581121
 H    1.412143   -4.254966   -0.617208
 H   -0.229807   -0.778987    1.262128
 H    2.887699   -2.758165    0.485021
 H    2.092281   -2.496314    2.038683
 H   -1.255999    0.784090   -0.041212
 H    3.377686   -0.522904    1.524102
 H    1.721978   -0.206201    1.387888
 H    3.062497   -0.939196   -1.059817
 H    5.703282    1.676886   -0.757700
 H    4.490638    1.275999   -1.919769
 H    0.909720    0.166757   -1.183687
 H    2.151959    1.208966   -1.851227
 H    2.195534    2.531839    0.286839
 H    0.901382    1.528167    0.925220
 H   -0.393427    2.187448   -1.268077
 H    0.776873    3.482743   -1.383760
 H   -0.071046    4.609882    0.474024
 H   -0.576482    3.135316    1.295359
 H   -1.964156    4.154559   -1.070730
 H   -2.761732    2.495941   -0.001431
 H   -2.410701    4.456569    0.470054
