72 
4u79_ligand_dft.xyz
 C   -7.056764    1.130912    0.370467
 C   -7.673731    1.619761   -0.945161
 C   -8.915354    0.792345   -1.257522
 N   -9.499940    1.251720   -2.590481
 C   -8.625774   -0.703242   -1.334942
 C   -7.990475   -1.182737   -0.023966
 C   -6.735798   -0.372801    0.313129
 N   -6.149602   -0.861321    1.531307
 C   -4.841348   -0.626679    1.873725
 N   -4.064762   -0.040679    0.962750
 N   -4.485677   -1.035678    3.099840
 C   -3.206882   -0.840747    3.401368
 C   -2.286948   -0.268242    2.528488
 C   -2.769596    0.131262    1.283217
 C   -1.945515    0.799680    0.245338
 C   -2.568399    1.576768   -0.730166
 C   -1.827083    2.202750   -1.723589
 C   -0.451798    2.016660   -1.715561
 N    0.177056    1.274344   -0.804882
 C   -0.541814    0.693241    0.137411
 O    0.106544   -0.068985    1.050451
 C    1.445073   -0.377316    0.828478
 C    2.410220    0.342425    1.468503
 C    3.762835   -0.023007    1.309360
 C    1.750175   -1.488210   -0.000652
 C    0.743038   -2.254182   -0.639148
 C    1.081424   -3.298065   -1.459617
 C    2.439276   -3.614700   -1.684866
 C    3.431844   -2.897396   -1.069103
 C    3.118460   -1.825011   -0.195786
 C    4.116390   -1.070529    0.496153
 N    5.503582   -1.376440    0.368601
 S    6.387989   -0.660471   -0.877400
 O    7.623030   -1.426495   -0.915899
 O    5.563116   -0.498422   -2.063883
 C    6.699983    0.959909   -0.215462
 C    7.706392    1.117826    0.733783
 C    7.925633    2.379530    1.273134
 C    7.143808    3.459305    0.864085
 C    6.144020    3.285235   -0.088926
 C    5.915642    2.027229   -0.639012
 H   -7.745133    1.326536    1.203019
 H   -6.136638    1.685178    0.571212
 H   -6.941238    1.496518   -1.756200
 H   -7.922414    2.685806   -0.879030
 H   -9.703185    0.993283   -0.524160
 H   -9.730231    2.250648   -2.576437
 H   -8.824860    1.101881   -3.348070
 H  -10.351928    0.733985   -2.829762
 H   -7.928357   -0.894388   -2.162940
 H   -9.544454   -1.267053   -1.536474
 H   -7.737615   -2.242668   -0.110839
 H   -8.722757   -1.091259    0.790376
 H   -5.992257   -0.524975   -0.479217
 H   -6.738980   -1.166307    2.291916
 H   -2.897768   -1.157814    4.394726
 H   -1.255033   -0.132234    2.813004
 H   -3.647999    1.673026   -0.689716
 H   -2.298333    2.817307   -2.482238
 H    0.182373    2.477979   -2.468439
 H    2.131682    1.181681    2.095935
 H    4.540613    0.521867    1.833181
 H   -0.299054   -2.009678   -0.462082
 H    0.305469   -3.882632   -1.944210
 H    2.698377   -4.428475   -2.354676
 H    4.469713   -3.137203   -1.271848
 H    5.765104   -2.355531    0.434173
 H    8.308495    0.266173    1.032440
 H    8.710222    2.522347    2.009169
 H    7.320448    4.443144    1.287972
 H    5.542842    4.130088   -0.409506
 H    5.147333    1.866060   -1.387161
