72 
4u79_ligand_xtb.xyz
 C   -7.382636    0.728328    0.924539
 C   -8.056985    1.666009   -0.076709
 C   -9.097406    0.889944   -0.873238
 N   -9.747206    1.814652   -1.877615
 C   -8.469868   -0.286198   -1.610490
 C   -7.788283   -1.217353   -0.606774
 C   -6.729208   -0.454737    0.190966
 N   -6.042981   -1.334979    1.089821
 C   -4.742983   -1.137187    1.436617
 N   -4.078551   -0.173794    0.806379
 N   -4.254809   -1.954986    2.369365
 C   -2.979207   -1.790648    2.673129
 C   -2.177613   -0.837378    2.066052
 C   -2.785301   -0.026873    1.106170
 C   -2.090394    1.048290    0.394123
 C   -2.794025    2.174121   -0.012759
 C   -2.147737    3.198235   -0.686353
 C   -0.794226    3.052123   -0.933055
 N   -0.106286    1.982977   -0.576383
 C   -0.714638    0.998095    0.060225
 O   -0.051603   -0.120568    0.366423
 C    1.292994   -0.309559    0.084108
 C    2.247096    0.665404    0.205765
 C    3.589699    0.364895   -0.034125
 C    1.656906   -1.637309   -0.263766
 C    0.689889   -2.658784   -0.370946
 C    1.045713   -3.930878   -0.719599
 C    2.388462   -4.234851   -0.977672
 C    3.348463   -3.265698   -0.876891
 C    3.021633   -1.940914   -0.517753
 C    3.989457   -0.899369   -0.401202
 N    5.336854   -1.136165   -0.623511
 S    6.365546    0.004758   -1.330779
 O    7.427337   -0.784969   -1.876284
 O    5.627531    0.878323   -2.191140
 C    6.967804    0.911874    0.084269
 C    7.612962    0.216038    1.087013
 C    8.095746    0.910561    2.183924
 C    7.930202    2.285542    2.258325
 C    7.286294    2.972313    1.241077
 C    6.800632    2.281114    0.142498
 H   -8.115236    0.356011    1.642736
 H   -6.614558    1.268811    1.475610
 H   -7.295436    2.064636   -0.750127
 H   -8.522389    2.497795    0.455608
 H   -9.886529    0.532699   -0.205481
 H  -10.185409    2.615668   -1.405905
 H   -9.026707    2.169059   -2.520962
 H  -10.458088    1.315871   -2.427255
 H   -7.720076    0.076470   -2.316526
 H   -9.229751   -0.841160   -2.163935
 H   -7.319161   -2.045086   -1.136405
 H   -8.530708   -1.633407    0.076799
 H   -5.956621   -0.065183   -0.481797
 H   -6.563857   -1.960830    1.682646
 H   -2.591726   -2.452407    3.436326
 H   -1.144396   -0.719643    2.336999
 H   -3.846967    2.231393    0.221602
 H   -2.674840    4.085222   -0.999152
 H   -0.220954    3.815633   -1.440639
 H    1.970587    1.668659    0.482336
 H    4.326854    1.143934    0.059158
 H   -0.341616   -2.412211   -0.168511
 H    0.297818   -4.705501   -0.799937
 H    2.662574   -5.240753   -1.257898
 H    4.375816   -3.530429   -1.081180
 H    5.592850   -2.068667   -0.905710
 H    7.735219   -0.850876    0.992726
 H    8.603412    0.382955    2.976686
 H    8.310261    2.825190    3.112699
 H    7.166261    4.043250    1.300982
 H    6.298700    2.779640   -0.672214
