66 
4ua8_ligand_dft.xyz
 C   -5.705202    0.927111    1.381476
 C   -5.769875   -0.315921    0.487354
 C   -4.368920   -0.837353    0.211301
 C   -3.488398    0.273734   -0.344067
 C   -3.508903    1.482219    0.589295
 C   -2.830944    2.712758    0.004694
 O   -5.257073    0.578409    2.661324
 O   -6.531677   -1.292988    1.167819
 O   -4.501422   -1.929713   -0.669101
 O   -2.159414   -0.212970   -0.439167
 O   -4.861175    1.886622    0.815238
 O   -2.889803    3.792756    0.901525
 C   -1.690526   -0.584209   -1.696588
 C   -0.986374   -1.936653   -1.588306
 C    0.238444   -1.815628   -0.697217
 C    1.149868   -0.713818   -1.231842
 C    0.360151    0.585705   -1.376997
 C    1.128544    1.709750   -2.048661
 O   -1.882116   -2.903567   -1.081861
 O    0.853875   -3.083855   -0.676124
 O    2.205586   -0.492338   -0.314870
 O   -0.785376    0.364264   -2.205834
 O    0.339228    2.870450   -2.139094
 C    3.423906   -1.127082   -0.567182
 C    3.907803   -1.799985    0.718539
 C    4.169392   -0.740560    1.770451
 C    5.178769    0.270317    1.247932
 C    4.683287    0.835715   -0.093797
 C    5.730733    1.683249   -0.801297
 O    2.936981   -2.728966    1.158796
 O    4.627503   -1.412116    2.926679
 O    5.299363    1.258049    2.243938
 O    4.391115   -0.213063   -1.013375
 O    6.123476    2.720774    0.084856
 H   -6.687614    1.412860    1.431901
 H   -6.244010   -0.041650   -0.466025
 H   -3.925716   -1.158448    1.165838
 H   -3.857690    0.573130   -1.335624
 H   -3.036965    1.219780    1.543434
 H   -1.776104    2.511947   -0.197766
 H   -3.321108    2.954220   -0.954223
 H   -5.631503   -0.298810    2.837327
 H   -6.344796   -2.129011    0.716176
 H   -3.643734   -2.392235   -0.712067
 H   -3.811255    3.844396    1.190595
 H   -2.508493   -0.636140   -2.421810
 H   -0.659406   -2.220982   -2.599197
 H   -0.088519   -1.524594    0.311012
 H    1.549704   -1.011139   -2.212088
 H    0.034209    0.919994   -0.384195
 H    1.469746    1.369176   -3.039954
 H    2.009354    1.959112   -1.452679
 H   -1.330845   -3.637387   -0.772004
 H    1.494304   -3.093976    0.060022
 H   -0.490163    2.597480   -2.554409
 H    3.320663   -1.865087   -1.368440
 H    4.849323   -2.319653    0.492058
 H    3.228830   -0.211634    1.980477
 H    6.139366   -0.246822    1.080673
 H    3.787140    1.439621    0.098687
 H    6.581200    1.038872   -1.066119
 H    5.301366    2.088821   -1.726330
 H    3.126790   -2.906578    2.090936
 H    4.831479   -0.729730    3.580218
 H    5.808152    1.987849    1.856506
 H    6.823187    3.236520   -0.329455
