30 
4uau_ligand_xtb.xyz
 C   -2.153011    0.900121   -1.145407
 C   -1.533104    1.530148    0.066562
 C   -0.586166    2.688157   -0.153463
 C    0.813318    2.114785   -0.552284
 C    1.433606    1.316450    0.606554
 O   -2.866755   -0.261731   -0.800937
 O   -1.734678    1.092966    1.179242
 O   -0.491145    3.480199    0.991416
 O    0.683257    1.351031   -1.716686
 O    2.613671    0.694654    0.143483
 P   -2.067442   -1.364275    0.035719
 P    2.634184   -0.930736    0.172949
 O   -2.641385   -2.661307   -0.654181
 O   -2.690980   -1.480303    1.485359
 O   -0.603401   -1.206084   -0.033466
 O    2.296826   -1.503775    1.474646
 O    1.780899   -1.383453   -1.074451
 O    4.104470   -1.185599   -0.349440
 H   -1.341657    0.688131   -1.854833
 H   -2.865846    1.586576   -1.610697
 H   -0.932410    3.317411   -0.979468
 H    1.460966    2.983167   -0.752198
 H    0.741474    0.556654    0.980341
 H    1.702366    1.998544    1.418543
 H   -0.673542    2.914882    1.757636
 H    1.391897    0.687966   -1.723707
 H   -2.539058   -3.438734   -0.107459
 H   -2.414961   -0.747147    2.040213
 H    0.853746   -1.495991   -0.781262
 H    4.661820   -1.417040    0.391223
