28 
4ucc_ligand_xtb.xyz
 O    2.206280    3.145039   -1.470424
 C    1.431822    2.367837   -0.987453
 O    0.110892    2.598126   -1.014285
 C    1.894722    1.105095   -0.369573
 C    3.048270    0.420920   -0.719939
 C    3.074233   -0.703757    0.125054
 C    4.044120   -1.823644    0.169220
 O    3.812123   -2.885381    0.669739
 O    5.226908   -1.571264   -0.421835
 N    2.023998   -0.678439    0.938496
 N    1.327035    0.396033    0.646439
 C    0.132164    0.663304    1.410399
 C   -1.075625   -0.001634    0.785962
 C   -0.988882   -1.336701    0.401914
 C   -2.284898    0.664428    0.596746
Cl   -2.472926    2.323258    1.075302
 C   -3.373854    0.018938    0.030668
 C   -3.254666   -1.307494   -0.353594
Cl   -4.606229   -2.105793   -1.058144
 C   -2.061599   -1.992649   -0.168742
 H   -0.435370    1.879368   -0.667976
 H    3.723345    0.707946   -1.500748
 H    5.292738   -0.669847   -0.763597
 H   -0.016874    1.739426    1.520810
 H    0.301560    0.227540    2.400464
 H   -0.059433   -1.863653    0.563642
 H   -4.303993    0.545568   -0.107161
 H   -1.978024   -3.026417   -0.461187
