41 
4uco_ligand_xtb.xyz
 O  112.149173   85.901747   28.491454
 C  111.666323   87.002031   28.714314
 N  111.784839   87.570351   29.938040
 C  110.929141   87.793499   27.700978
 C  110.818060   89.159539   27.769862
 C  110.335757   87.132113   26.564235
 N  110.442023   85.803738   26.425487
 N  109.652765   87.783788   25.645863
 C  109.509702   89.107380   25.733902
 N  108.802072   89.694560   24.760134
 C  108.679860   90.999835   24.797270
 C  107.895449   91.640968   23.675007
 C  107.842310   93.159308   23.834529
 C  106.478992   91.056517   23.695388
 C  108.581291   91.272014   22.355039
 C  110.098918   89.872484   26.795573
 C  109.885487   91.273895   26.737488
 N  109.185422   91.800191   25.733650
 C  110.345399   92.269707   27.678835
 N  110.014314   93.568144   27.401599
 C  110.501894   94.390243   28.344687
 C  111.171676   93.625021   29.272842
 C  111.076021   92.292208   28.860007
 H  112.250006   87.039883   30.656115
 H  111.287941   88.401645   30.199792
 H  111.314701   89.705159   28.555093
 H  110.087049   85.394659   25.579221
 H  111.099254   85.314465   27.019644
 H  107.281497   93.597023   23.011704
 H  107.355633   93.426763   24.769247
 H  108.846205   93.576772   23.833176
 H  105.904068   91.437123   22.854086
 H  106.530774   89.973316   23.632350
 H  105.968195   91.327610   24.617291
 H  108.009869   91.658495   21.514061
 H  109.584501   91.692005   22.316957
 H  108.654250   90.191401   22.272083
 H  109.475836   93.794268   26.578740
 H  111.506593   91.465995   29.387902
 H  110.352002   95.451435   28.308029
 H  111.674738   93.982701   30.149327
