21 
4ucs_ligand_xtb.xyz
 C    2.787595   -0.770872    0.010067
 N    2.666895   -2.107155   -0.009615
 O    3.825856   -0.145055    0.060757
 C   -0.536035    0.178041   -0.009352
 N    1.550695   -0.126955   -0.028727
 O   -2.819681    0.952566    0.012836
 C    1.291154    1.229743   -0.011045
 N    0.356479   -0.789488   -0.028412
 C   -1.948638   -0.074871   -0.000733
 N   -0.003180    1.433331    0.003014
 C   -4.048856    0.427873    0.017633
 N    2.267534    2.140974   -0.052713
 C   -3.998353   -0.935628    0.007824
 C   -2.629351   -1.269173   -0.004166
 H    3.486678   -2.685768    0.023499
 H    1.740789   -2.502444   -0.041718
 H   -4.875020    1.111459    0.027588
 H    3.213722    1.804032    0.058168
 H    2.029061    3.102851    0.102683
 H   -4.828845   -1.611422    0.008938
 H   -2.189841   -2.244414   -0.014105
