21 
4ucs_ligand_dft.xyz
 C    2.797924   -0.765671   -0.000050
 N    2.701591   -2.108554   -0.000144
 O    3.834143   -0.119289    0.000343
 C   -0.524055    0.161105   -0.000192
 N    1.547131   -0.125119   -0.000630
 O   -2.795079    0.944357   -0.000488
 C    1.286046    1.222349    0.000056
 N    0.355453   -0.818295   -0.000675
 C   -1.949763   -0.114961   -0.000043
 N   -0.015768    1.429752    0.000350
 C   -4.049989    0.447665   -0.000185
 N    2.250196    2.155764    0.000376
 C   -4.032024   -0.911502    0.000491
 C   -2.654543   -1.282167    0.000550
 H    3.550935   -2.647513    0.000658
 H    1.793734   -2.549431    0.000008
 H   -4.842403    1.179596   -0.000466
 H    3.216077    1.861131    0.000142
 H    1.979688    3.123981    0.000284
 H   -4.889767   -1.567931    0.000817
 H   -2.232580   -2.276108    0.001025
