28 
4uct_ligand_xtb.xyz
 N    4.465014   -1.242309   -0.023984
 C    3.239087   -0.671775   -0.066369
 N    3.051251    0.643211    0.034181
 N    1.717843    0.757151    0.023642
 C    0.954902    1.855713    0.105506
 N    2.111550   -1.410252   -0.151425
 C    1.148153   -0.514920   -0.092266
 N   -0.163680   -0.681098   -0.128845
 C   -0.920786    0.389644   -0.051191
 C   -0.404974    1.715608    0.070969
 C   -1.341251    2.876590    0.157874
 O   -2.246089    0.271603   -0.096300
 C   -2.797909   -1.045161   -0.229335
 C   -4.221023   -0.863552   -0.740679
 C   -2.759461   -1.774168    1.109748
 H    5.245011   -0.639547   -0.220580
 H    4.511664   -2.191252   -0.352844
 H    1.459562    2.805966    0.195054
 H   -1.963005    2.788666    1.047426
 H   -0.789221    3.811494    0.197974
 H   -2.005908    2.885133   -0.704047
 H   -2.190339   -1.596485   -0.957372
 H   -4.805112   -0.300914   -0.017013
 H   -4.217101   -0.319503   -1.681404
 H   -4.684189   -1.833405   -0.895111
 H   -1.728379   -1.903657    1.427025
 H   -3.297986   -1.201895    1.861976
 H   -3.220574   -2.752228    1.008784
