72 
4ufd_ligand_xtb.xyz
 C   -2.375761    1.170688    0.043563
 S   -0.996400    0.183367   -0.613210
 C   -3.398788    0.195011    0.511801
 C   -4.562006   -0.021373   -0.215739
 C   -5.477893   -0.974102    0.197782
 C   -5.234219   -1.726043    1.334811
 C   -4.071515   -1.522069    2.059250
 C   -3.159207   -0.566150    1.651158
 O   -1.495009   -0.684499   -1.639287
 O   -0.270489   -0.389573    0.485046
 N    3.124351    1.098736    0.271654
 C    4.454013    0.517152    0.100044
 C    4.388998   -1.026152    0.201473
 O    4.870162   -1.635766    1.134569
 C    5.245892    1.109593    1.258991
 C    4.199069    1.153291    2.369894
 C    2.913467    1.545273    1.638444
 N   -0.073150    1.363601   -1.354717
 C    0.945967    1.926904   -0.494855
 C    2.258242    1.183153   -0.737000
 O    2.483532    0.711700   -1.848870
 C    1.102681    3.431094   -0.794865
 C   -0.191548    4.117616   -0.469428
 C   -0.458495    4.534661    0.828673
 C   -1.172806    4.270139   -1.439737
 C   -1.680600    5.098476    1.150495
 C   -2.396294    4.831992   -1.118951
 C   -2.653986    5.245709    0.176972
 N    3.786432   -1.589243   -0.852962
 C    3.458435   -3.003142   -0.893911
 C    1.986240   -3.204945   -0.644318
 C    1.105858   -3.399190   -1.699890
 C   -0.249673   -3.528582   -1.469123
 C   -0.751260   -3.464656   -0.173517
 C   -2.208877   -3.597477    0.076993
 N   -3.003997   -3.099061   -0.914627
 N   -2.747458   -4.175497    1.077564
 C    0.131501   -3.272103    0.883435
 C    1.485501   -3.137288    0.649472
 H   -2.717766    1.791133   -0.777970
 H   -1.963911    1.781120    0.841709
 H   -4.748674    0.558362   -1.107778
 H   -6.380698   -1.132081   -0.373979
 H   -5.940864   -2.477371    1.651541
 H   -3.873511   -2.118524    2.935120
 H   -2.243679   -0.415688    2.202337
 H    4.838966    0.789492   -0.887421
 H    5.601131    2.109998    1.009866
 H    6.089361    0.475290    1.520612
 H    4.099715    0.157097    2.798120
 H    4.450370    1.856278    3.161178
 H    2.766051    2.630668    1.659023
 H    2.033641    1.058743    2.067198
 H    0.342973    1.020265   -2.215554
 H    0.609724    1.784623    0.533238
 H    1.919136    3.836404   -0.195112
 H    1.349076    3.547284   -1.850655
 H    0.297974    4.421683    1.593163
 H   -0.974140    3.943462   -2.449098
 H   -1.873868    5.423205    2.162288
 H   -3.151266    4.948806   -1.882512
 H   -3.608102    5.684376    0.427475
 H    3.329785   -0.986213   -1.530162
 H    3.742691   -3.399578   -1.872917
 H    4.054694   -3.486603   -0.115976
 H    1.485829   -3.449105   -2.710938
 H   -0.926777   -3.687035   -2.294213
 H   -2.628797   -2.311020   -1.423951
 H   -3.981602   -3.046409   -0.673226
 H   -2.077231   -4.596564    1.714103
 H   -0.250545   -3.202498    1.891993
 H    2.166283   -2.973020    1.472304
