74 
4ufg_ligand_dft.xyz
 O   -0.243106   -0.319777    0.092424
 S   -0.451714    0.708165   -0.926768
 O   -1.273406    0.432226   -2.098617
 C   -1.053681    2.189083   -0.090248
 C   -2.275749    1.882429    0.728667
 C   -2.157920    1.633924    2.096609
 C   -3.285094    1.337212    2.854541
 C   -4.536860    1.274082    2.246517
 C   -4.659475    1.502708    0.878582
 C   -3.530803    1.806573    0.124003
 N    1.025328    1.238535   -1.505468
 C    2.143827    1.023280   -0.583162
 C    3.192890    2.131258   -0.771755
 C    2.609192    3.445779   -0.316165
 C    1.967569    4.302223   -1.211733
 C    1.326461    5.451746   -0.758236
 C    1.313998    5.757547    0.599973
 C    1.954710    4.912298    1.502310
 C    2.597649    3.766436    1.043970
 C    2.704348   -0.380618   -0.838610
 O    2.799218   -0.764113   -1.999539
 N    3.026216   -1.140926    0.239775
 C    2.901551   -0.656511    1.609505
 C    3.398488   -2.540592    0.029631
 C    4.819381   -2.858811    0.497075
 C    5.862225   -1.976925   -0.183477
 C    2.360937   -3.504350    0.639628
 O    2.678189   -4.627943    1.001840
 N    1.092441   -3.036919    0.689956
 C   -0.027256   -3.882017    1.085343
 C   -1.291918   -3.297632    0.506086
 C   -2.185020   -2.579459    1.296698
 C   -3.258173   -1.907971    0.721454
 C   -3.447299   -1.936378   -0.659221
 C   -4.559932   -1.156530   -1.280470
 N   -4.212895   -0.528007   -2.454617
 N   -5.754837   -1.055482   -0.823208
 C   -2.564609   -2.674764   -1.453245
 C   -1.505450   -3.354722   -0.872720
 H   -1.232669    2.916065   -0.886097
 H   -0.221268    2.552986    0.520842
 H   -1.179978    1.676114    2.568606
 H   -3.185327    1.153835    3.920164
 H   -5.417457    1.038964    2.837036
 H   -5.622393    1.408193    0.389247
 H   -3.625382    1.971455   -0.945369
 H    1.211909    0.781349   -2.400636
 H    1.754099    1.105844    0.431062
 H    3.497339    2.159719   -1.822869
 H    4.083335    1.876975   -0.183309
 H    1.957960    4.056970   -2.269748
 H    0.831957    6.108497   -1.467819
 H    0.811426    6.652414    0.953977
 H    1.957003    5.146362    2.562791
 H    3.097052    3.108532    1.753136
 H    3.460004    0.273356    1.755831
 H    3.325788   -1.403497    2.281033
 H    1.854228   -0.506977    1.892892
 H    3.352142   -2.686639   -1.054117
 H    4.893343   -2.764429    1.587602
 H    4.997477   -3.915074    0.281012
 H    6.872929   -2.254888    0.130259
 H    5.713117   -0.919605    0.063683
 H    5.805045   -2.070558   -1.273301
 H    0.864357   -2.113868    0.339293
 H   -0.090634   -3.946015    2.178403
 H    0.162464   -4.894405    0.713976
 H   -2.018372   -2.507012    2.368376
 H   -3.920070   -1.310536    1.341402
 H   -3.257146   -0.200121   -2.531801
 H   -4.922991    0.095569   -2.812996
 H   -5.861726   -1.662590   -0.011629
 H   -2.712512   -2.704764   -2.527966
 H   -0.812468   -3.912194   -1.497910
