21 
4ufk_ligand_dft.xyz
 O    0.644944   -1.965402   -0.035338
 C    0.692733   -0.756788   -0.752907
 C    1.698915    0.217764   -0.087674
 O    1.598982    0.074773    1.306804
 C    1.116456    1.586868   -0.387980
 N   -0.319586    1.330416   -0.042883
 C   -0.666644   -0.011481   -0.664596
 C   -1.754273   -0.663001    0.168452
 O   -2.736985    0.340413    0.303057
 H    1.059368   -2.672330   -0.543540
 H    0.950400   -0.923963   -1.802853
 H    2.724204    0.100242   -0.454939
 H    1.606882   -0.876264    1.500775
 H    1.518355    2.380160    0.242047
 H    1.181077    1.859689   -1.443272
 H   -0.978457    2.057825   -0.328174
 H   -0.382596    1.244897    0.978236
 H   -1.058162    0.223589   -1.656841
 H   -1.346231   -0.979357    1.137706
 H   -2.115767   -1.555694   -0.354359
 H   -3.500613   -0.010142    0.777455
