28 
4ufl_ligand_xtb.xyz
 O   -3.336950    0.012621   -0.273073
 C   -2.304453   -0.866814    0.106957
 C   -1.021447   -0.354581   -0.560458
 C    0.183856   -1.260924   -0.272122
 O    0.250552   -1.548378    1.093927
 C    1.489850   -0.577025   -0.773061
 O    2.615283   -1.172619   -0.184974
 C    1.542965    0.919072   -0.398659
 C    1.338529    1.182934    1.091657
 C   -0.190152    1.271795    1.264010
 C   -0.757114    1.097216   -0.145065
 N    0.364205    1.602970   -0.998488
 H   -4.178452   -0.322369    0.053087
 H   -2.179393   -0.890262    1.194949
 H   -2.500114   -1.887809   -0.240491
 H   -1.210895   -0.363208   -1.640137
 H    0.056490   -2.200017   -0.838459
 H    1.118704   -1.929841    1.287160
 H    1.529588   -0.656678   -1.871121
 H    2.832782   -2.003750   -0.621615
 H    2.482563    1.330265   -0.773249
 H    1.821618    2.115315    1.380068
 H    1.776910    0.385017    1.683427
 H   -0.558833    0.493096    1.924615
 H   -0.481539    2.235401    1.678353
 H   -1.671687    1.668415   -0.314753
 H    0.228636    1.385459   -1.990669
 H    0.460906    2.617140   -0.888350
