33 
4ufy_ligand_xtb.xyz
 C   -2.229613   -1.054402   -0.395150
 C   -3.591026   -1.269945   -0.402126
 C   -4.475465   -0.270738   -0.004434
 C   -5.950963   -0.520625   -0.004743
 C   -3.952871    0.947811    0.409435
 C   -2.589549    1.175359    0.413278
 C   -1.708348    0.177363    0.003149
 C   -0.255065    0.365435   -0.012605
 N    0.507527   -0.669881    0.049589
 C    1.864761   -0.496698    0.037294
 C    2.687121   -1.638750    0.109141
 C    2.057281   -2.992793    0.179618
 C    4.056458   -1.468229    0.101100
 C    4.636509   -0.203330    0.023299
 C    3.842242    0.917406   -0.046588
 C    2.453755    0.779720   -0.038435
 C    1.590907    1.953146   -0.121605
 O    1.947090    3.110249   -0.206233
 N    0.238009    1.639513   -0.103453
 H   -1.541529   -1.826207   -0.701075
 H   -3.981235   -2.225718   -0.721225
 H   -6.257166   -1.008033   -0.928336
 H   -6.217416   -1.179297    0.822112
 H   -6.505544    0.407667    0.105443
 H   -4.621967    1.731065    0.735796
 H   -2.221841    2.127918    0.768164
 H    1.228835   -2.979662    0.883333
 H    1.653250   -3.263271   -0.795342
 H    2.782860   -3.744938    0.478230
 H    4.695305   -2.338726    0.156954
 H    5.712028   -0.108492    0.018488
 H    4.259644    1.910673   -0.108752
 H   -0.397510    2.423225   -0.190634
