70 
4uia_ligand_dft.xyz
 C   -0.236430    4.001649   -0.800047
 C    0.580358    5.230616   -0.387947
 C    0.048814    5.850938    0.905939
 C   -0.005482    4.814357    2.030443
 C   -0.828175    3.591551    1.617955
 C   -0.300361    2.957645    0.322672
 C   -1.158751    1.744617   -0.042638
 C   -0.716466    0.995178   -1.316368
 C   -1.550104   -0.288898   -1.483300
 O   -1.096328   -1.405571   -1.205189
 N   -2.801418   -0.103748   -1.928451
 C   -3.781977   -1.172739   -2.086427
 C   -4.764625   -1.258379   -0.916204
 C   -4.153618   -1.664256    0.433085
 C   -3.627546   -3.103773    0.408234
 C   -5.181622   -1.486259    1.553659
 N    0.703477    0.713286   -1.402039
 C    1.415339    0.032675   -0.450964
 O    1.043760   -0.083475    0.728050
 N    2.590488   -0.489233   -0.884635
 C    3.485104   -1.215884   -0.011188
 C    4.904082   -0.855744   -0.423441
 O    5.803479   -1.302172    0.454351
 O    5.179077   -0.267767   -1.442005
 C    3.289284   -2.747141   -0.116547
 C    1.863573   -3.205794    0.200663
 C    1.522920   -3.117316    1.692612
 C    0.032270   -3.193541    1.996571
 N   -0.680375   -2.002983    1.427059
 H   -1.260686    4.314804   -1.056152
 H    0.202360    3.564034   -1.705572
 H    0.574433    5.969213   -1.196557
 H    1.627324    4.931016   -0.241752
 H   -0.960167    6.249696    0.730477
 H    0.674629    6.699432    1.202528
 H   -0.426315    5.257983    2.939136
 H    1.016212    4.494554    2.277958
 H   -0.825927    2.844908    2.422247
 H   -1.875596    3.894210    1.468109
 H    0.719318    2.600137    0.517769
 H   -2.195066    2.071630   -0.204087
 H   -1.175241    1.050164    0.802230
 H   -0.928500    1.647957   -2.170156
 H   -3.099927    0.838676   -2.137778
 H   -4.326011   -0.986023   -3.016502
 H   -3.224643   -2.102339   -2.215513
 H   -5.265008   -0.287439   -0.806606
 H   -5.547694   -1.979339   -1.184898
 H   -3.315288   -0.975985    0.633739
 H   -4.435131   -3.802261    0.162293
 H   -3.244100   -3.405523    1.392104
 H   -2.831141   -3.241632   -0.330952
 H   -4.757880   -1.747962    2.529685
 H   -6.050092   -2.133741    1.387431
 H   -5.539295   -0.453012    1.609000
 H    1.040594    0.606812   -2.348320
 H    3.005193   -0.187823   -1.758510
 H    3.325546   -0.877981    1.016637
 H    6.685349   -1.071309    0.117125
 H    4.006956   -3.236832    0.550891
 H    3.540387   -3.049165   -1.139831
 H    1.746118   -4.243726   -0.130692
 H    1.165118   -2.615252   -0.404352
 H    2.012529   -3.934662    2.232885
 H    1.907329   -2.185602    2.122444
 H   -0.435693   -4.086274    1.574274
 H   -0.141599   -3.187265    3.074374
 H   -0.061101   -1.158212    1.406688
 H   -0.928187   -2.098015    0.423591
 H   -1.543756   -1.794230    1.928855
