60 
4uit_ligand_xtb.xyz
 C   -3.491031    3.538996   -1.875466
 O   -2.937127    3.211775   -0.624462
 C   -1.652529    2.733309   -0.577319
 C   -0.890179    2.471787   -1.709106
 C    0.395742    1.975089   -1.617011
 C    0.975486    1.741056   -0.374678
 C    0.210760    1.985928    0.761708
 C   -1.088460    2.468601    0.686185
 O   -1.730020    2.587423    1.888742
 C   -2.721578    3.578590    2.067006
 C    2.348205    1.253067   -0.273518
 C    3.220209    1.678934    0.650856
 N    4.541579    1.264416    0.726533
 C    5.446813    2.007692    1.574496
 C    4.997553    0.138195    0.089557
 O    6.146967   -0.240480    0.154458
 C    3.895858   -0.581222   -0.593411
 C    3.637740   -1.872215   -0.433302
 C    2.265717   -2.315720   -0.823419
 S    1.611823   -0.960163   -1.870355
 C    2.855061    0.247184   -1.272812
 C    1.432214   -2.412518    0.462027
 O    1.905782   -2.061553    1.526481
 N    0.183250   -2.917481    0.361698
 C   -0.642530   -2.947248    1.556558
 C   -1.716427   -1.862087    1.464545
 N   -2.463599   -2.077121    0.251175
 C   -1.661435   -2.027538   -0.943257
 C   -0.583310   -3.116577   -0.847105
 S   -4.016075   -1.508832    0.187755
 C   -3.880659    0.294938    0.145687
 O   -4.657563   -1.891797    1.408029
 O   -4.573239   -1.946793   -1.057206
 H   -4.479720    3.940092   -1.657954
 H   -2.898488    4.299929   -2.392513
 H   -3.594593    2.657692   -2.516682
 H   -1.302796    2.649529   -2.688915
 H    0.950216    1.787270   -2.522720
 H    0.608376    1.778715    1.742620
 H   -2.396268    4.542255    1.668683
 H   -2.854287    3.659333    3.145639
 H   -3.668143    3.297654    1.601598
 H    2.946126    2.434724    1.370990
 H    6.424147    1.531670    1.512316
 H    5.523856    3.042078    1.235347
 H    5.101715    1.990856    2.609711
 H    4.291662   -2.558965    0.075878
 H    2.245494   -3.246329   -1.391846
 H    3.245663    0.748755   -2.166472
 H    0.004437   -2.781339    2.418513
 H   -1.118739   -3.928690    1.625187
 H   -1.233719   -0.872263    1.468626
 H   -2.418095   -1.934922    2.294874
 H   -1.169800   -1.049097   -1.062446
 H   -2.325087   -2.212026   -1.787417
 H   -1.071126   -4.094594   -0.786104
 H    0.050962   -3.083568   -1.730324
 H   -3.329899    0.554508   -0.747456
 H   -4.882549    0.701139    0.109267
 H   -3.367629    0.622760    1.039704
