41 
4uj2_ligand_xtb.xyz
 C   28.558707    9.073557   -2.603936
 C   29.940234    9.214691   -2.471150
 N   30.564945    8.615460   -1.400612
 C   31.828164    8.756537   -1.299469
 N   32.605509    9.454789   -2.169174
 C   32.097672   10.109580   -3.292495
 O   32.839428   10.716921   -4.032961
 C   30.652899    9.961380   -3.428409
 C   29.966174   10.547094   -4.493083
 C   28.604129   10.393888   -4.605653
 C   27.882236    9.655089   -3.661366
 C   26.399018    9.487643   -3.816710
 C   25.989894    7.993746   -3.983450
 N   25.424662    7.556890   -2.721564
 C   24.723766    8.713518   -2.217556
 C   24.750688   11.163850   -2.839010
 C   25.608646    9.948582   -2.575357
 O   24.657167   11.676700   -3.930981
 C   23.946730   11.670511   -1.690524
 C   22.817101   12.433770   -1.986032
 C   22.014294   12.924724   -0.974905
 C   22.329817   12.671304    0.349783
 C   23.459392   11.926478    0.640310
 C   24.269454   11.423013   -0.358832
 I   23.960907   11.542967    2.662533
 H   21.138550   13.509501   -1.211533
 H   21.706521   13.053493    1.143395
 H   22.585594   12.626603   -3.022568
 H   28.076966   10.851407   -5.429385
 H   30.531088   11.116852   -5.215160
 H   32.333794    8.291097   -0.463193
 H   33.605729    9.525505   -2.027877
 H   25.152631   10.863650   -0.095115
 H   28.048158    8.490915   -1.852308
 H   24.521093    8.624307   -1.151247
 H   23.769913    8.788174   -2.750055
 H   26.293960   10.164651   -1.752373
 H   26.165997    7.288609   -2.081102
 H   25.208178    7.914174   -4.743704
 H   26.828303    7.363230   -4.275971
 H   26.064893   10.063153   -4.683200
