47 
4uj9_ligand_dft.xyz
 F    5.878839   -2.007894   -0.492436
 C    4.718358   -2.209480    0.140191
 F    4.098821   -3.243539   -0.446878
 F    4.991471   -2.565604    1.401898
 C    3.844210   -0.975012    0.116009
 C    4.393713    0.275309   -0.157092
 C    3.581178    1.399123   -0.142754
 C    2.220391    1.278864    0.163082
 C    1.677375    0.016382    0.440517
 C    2.487770   -1.108097    0.408463
 C    1.389667    2.499040    0.142402
 O    1.807404    3.566012   -0.297267
 C   -0.070781    2.430935    0.593054
 C   -0.541804    3.814273    1.026602
 N   -0.759138    4.477287   -0.301169
 C   -1.492191    3.462130   -1.137891
 C   -0.942883    2.091593   -0.672882
 C   -2.006983    1.054148   -0.385609
 C   -1.868812   -0.212987   -0.941453
 C   -2.792168   -1.227381   -0.641250
 C   -3.845254   -0.945057    0.247898
 C   -3.974975    0.325348    0.795032
 C   -3.072608    1.330153    0.479711
 C   -4.763763   -2.032587    0.700357
 O   -5.572467   -1.882296    1.597049
 N   -4.554448   -3.229153    0.067621
 C   -3.883801   -3.301053   -1.212309
 N   -2.672973   -2.501375   -1.147540
 H    5.448998    0.367203   -0.386047
 H    3.990643    2.378792   -0.363196
 H    0.621175   -0.110526    0.658069
 H    2.068227   -2.087657    0.609640
 H   -0.228790    1.702433    1.387457
 H    0.189006    4.386080    1.598913
 H   -1.495506    3.779749    1.555677
 H    0.196566    4.625490   -0.670713
 H   -1.244595    5.374903   -0.241629
 H   -2.556660    3.569154   -0.923665
 H   -1.314035    3.674540   -2.191864
 H   -0.285961    1.698894   -1.454206
 H   -1.042620   -0.426669   -1.616412
 H   -4.791916    0.494416    1.489286
 H   -3.198781    2.313753    0.924894
 H   -5.193577   -3.970189    0.320758
 H   -3.611078   -4.339051   -1.410437
 H   -4.543823   -2.950431   -2.024839
 H   -2.042877   -2.618486   -1.928057
