44 
4ujb_ligand_xtb.xyz
 F    1.371317    3.684630   -0.578345
 C    2.373713    2.814720   -0.399621
 C    3.665916    3.292031   -0.231196
 C    4.689739    2.382701   -0.020515
 C    4.418857    1.028715    0.024869
 C    3.114406    0.555706   -0.165394
 C    2.075737    1.467085   -0.383691
 C    2.882811   -0.882982   -0.087955
 O    3.691780   -1.656472    0.414383
 C    1.549072   -1.444948   -0.571536
 C    1.749482   -2.886050   -1.034946
 N    1.945900   -3.555325    0.268335
 C    0.836799   -3.058809    1.116309
 C    0.649030   -1.586250    0.697799
 C   -0.776347   -1.181223    0.406845
 C   -1.247601    0.012457    0.931650
 C   -2.537709    0.464915    0.643829
 C   -3.343963   -0.301954   -0.213719
 C   -2.868344   -1.496298   -0.727192
 C   -1.596554   -1.943177   -0.421451
 C   -4.660853    0.219876   -0.657160
 O   -5.312797   -0.284303   -1.544763
 N   -5.040147    1.370114   -0.038904
 C   -4.429842    1.887092    1.157887
 N   -3.005259    1.654913    1.112121
 H    3.849677    4.354260   -0.261756
 H    5.699575    2.735485    0.115717
 H    5.208280    0.313651    0.197849
 H    1.048309    1.163077   -0.505101
 H    1.090118   -0.827173   -1.338457
 H    2.625909   -3.008018   -1.672461
 H    0.867596   -3.273010   -1.546469
 H    2.010511   -4.573694    0.230370
 H    2.858840   -3.108831    0.592355
 H    1.086495   -3.161392    2.171472
 H   -0.068398   -3.632398    0.911042
 H    1.032264   -0.928111    1.482489
 H   -0.617966    0.607778    1.578365
 H   -3.513607   -2.055430   -1.386700
 H   -1.256628   -2.875207   -0.845169
 H   -5.927535    1.758920   -0.321706
 H   -4.608556    2.966134    1.215045
 H   -4.876720    1.411184    2.056975
 H   -2.451429    2.147742    1.794551
