29 
4um3_ligand_dft.xyz
 C   -0.431977   -1.220352   -0.375527
 C    0.404421   -0.126225   -0.160065
 C   -0.204645    1.095588    0.152685
 C   -1.582160    1.171142    0.232492
 C   -2.311906   -0.000426    0.012198
 N   -1.761457   -1.159047   -0.278804
Br   -4.195731    0.058611    0.128448
 N    1.823555   -0.210480   -0.229486
 C    2.400831   -1.540337   -0.199797
 C    3.890622   -1.466685    0.164379
 N    4.143121   -0.285381    1.070121
 C    4.598252    0.967515    0.348295
 C    3.439686    1.666418   -0.354528
 C    2.496561    0.739669   -1.130138
 H   -0.036784   -2.196502   -0.643866
 H    0.394731    1.981769    0.341969
 H   -2.084766    2.100519    0.471251
 H    2.317593   -2.087957   -1.151206
 H    1.872281   -2.120425    0.562019
 H    4.529442   -1.334183   -0.709587
 H    4.209083   -2.371122    0.684969
 H    4.830661   -0.531777    1.785047
 H    3.251633   -0.068296    1.537672
 H    5.378741    0.647763   -0.345759
 H    5.050643    1.618730    1.099131
 H    3.875522    2.410452   -1.029247
 H    2.850513    2.216882    0.387000
 H    1.744137    1.349429   -1.634447
 H    3.032534    0.199845   -1.923416
