17 
4umb_ligand_xtb.xyz
 C    1.530403   -0.597259   -0.029499
 O    0.944500   -1.337584   -0.777039
 O    2.635527   -0.930630    0.615465
 C    1.090069    0.826980    0.245198
 C    2.059158    1.818738   -0.391187
 O   -0.191517    1.028401   -0.297559
 P   -1.319702   -0.057031    0.117573
 O   -2.604151    0.856670    0.275602
 O   -1.728550   -0.819085   -1.200924
 O   -0.957994   -0.825343    1.312954
 H    2.870712   -1.857452    0.440102
 H    1.065205    0.953693    1.334856
 H    1.715005    2.829964   -0.195609
 H    2.087891    1.663216   -1.466639
 H    3.052149    1.682710    0.026985
 H   -2.839754    0.912860    1.200290
 H   -1.015965   -1.399710   -1.478642
