17 
4umb_ligand_dft.xyz
 C    1.717751   -0.579458   -0.005896
 O    1.212641   -1.553405   -0.522495
 O    2.951328   -0.595388    0.501226
 C    1.047259    0.778304    0.173388
 C    1.885786    1.912867   -0.400262
 O   -0.203811    0.781652   -0.488998
 P   -1.441161   -0.057897    0.146880
 O   -2.721216    0.763599   -0.340379
 O   -1.551662   -1.330328   -0.793705
 O   -1.310052   -0.235429    1.604966
 H    3.298086   -1.495437    0.385844
 H    0.900363    0.914676    1.251865
 H    1.358657    2.856910   -0.246496
 H    2.038092    1.770211   -1.473581
 H    2.856613    1.960032    0.097315
 H   -3.105667    1.240664    0.406844
 H   -0.651320   -1.694477   -0.913293
