17 
4umc_ligand_xtb.xyz
 C   -1.529348   -0.597213   -0.030965
 O   -0.945477   -1.335070   -0.782389
 O   -2.630636   -0.933918    0.618752
 C   -1.090447    0.827297    0.245028
 C   -2.058793    1.820014   -0.390945
 O    0.191826    1.030051   -0.295743
 P    1.319002   -0.057292    0.117819
 O    2.604923    0.853856    0.277086
 O    1.727477   -0.817831   -1.201344
 O    0.954977   -0.826848    1.311833
 H   -2.863391   -1.861606    0.444779
 H   -1.066858    0.952515    1.334839
 H   -2.084811    1.667511   -1.466870
 H   -3.052762    1.682100    0.024275
 H   -1.715834    2.830968   -0.191657
 H    2.831886    0.921816    1.203153
 H    1.013552   -1.396419   -1.480071
