36 
4umr_ligand_dft.xyz
 F   -6.770015   -1.140133    0.081069
 C   -5.525629   -0.663875    0.038923
 C   -5.279667    0.621368    0.504558
 C   -3.982834    1.108899    0.454460
 C   -2.941595    0.315568   -0.037640
 C   -3.223361   -0.969097   -0.513978
 C   -4.518955   -1.467260   -0.479136
 C   -1.577350    0.920945   -0.058630
 O   -1.397251    2.123083   -0.099405
 N   -0.531960    0.005937   -0.004633
 C    0.836463    0.269800   -0.033484
 C    1.374512    1.549801   -0.247640
 C    2.747754    1.719720   -0.276684
 C    3.633907    0.657363   -0.089558
 C    5.127982    0.893271   -0.165970
 C    5.932570   -0.268803    0.390563
 N    5.362200   -1.555604   -0.154612
 C    3.974454   -1.811352    0.366490
 C    3.092707   -0.612870    0.117276
 C    1.713886   -0.804359    0.140384
 H   -6.097843    1.217918    0.891439
 H   -3.759079    2.113447    0.796711
 H   -2.446650   -1.582702   -0.963041
 H   -4.761037   -2.453952   -0.856884
 H   -0.791334   -0.948579    0.195837
 H    0.709564    2.391005   -0.379492
 H    3.144467    2.717082   -0.446506
 H    5.404678    1.788634    0.399380
 H    5.432362    1.084343   -1.203959
 H    5.855739   -0.343760    1.477979
 H    6.985448   -0.225469    0.106362
 H    5.971525   -2.343771    0.080283
 H    5.333057   -1.499902   -1.178316
 H    4.090387   -2.031257    1.432627
 H    3.601576   -2.709462   -0.132023
 H    1.314530   -1.804076    0.300324
