46 
4umu_ligand_xtb.xyz
 C   -5.816868    3.691203    0.543667
 C   -4.706635    2.668523    0.374511
 O   -5.320761    1.403528    0.116607
 C   -4.530686    0.292173   -0.092573
 C   -3.155577    0.296562   -0.018771
 C   -2.425366   -0.883625   -0.221430
 O   -1.100220   -0.752305   -0.127720
 C   -0.265549   -1.896894   -0.315824
 C    1.116750   -1.494976   -0.146635
 C    2.257961   -1.141873   -0.005365
 C    3.612773   -0.774552    0.169976
 C    4.387557   -1.447187    1.146070
 C    5.696995   -1.119639    1.337227
 C    6.303022   -0.103206    0.565888
 C    7.650548    0.283892    0.711637
 C    8.145305    1.281761   -0.085619
 N    7.415522    1.922307   -1.011675
 C    6.168628    1.582914   -1.166223
 C    5.525890    0.572558   -0.412391
 C    4.177155    0.220678   -0.595904
 C   -3.108558   -2.070217   -0.487466
 C   -4.488274   -2.063184   -0.556506
 C   -5.220571   -0.902634   -0.369927
 C   -6.717292   -0.888145   -0.500044
 N   -7.311057   -0.164128    0.668921
 H   -6.444468    3.720335   -0.343447
 H   -6.432395    3.459463    1.410211
 H   -5.378578    4.673304    0.688008
 H   -4.098974    2.602470    1.283761
 H   -4.064736    2.935906   -0.470080
 H   -2.594347    1.191578    0.188024
 H   -0.409366   -2.302844   -1.327903
 H   -0.515400   -2.669839    0.425556
 H    3.919650   -2.224584    1.732034
 H    6.289504   -1.632406    2.080634
 H    8.273910   -0.206477    1.443782
 H    9.172263    1.611554   -0.008048
 H    5.614740    2.122535   -1.924972
 H    3.590506    0.737269   -1.341777
 H   -2.581733   -2.995789   -0.645778
 H   -5.007598   -2.983910   -0.773345
 H   -7.110822   -1.903215   -0.555000
 H   -7.014181   -0.344288   -1.400753
 H   -8.310207    0.022179    0.550873
 H   -7.156799   -0.686417    1.536511
 H   -6.747631    0.731348    0.694092
