46 
4umu_ligand_dft.xyz
 C   -6.027506    3.648157    0.266591
 C   -4.878224    2.666676    0.207598
 O   -5.435428    1.352749    0.031348
 C   -4.590459    0.286461   -0.119255
 C   -3.218512    0.353622    0.017145
 C   -2.450618   -0.814267   -0.135673
 O   -1.132103   -0.634072    0.007989
 C   -0.264655   -1.765307   -0.141878
 C    1.109513   -1.329058    0.036883
 C    2.261964   -0.995923    0.172087
 C    3.627590   -0.599981    0.340743
 C    4.244523   -0.710787    1.621480
 C    5.547540   -0.338673    1.803759
 C    6.310578    0.166977    0.717846
 C    7.662340    0.573111    0.826852
 C    8.309390    1.048396   -0.283926
 N    7.733553    1.160503   -1.511216
 C    6.483806    0.787653   -1.626520
 C    5.698815    0.278184   -0.556081
 C    4.351577   -0.112089   -0.727140
 C   -3.070663   -2.038765   -0.404761
 C   -4.454777   -2.080797   -0.529386
 C   -5.233060   -0.936885   -0.399787
 C   -6.713570   -0.954789   -0.598969
 N   -7.391698   -0.390235    0.641012
 H   -6.617345    3.614875   -0.653605
 H   -6.680748    3.441977    1.120874
 H   -5.636720    4.662321    0.384140
 H   -4.289805    2.683384    1.131861
 H   -4.215189    2.877823   -0.637759
 H   -2.695781    1.275912    0.236557
 H   -0.402318   -2.198666   -1.141097
 H   -0.526020   -2.526072    0.605284
 H    3.660589   -1.097220    2.450428
 H    6.011955   -0.426586    2.781595
 H    8.177462    0.507231    1.780307
 H    9.346672    1.366326   -0.226978
 H    6.032741    0.881014   -2.614754
 H    3.888480   -0.025644   -1.705907
 H   -2.498462   -2.949884   -0.521788
 H   -4.933413   -3.031332   -0.749932
 H   -7.102647   -1.961341   -0.758467
 H   -7.041410   -0.306277   -1.416047
 H   -8.407425   -0.312474    0.543990
 H   -7.179299   -0.958575    1.465370
 H   -6.977611    0.550422    0.777003
