42 
4unn_ligand_dft.xyz
 C   -0.253869    1.425814    1.772648
 C   -4.529149   -1.813375   -1.711993
 C   -3.700841   -0.762484   -2.117432
 C    1.974794   -0.871883   -0.500971
 C    2.818366    1.364737   -0.198129
 C    3.262394   -1.378041   -0.390209
 C    4.106129    0.863201   -0.086596
 C   -4.504225   -2.266520   -0.405581
 C   -2.809251   -0.628540    0.125991
 C    1.735908    0.504382   -0.417169
 C   -2.845814   -0.174817   -1.196086
 C    4.335108   -0.509662   -0.183718
 C   -3.639937   -1.671716    0.526006
 C   -0.490028    0.561857   -1.478106
 C   -0.117839    2.059164    0.451562
 C    0.352550    1.023545   -0.554473
 C   -1.926593    0.972463   -1.608829
 C   -1.451003    2.758082    0.116204
 C    5.735240   -0.993824   -0.053664
 C   -2.830273   -1.598164    2.753379
 N   -0.383579    0.873726    2.781773
 N   -2.197706    2.188807   -0.858827
 O   -1.782143    3.758840    0.719768
 O    6.695627   -0.281361    0.128579
 O    5.842063   -2.332238   -0.162165
 O   -3.680684   -2.175317    1.778593
 H   -5.203395   -2.276176   -2.426331
 H   -3.730240   -0.407154   -3.144131
 H    1.137158   -1.551034   -0.628402
 H    2.662940    2.437594   -0.132566
 H    3.435589   -2.446451   -0.452374
 H    4.950233    1.525285    0.074176
 H   -5.144087   -3.077352   -0.073859
 H   -2.133590   -0.161340    0.833526
 H   -0.160459   -0.193166   -2.186151
 H    0.610460    2.870808    0.554893
 H   -2.118795    1.192139   -2.666896
 H   -3.044341   -0.532894    2.897037
 H   -1.773272   -1.712830    2.486701
 H   -3.030835   -2.136125    3.679951
 H   -3.102603    2.621383   -0.990124
 H    6.785331   -2.535123   -0.061278
