42 
4uoh_ligand_dft.xyz
 P   -2.939377    0.213201   -0.682398
 O   -2.419707   -0.722744   -1.698815
 O   -2.945105    1.752183   -0.989809
 O   -4.412165   -0.035185   -0.141840
 P   -1.712532   -1.298224    1.347033
 O   -2.886310   -2.189139    1.248917
 O   -1.183380   -0.896789    2.795789
 O   -2.005614    0.146979    0.685587
 O   -0.343196   -1.793833    0.730216
 C   -0.266844   -2.818996   -0.281376
 C    1.139695   -2.816827   -0.854717
 O    1.334146   -1.690746   -1.720632
 C    2.275743   -2.739899    0.169279
 O    3.414759   -3.340966   -0.393550
 C    2.492094   -1.230419    0.310187
 O    3.812004   -0.957937    0.683090
 C    2.141819   -0.732694   -1.111761
 N    1.402846    0.531282   -1.058517
 C    0.219626    0.817692   -1.667813
 N   -0.257352    1.999666   -1.341190
 C    0.677102    2.517760   -0.463974
 C    0.759650    3.714248    0.272762
 N   -0.173535    4.683369    0.197614
 N    1.817762    3.903364    1.076284
 C    2.746869    2.947037    1.151617
 N    2.784183    1.774931    0.518581
 C    1.716857    1.616070   -0.279569
 H   -2.017250    2.027826   -1.257180
 H   -4.467983   -0.947761    0.197462
 H   -1.892247   -0.545769    3.352005
 H   -0.486311   -3.784042    0.184171
 H   -0.992626   -2.608691   -1.070692
 H    1.254979   -3.716018   -1.466796
 H    2.002926   -3.204147    1.126459
 H    4.177386   -2.866685   -0.028755
 H    1.774626   -0.820783    1.027253
 H    3.857992    0.010922    0.793951
 H    3.054783   -0.578371   -1.696413
 H   -0.279353    0.099741   -2.301476
 H   -1.039314    4.524895   -0.291126
 H   -0.102549    5.463691    0.831196
 H    3.577131    3.153850    1.821587
