42 
4uoh_ligand_xtb.xyz
 P   -2.502599   -1.296014   -0.616047
 O   -1.502005   -1.969624   -1.439906
 O   -3.375843   -0.174680   -1.249825
 O   -3.564869   -2.207570    0.092841
 P   -0.701852   -1.457136    1.391253
 O   -1.206475   -2.814157    1.600540
 O   -0.389799   -0.608835    2.686426
 O   -1.766801   -0.519914    0.642555
 O    0.655226   -1.266850    0.619332
 C    1.253057   -2.280554   -0.192727
 C    2.582681   -1.737549   -0.732272
 O    2.384301   -0.765457   -1.748741
 C    3.421642   -1.017448    0.338301
 O    4.778741   -1.072452    0.008628
 C    2.864574    0.416461    0.268253
 O    3.850960    1.367344    0.548421
 C    2.331229    0.509245   -1.189080
 N    0.974810    1.020043   -1.201577
 C   -0.054660    0.605361   -1.985214
 N   -1.186787    1.188604   -1.711951
 C   -0.909621    2.040241   -0.669660
 C   -1.691932    2.873088    0.149252
 N   -3.022853    3.015523    0.005495
 N   -1.071242    3.577824    1.099741
 C    0.234322    3.452591    1.254670
 N    1.068636    2.666186    0.597427
 C    0.453500    1.952747   -0.350842
 H   -2.732369    0.432247   -1.701306
 H   -3.100007   -2.907039    0.567828
 H   -0.920298   -0.895093    3.428919
 H    1.417374   -3.175019    0.411725
 H    0.582652   -2.516308   -1.023441
 H    3.147738   -2.553047   -1.190289
 H    3.254698   -1.454770    1.331746
 H    5.157718   -0.204522    0.209700
 H    2.029827    0.505290    0.967197
 H    3.393337    2.199651    0.732962
 H    2.967118    1.180558   -1.788872
 H    0.074773   -0.138151   -2.745225
 H   -3.525466    2.334304   -0.537792
 H   -3.508910    3.523099    0.725349
 H    0.674366    4.061252    2.033212
