80 
4urn_ligand_xtb.xyz
 C    8.662440   -0.106331    2.183558
 O    7.271716   -0.304072    2.100834
 N    8.702536    3.124819   -0.895352
 C    7.505764    2.564214   -0.609226
 O    6.455910    3.145632   -0.594894
 O    7.660040    1.236865   -0.360945
 C    6.788409   -0.683025    0.832942
 C    6.457309    0.517250   -0.063672
 C    5.852702    0.025916   -1.384942
 O    6.784694   -0.712981   -2.129692
 C    4.646316   -0.879573   -1.102557
 O    4.921703   -1.892587   -0.197128
 C    5.520222   -1.547855    1.055775
 C    5.939636   -2.887591    1.664471
 C    4.534838   -0.844233    1.991954
 O    3.607185   -0.016712   -0.709832
 C    2.326452   -0.490713   -0.635362
 C    1.346208    0.477391   -0.400127
 C    1.712613    1.918167   -0.228056
 C    0.016148    0.064038   -0.321621
 C   -0.341548   -1.282260   -0.474684
 C    0.667220   -2.223412   -0.694720
 C    1.983886   -1.836940   -0.772800
 O   -0.920807    1.023406   -0.100272
 C   -2.232133    0.724277   -0.032751
 O   -3.031921    1.627138    0.152306
 C   -2.649648   -0.658362   -0.184311
 C   -1.735507   -1.660650   -0.401774
 O   -2.015443   -2.943491   -0.553597
 N   -4.047177   -0.752590   -0.075785
 C   -4.920553   -1.762950   -0.248396
 O   -4.581039   -2.927257   -0.480135
 C   -6.344343   -1.383801   -0.119655
 C   -6.789905   -0.066621   -0.200725
 C   -8.125542    0.262390   -0.065007
 C   -9.053181   -0.764688    0.145538
 O  -10.366464   -0.443861    0.278763
 C   -8.619593   -2.086322    0.207562
 C   -7.282518   -2.395387    0.076182
 C   -8.541713    1.711005   -0.119876
 C   -7.714812    2.514264    0.845700
 C   -6.624761    3.226727    0.584998
 C   -5.869388    3.917579    1.681871
 C   -6.005233    3.420610   -0.766632
 H    9.208629   -0.993890    1.842553
 H    8.876510    0.068567    3.236692
 H    8.988980    0.758115    1.598628
 H    9.550939    2.596075   -0.805688
 H    8.747055    4.119307   -1.025253
 H    7.536986   -1.295618    0.307075
 H    5.758858    1.197264    0.433241
 H    5.500698    0.897377   -1.959287
 H    7.625568   -0.237182   -2.100599
 H    4.384133   -1.404082   -2.034550
 H    6.493223   -2.712049    2.581351
 H    5.057268   -3.481977    1.880517
 H    6.559835   -3.433881    0.959115
 H    5.019881   -0.677976    2.948517
 H    3.659500   -1.474656    2.130174
 H    4.212986    0.110846    1.590176
 H    2.595773    2.152141   -0.815700
 H    0.884618    2.554865   -0.525315
 H    1.940110    2.122413    0.817609
 H    0.387200   -3.258837   -0.799727
 H    2.754016   -2.575763   -0.920226
 H   -3.020017   -3.088148   -0.531701
 H   -4.417123    0.172435    0.140351
 H   -6.107388    0.747036   -0.387589
 H  -10.885638   -1.245395    0.416475
 H   -9.343952   -2.875080    0.364853
 H   -6.944367   -3.418601    0.128380
 H   -9.596666    1.786899    0.144139
 H   -8.419898    2.079224   -1.140416
 H   -8.045780    2.436429    1.873700
 H   -4.842661    3.553401    1.698962
 H   -6.323964    3.739803    2.653026
 H   -5.835948    4.991738    1.502207
 H   -4.984142    3.037961   -0.752177
 H   -5.948812    4.484551   -0.996388
 H   -6.557223    2.925746   -1.560362
