29 
4urv_ligand_dft.xyz
Br   -4.196910   -0.058825   -0.124144
 C   -2.316755   -0.022295   -0.003017
 C   -1.591231   -1.193297   -0.186875
 C   -0.203282   -1.162875   -0.095040
 C   -1.666225    1.177152    0.272452
 C   -0.281109    1.195979    0.359968
 C    0.468894    0.028576    0.179373
 C    1.984456    0.129682    0.265415
 O    2.382073    0.994833    1.324401
 C    2.550956    0.786539   -1.007809
 C    4.056048    0.981703   -0.909010
 N    4.726147   -0.346244   -0.637635
 C    4.190029   -1.041237    0.592892
 C    2.687328   -1.231004    0.459831
 H   -2.105762   -2.124242   -0.396530
 H    0.334724   -2.094381   -0.237737
 H   -2.238785    2.086344    0.417398
 H    0.222646    2.132801    0.580614
 H    1.799582    0.842328    2.080858
 H    2.093327    1.769523   -1.145151
 H    2.288741    0.182083   -1.884184
 H    4.311063    1.632687   -0.071281
 H    4.489862    1.378651   -1.828896
 H    5.736232   -0.209237   -0.542673
 H    4.594470   -0.957660   -1.449817
 H    4.428465   -0.393345    1.437617
 H    4.725903   -1.987409    0.688001
 H    2.471484   -1.908792   -0.374379
 H    2.325617   -1.718982    1.370371
