44 
4urw_ligand_xtb.xyz
 C   -1.431759   -2.270413   -1.896873
 C   -2.385791   -1.840174   -0.822921
 C   -3.571068   -2.543581   -0.664392
 C   -4.492646   -2.177951    0.298522
 C   -4.240984   -1.088461    1.111107
 C   -3.075116   -0.349033    0.974641
 C   -2.852677    0.824995    1.878080
 C   -2.137740   -0.735941    0.005364
 C   -0.891925    0.021199   -0.147775
 N   -0.956251    1.347085   -0.182157
 C    0.193018    1.987851   -0.317713
 S    0.202917    3.716027   -0.369196
 C   -1.566951    4.078786   -0.205852
 N    0.251230   -0.661696   -0.240449
 C    1.342301    0.078451   -0.393081
 N    1.386829    1.402716   -0.419928
 N    2.528253   -0.582611   -0.555943
 C    2.626583   -1.991702   -0.305818
 C    3.339591   -2.234109    1.027539
 N    4.659136   -1.539649    0.996670
 C    4.497278   -0.073797    0.769336
 C    3.772287    0.133732   -0.561776
 H   -0.668617   -2.926158   -1.478778
 H   -1.963767   -2.819570   -2.669975
 H   -0.930570   -1.421120   -2.353892
 H   -3.772394   -3.387400   -1.307262
 H   -5.407794   -2.738514    0.412690
 H   -4.961493   -0.801615    1.862470
 H   -3.486985    0.749463    2.757893
 H   -1.815611    0.897198    2.197684
 H   -3.104356    1.743839    1.351411
 H   -2.123235    3.371251   -0.811022
 H   -1.853159    4.000072    0.838045
 H   -1.709052    5.093949   -0.560993
 H    3.173852   -2.476966   -1.122427
 H    1.609445   -2.387775   -0.267086
 H    3.490694   -3.299846    1.201489
 H    2.749712   -1.815927    1.844869
 H    5.209525   -1.926453    0.218029
 H    5.172379   -1.711063    1.868444
 H    5.476170    0.405898    0.760639
 H    3.901218    0.338882    1.584784
 H    3.540834    1.191656   -0.704893
 H    4.395740   -0.216238   -1.392684
