26 
4urx_ligand_dft.xyz
 C   -2.051680   -0.118824    0.077124
 N    2.927850   -0.335739   -0.160408
Br   -3.846705    0.326689   -0.264131
 C   -1.415016   -1.067217   -0.720746
 C   -0.090159   -1.393536   -0.462800
 C    0.604975   -0.774982    0.580201
 C    2.052433   -1.098803    0.808279
 C    2.877507    1.172494   -0.029307
 C    4.228200    1.579247   -0.546678
 C    5.058736    0.544189   -0.605622
 C    4.391120   -0.718242   -0.137894
 C   -0.050796    0.166746    1.375343
 C   -1.377939    0.496482    1.129228
 H    2.579834   -0.546780   -1.100287
 H   -1.955907   -1.552134   -1.525358
 H    0.393080   -2.155465   -1.071540
 H    2.392125   -0.826996    1.810624
 H    2.269969   -2.157431    0.640699
 H    2.740409    1.420082    1.028649
 H    2.019553    1.551648   -0.586804
 H    4.461089    2.606752   -0.795309
 H    6.096969    0.565761   -0.911296
 H    4.541485   -1.592909   -0.774466
 H    4.659777   -0.982179    0.890849
 H    0.466611    0.639133    2.206668
 H   -1.889569    1.221242    1.752236
