31 
4urz_ligand_xtb.xyz
 C    3.597529   -0.712984   -0.282330
 N    4.768376   -1.413256   -0.394124
 O   -0.573639    2.238055   -1.068398
 S   -0.375320    1.443747    0.111340
 C    2.724039   -0.613208   -1.371933
 N   -1.573720    0.197773   -0.033933
 O   -0.533348    2.087357    1.376181
 C    1.516948    0.040580   -1.237985
 O   -0.475696   -0.925998    1.541692
 C    1.175711    0.596179   -0.019738
 C    2.021496    0.513480    1.070492
 C    3.229308   -0.135683    0.939823
 C   -2.714750    0.460175   -0.884347
 C   -3.436771   -0.828347   -1.249482
 C   -3.771954   -1.571111    0.038052
 C   -2.478582   -1.955944    0.744419
 C   -1.441013   -0.849177    0.808354
 H    5.112811   -1.613820   -1.317117
 H    5.462480   -1.284768    0.321776
 H    3.003930   -1.055085   -2.316930
 H    0.838227    0.139563   -2.070353
 H    1.706850    0.952909    2.001946
 H    3.900364   -0.212343    1.782223
 H   -2.334091    0.985201   -1.763426
 H   -3.398467    1.138605   -0.359104
 H   -2.796425   -1.449588   -1.878499
 H   -4.340347   -0.585279   -1.809024
 H   -4.356714   -2.468240   -0.173294
 H   -4.369295   -0.923568    0.682710
 H   -1.994434   -2.785125    0.219383
 H   -2.662659   -2.289104    1.766919
