50 
4uuh_ligand_dft.xyz
 O   -0.980564    2.626761    0.000425
 C   -1.233523    1.331761    0.000326
 C   -2.669896    0.995586    0.000038
 C   -3.645803    1.995154   -0.000226
 N   -0.267064    0.472679    0.000470
 C   -0.527119   -0.887701    0.000241
 C   -1.954156   -1.408433    0.000275
 C   -3.027239   -0.353127    0.000112
 C   -4.382897   -0.714683   -0.000032
 C   -4.791570   -2.165240   -0.000017
 C   -5.344822    0.294274   -0.000273
 C   -4.985154    1.640115   -0.000389
 C    0.528809   -1.760489    0.000032
 C    1.907349   -1.294916    0.000123
 C    2.955816   -2.136879    0.000138
 C    2.784493   -3.588462   -0.000013
 C    1.399356   -4.055011   -0.000108
 C    0.354416   -3.206262   -0.000144
 C    3.828334   -4.440051   -0.000232
 N    4.248241    1.777405   -0.000703
 C    3.719581    2.407134    1.205353
 C    2.192004    2.509884    1.222469
 N    1.652972    3.131583    0.000473
 C    2.191148    2.510288   -1.222093
 C    3.718737    2.407628   -1.206130
 H   -3.340003    3.034720   -0.000288
 H   -2.101107   -2.061109    0.872315
 H   -2.101100   -2.061270   -0.871645
 H   -4.406451   -2.692136   -0.881489
 H   -4.405746   -2.692383    0.880987
 H   -5.880043   -2.267510    0.000400
 H   -6.396956    0.020203   -0.000372
 H   -5.753420    2.407195   -0.000594
 H    2.063747   -0.223991    0.000194
 H    3.973475   -1.751202    0.000236
 H    1.228999   -5.128785   -0.000225
 H   -0.649642   -3.619465   -0.000276
 H    3.682147   -5.516299   -0.000292
 H    4.853347   -4.080691   -0.000334
 H    4.010425    0.788712   -0.000838
 H    4.154711    3.415151    1.270137
 H    4.070946    1.849064    2.079576
 H    1.844346    3.092160    2.082786
 H    1.739098    1.514937    1.294419
 H    1.884039    4.123607    0.000542
 H    0.023095    2.806146    0.000602
 H    1.842800    3.092790   -2.081979
 H    1.738270    1.515318   -1.294032
 H    4.069533    1.849957   -2.080835
 H    4.153783    3.415688   -1.270778
