115 
4uv9_ligand_dft.xyz
 P   -2.825189   -1.919783   -0.161053
 O   -2.146664   -3.029106   -1.039867
 O   -2.285397   -1.717561    1.200257
 O   -4.380403   -2.267695   -0.230474
 C   -4.938657   -3.141153    0.761644
 C   -6.325291   -2.651445    1.135694
 O   -6.237369   -1.357369    1.750275
 C   -7.307063   -2.493006   -0.024786
 O   -8.610870   -2.646144    0.477756
 C   -7.078872   -1.044900   -0.456683
 O   -8.235885   -0.536340   -1.053487
 C   -6.733389   -0.374603    0.893862
 N   -5.708177    0.659168    0.721679
 C   -4.563041    0.841479    1.445642
 N   -3.811658    1.814437    0.990908
 C   -4.493061    2.290775   -0.110174
 C   -4.178267    3.204458   -1.127670
 N   -2.929718    3.739160   -1.281852
 N   -5.093276    3.472508   -2.066173
 C   -6.240674    2.789275   -2.056157
 N   -6.606873    1.813234   -1.227434
 C   -5.689742    1.599756   -0.274167
 N    1.564251   -1.550708    0.210633
 C    1.321601   -2.486152   -0.737985
 O    0.475446   -3.371434   -0.644193
 N    2.160515   -2.442863   -1.846870
 C    3.215067   -1.580484   -2.083041
 O    3.854117   -1.635190   -3.111491
 C    3.516935   -0.596281   -0.954956
 N    3.829908    0.675627   -1.562700
 C    3.857777    1.776755   -0.698905
 C    4.595377    2.912769   -1.033176
 C    4.642955    4.039290   -0.220982
 C    5.467914    5.234437   -0.623663
 C    3.916126    4.037772    0.979733
 C    3.928316    5.235823    1.894378
 C    3.170781    2.910462    1.310986
 C    3.128026    1.768875    0.505909
 N    2.375267    0.629657    0.880439
 C    2.189448   -0.311437   -0.207586
 C    2.333327    0.232387    2.280440
 C    0.969278    0.275675    2.982785
 O    0.256172   -0.879089    2.573088
 C    0.125683    1.556164    2.849255
 O   -1.031569    1.282705    3.623089
 C   -0.316513    2.037745    1.443377
 O   -1.320830    3.034602    1.607044
 C   -0.850711    0.890660    0.627271
 O   -1.287950    1.376625   -0.650293
 P   -1.650459    0.259478   -1.729343
 O   -0.557614   -0.633725   -2.143520
 O   -2.354166    1.152995   -2.827300
 O   -2.893605   -0.561022   -1.057297
 C    6.725574    0.308370    0.207122
 C    7.984720    0.731546   -0.208136
 C    8.573172    0.165166   -1.333947
 C    7.893528   -0.824539   -2.039831
 C    6.635732   -1.247341   -1.621398
 C    6.035207   -0.683703   -0.490665
 C    4.660997   -1.117482   -0.006189
 C    4.619364   -2.628200    0.306643
 C    5.623635   -2.976412    1.399124
 N    5.474439   -2.648632    2.621771
 C    6.851719   -3.754123    0.999378
 C    6.519057   -5.211322    0.653812
 H   -1.169021   -3.135036   -0.880952
 H   -4.990058   -4.152551    0.346143
 H   -4.304380   -3.143951    1.652649
 H   -6.743360   -3.341507    1.875044
 H   -7.100546   -3.200935   -0.838949
 H   -9.175809   -2.079301   -0.069616
 H   -6.210572   -0.986182   -1.121498
 H   -8.010787    0.370791   -1.337274
 H   -7.625698    0.091542    1.325765
 H   -4.322467    0.205227    2.284439
 H   -2.281102    3.674461   -0.502116
 H   -2.881477    4.577912   -1.844653
 H   -6.951585    3.049148   -2.835110
 H    0.894999   -1.527660    0.987177
 H    1.930793   -3.093876   -2.586993
 H    4.593860    0.629075   -2.224754
 H    5.168823    2.895185   -1.957556
 H    6.236908    5.461954    0.124539
 H    4.849314    6.134151   -0.727495
 H    5.971319    5.064284   -1.579384
 H    3.547091    6.132182    1.390374
 H    3.309818    5.064911    2.780313
 H    4.943351    5.470928    2.237439
 H    2.599436    2.925551    2.235043
 H    1.545127    0.174638   -0.955073
 H    3.034918    0.865412    2.829919
 H    2.689340   -0.799768    2.396812
 H    1.178842    0.184897    4.059743
 H   -0.682243   -0.793190    2.799816
 H    0.694948    2.378935    3.310169
 H   -1.606008    2.053200    3.503885
 H    0.527736    2.504758    0.931233
 H   -2.196264    2.597158    1.501488
 H   -1.697911    0.429739    1.131778
 H   -0.092491    0.136916    0.470815
 H   -2.479683    2.070539   -2.502169
 H    6.265511    0.762298    1.080956
 H    8.503479    1.505362    0.349798
 H    9.555464    0.492658   -1.661484
 H    8.342165   -1.270140   -2.922707
 H    6.112635   -2.006077   -2.194327
 H    4.495126   -0.596340    0.942375
 H    3.620188   -2.904892    0.655164
 H    4.822888   -3.207043   -0.600924
 H    4.585945   -2.152567    2.753800
 H    7.318636   -3.266747    0.134532
 H    7.558051   -3.718545    1.832769
 H    7.424944   -5.751611    0.362861
 H    6.079272   -5.720873    1.516902
 H    5.809007   -5.281921   -0.177989
