115 
4uv9_ligand_xtb.xyz
 P   -2.921120   -1.476602    0.099251
 O   -2.314745   -2.683246   -0.677026
 O   -2.322764   -1.135429    1.387331
 O   -4.480879   -1.806752    0.145055
 C   -4.876869   -2.649727    1.219415
 C   -6.343559   -2.387215    1.573066
 O   -6.539487   -1.038900    1.978887
 C   -7.300897   -2.599634    0.390429
 O   -8.577717   -2.925614    0.857459
 C   -7.271799   -1.221910   -0.287399
 O   -8.476172   -0.937414   -0.930777
 C   -6.975964   -0.269824    0.903795
 N   -5.985950    0.709378    0.509985
 C   -4.871104    1.135605    1.170729
 N   -4.164443    1.999485    0.506743
 C   -4.822381    2.153323   -0.686340
 C   -4.567299    2.852789   -1.870567
 N   -3.388346    3.508473   -2.101276
 N   -5.458981    2.799060   -2.857344
 C   -6.539890    2.051148   -2.712129
 N   -6.867705    1.289927   -1.684324
 C   -5.981836    1.354334   -0.687154
 N    1.486012   -1.361788    0.614830
 C    1.020857   -2.286650   -0.240732
 O    0.161649   -3.106307    0.042092
 N    1.661762   -2.358946   -1.472843
 C    2.731611   -1.629533   -1.904027
 O    3.183959   -1.753460   -3.015902
 C    3.324046   -0.698366   -0.852893
 N    3.757710    0.508099   -1.505086
 C    4.134889    1.549498   -0.668297
 C    5.015365    2.523362   -1.116483
 C    5.395022    3.594762   -0.325679
 C    6.365769    4.611442   -0.844112
 C    4.863346    3.697629    0.960078
 C    5.239211    4.840524    1.854882
 C    3.974623    2.731460    1.408628
 C    3.599160    1.643612    0.628518
 N    2.714758    0.661651    1.093612
 C    2.186468   -0.221450    0.081274
 C    2.561423    0.390735    2.496291
 C    1.208196    0.770439    3.143919
 O    0.312917   -0.292482    2.909172
 C    0.620024    2.145198    2.772312
 O   -0.466110    2.341326    3.651851
 C    0.153138    2.369216    1.320426
 O   -0.248005    3.728635    1.267891
 C   -1.019498    1.465569    0.943601
 O   -1.403772    1.712030   -0.413235
 P   -1.600421    0.453692   -1.367369
 O   -0.506405   -0.509651   -1.359080
 O   -1.925798    1.138341   -2.727903
 O   -2.999125   -0.241807   -0.939921
 C    6.693102   -0.263587    0.233230
 C    7.929327    0.137641   -0.241140
 C    8.309816   -0.170430   -1.535153
 C    7.447383   -0.882005   -2.352005
 C    6.212427   -1.286323   -1.877112
 C    5.823810   -0.981039   -0.576578
 C    4.473456   -1.399356   -0.045965
 C    4.360589   -2.934031   -0.008586
 C    5.418685   -3.475738    0.932640
 N    5.359818   -3.405893    2.187103
 C    6.616440   -4.130711    0.312668
 C    6.255859   -5.506858   -0.249113
 H   -1.384204   -2.895986   -0.417954
 H   -4.742279   -3.696428    0.932862
 H   -4.248068   -2.430679    2.087332
 H   -6.630286   -3.018433    2.418610
 H   -6.930778   -3.381940   -0.285220
 H   -9.214619   -2.494686    0.268923
 H   -6.426598   -1.189262   -0.983842
 H   -8.331794   -0.118735   -1.437898
 H   -7.893814    0.266561    1.198907
 H   -4.632733    0.778085    2.152397
 H   -2.860961    3.753418   -1.277923
 H   -3.394732    4.166303   -2.865987
 H   -7.230987    2.054646   -3.543377
 H    0.899718   -1.196909    1.436275
 H    1.228538   -2.981652   -2.145428
 H    4.318006    0.376965   -2.334851
 H    5.425353    2.419019   -2.111053
 H    7.252042    4.653179   -0.211692
 H    5.917854    5.604711   -0.851657
 H    6.675433    4.363276   -1.855751
 H    4.963432    5.791302    1.399841
 H    4.737968    4.760788    2.816027
 H    6.315138    4.856791    2.026208
 H    3.564162    2.843757    2.400065
 H    1.492447    0.350970   -0.565578
 H    3.361546    0.907252    3.027604
 H    2.675208   -0.683250    2.685341
 H    1.386660    0.832258    4.231180
 H   -0.561706   -0.062713    3.246377
 H    1.391278    2.907059    2.965713
 H   -0.891658    3.167881    3.390178
 H    0.988042    2.211219    0.629566
 H   -0.652212    3.869034    0.405766
 H   -1.889962    1.687765    1.567096
 H   -0.749169    0.419285    1.057124
 H   -2.484703    1.933014   -2.646580
 H    6.400275   -0.013351    1.242558
 H    8.593848    0.695622    0.401264
 H    9.273107    0.144555   -1.908106
 H    7.734906   -1.122194   -3.365214
 H    5.541974   -1.826936   -2.529076
 H    4.401937   -1.035163    0.984423
 H    3.376072   -3.220046    0.369326
 H    4.490346   -3.345043   -1.009191
 H    4.514909   -2.974029    2.558924
 H    7.002518   -3.495414   -0.487197
 H    7.381244   -4.241428    1.081191
 H    7.140235   -5.980011   -0.668133
 H    5.864033   -6.142084    0.541433
 H    5.505655   -5.428370   -1.032616
