112 
4uva_ligand_xtb.xyz
 P    2.876044    3.889797    0.226514
 N   -1.091504    0.445700   -0.042239
 C   -0.024986   -0.348345   -0.153225
 O    0.993938   -0.050347   -0.758336
 N   -0.144214   -1.566113    0.509190
 C   -1.306606   -2.212096    0.775725
 O   -1.305578   -3.322052    1.268990
 N   -3.672270   -1.792021    1.227484
 C   -5.982717   -1.334214    1.725349
 C   -7.080208   -0.491380    1.777111
 C   -6.931398    0.834186    1.367343
 C   -5.678954    1.284210    0.976756
 P    3.758993    1.601429   -1.152012
 C   -2.936803    2.295882    0.952143
 C   -2.224268    0.015632    0.741450
 N   -3.304784    0.941836    0.572799
 N    3.163607   -5.632545   -0.070265
 O    3.599420    0.066523   -0.925132
 C    5.678927   -1.315883    1.057146
 O    3.929181    4.491394    1.022100
 C   -2.808187    3.251775   -0.245806
 O   -2.028822    2.679077   -1.273068
 C    4.431781   -5.302521   -0.208374
 O    3.228779    2.140504   -2.411766
 C    6.379756   -1.421313   -0.317941
 O    7.186461   -2.548297   -0.449476
 O    2.687049    4.374641   -1.254550
 C   -2.207441    4.617971    0.145529
 O   -2.032885    5.313699   -1.066376
 N    5.027306   -4.162419    0.109196
 C    7.236130   -0.137249   -0.328850
 O    8.554626   -0.393934    0.059355
 O    3.019475    2.263164    0.119378
 C   -0.863193    4.596910    0.913055
 O   -0.485121    5.952705    1.004902
 C    4.179086   -3.271410    0.632768
 C    6.553549    0.772686    0.718304
 O    5.467599    0.046727    1.280482
 C   -2.575250   -1.441897    0.375159
 C    0.243925    3.799248    0.208619
 O    1.453396    4.062760    0.915934
 C    2.808363   -3.491059    0.823364
 C    6.039711    2.097651    0.168638
 O    5.289346    1.947304   -1.028452
 C   -4.735998   -0.896114    1.298742
 C    2.296570   -4.749308    0.445466
 N    1.011521   -5.095194    0.559432
 N    2.246979   -2.363458    1.364982
 C   -8.409853   -1.010660    2.231974
 C    3.224124   -1.512781    1.499309
 C   -8.104950    1.765859    1.341145
 C   -4.567261    0.455560    0.966346
 N    4.419608   -2.003215    1.082852
 N   -3.602549   -4.704704   -0.163643
 C   -6.509156    0.188838   -2.362588
 C   -6.520568   -1.036760   -1.722014
 C   -5.300303    0.803895   -2.635819
 C   -5.333278   -1.638750   -1.345717
 C   -4.113259    0.200964   -2.263263
 C   -2.571277   -3.055749   -1.699957
 C   -2.798800   -1.619150   -1.169977
 C   -4.485155   -4.605378   -2.360830
 C   -3.556829   -4.133252   -1.283348
 C   -4.114646   -1.023636   -1.605509
 H   -1.219881    1.256187   -0.648671
 H    0.761255   -2.000493    0.831003
 H   -3.929891   -2.768909    1.244449
 H   -6.091357   -2.372435    2.005480
 H   -5.574876    2.307606    0.650921
 H   -3.685200    2.709981    1.633273
 H   -1.981131    2.262065    1.482673
 H   -1.900942   -0.016627    1.809497
 H    2.642457   -0.154488   -0.924481
 H    6.344572   -1.748242    1.830376
 H   -3.812558    3.445168   -0.652266
 H   -1.832198    3.398796   -1.891297
 H    5.071781   -6.061387   -0.637351
 H    5.613006   -1.365999   -1.102642
 H    6.613497   -3.339933   -0.341473
 H    2.858337    3.644358   -1.906949
 H   -2.924719    5.154150    0.785737
 H   -1.514612    6.104011   -0.856488
 H    7.217406    0.334407   -1.319628
 H    8.737922   -1.320122   -0.163468
 H   -1.013751    4.192003    1.924304
 H    0.438324    5.977981    1.288183
 H    7.290300    0.988581    1.506257
 H    0.043842    2.727802    0.227909
 H    0.347694    4.137410   -0.826067
 H    5.434752    2.597564    0.928670
 H    6.887002    2.731004   -0.102758
 H    0.750098   -6.030723    0.300313
 H    0.324378   -4.481943    0.980648
 H   -9.145145   -0.935039    1.431278
 H   -8.333475   -2.051699    2.533991
 H   -8.781230   -0.430633    3.075993
 H    3.127491   -0.520127    1.888249
 H   -8.889109    1.374111    0.694330
 H   -7.811321    2.745137    0.972350
 H   -8.528236    1.883865    2.338403
 H   -2.899141   -4.412998    0.513754
 H   -7.437096    0.661276   -2.648307
 H   -7.456845   -1.527938   -1.504037
 H   -5.279627    1.758490   -3.140693
 H   -5.367783   -2.587550   -0.835066
 H   -3.176673    0.695825   -2.472015
 H   -1.570925   -3.378092   -1.393422
 H   -2.576258   -2.986152   -2.790227
 H   -2.008158   -1.025170   -1.643622
 H   -3.908233   -5.181200   -3.084479
 H   -5.249726   -5.249294   -1.936441
 H   -4.943823   -3.769170   -2.883473
