112 
4uva_ligand_dft.xyz
 P   -2.825541    4.010261   -0.034392
 N    1.186124    0.433411    0.209585
 C    0.066755   -0.299576    0.247463
 O   -0.947173    0.045981    0.852462
 N    0.145646   -1.502408   -0.450172
 C    1.305910   -2.162900   -0.779269
 O    1.266958   -3.264719   -1.302712
 N    3.640075   -1.762708   -1.359240
 C    5.940568   -1.303626   -1.970315
 C    7.057506   -0.477154   -2.031385
 C    6.951523    0.839919   -1.560536
 C    5.722301    1.284257   -1.082110
 P   -3.862268    1.556066    1.107892
 C    2.971704    2.322730   -0.871711
 C    2.263934    0.035966   -0.669188
 N    3.362215    0.953318   -0.543427
 N   -3.179665   -5.416034    0.702903
 O   -3.520172    0.057389    0.803080
 C   -5.865707   -1.442491   -1.190758
 O   -3.867418    4.720350   -0.780718
 C    2.914864    3.265830    0.333050
 O    2.171520    2.681569    1.391732
 C   -4.473128   -5.098507    0.795652
 O   -3.548335    2.096489    2.452228
 C   -6.592391   -1.289306    0.156822
 O   -7.385206   -2.381943    0.514456
 O   -2.584279    4.365581    1.488515
 C    2.293948    4.626742   -0.005010
 O    2.162161    5.286825    1.239579
 N   -5.114987   -4.054781    0.268321
 C   -7.495459   -0.091515   -0.162138
 O   -8.637905   -0.534558   -0.854542
 O   -3.049483    2.380401   -0.038207
 C    0.929543    4.624832   -0.723149
 O    0.554952    5.989823   -0.723078
 C   -4.282379   -3.263663   -0.425125
 C   -6.641485    0.741586   -1.127078
 O   -5.641173   -0.143204   -1.656312
 C    2.616733   -1.442041   -0.398738
 C   -0.166580    3.796870   -0.049539
 O   -1.387318    4.168028   -0.714237
 C   -2.919328   -3.458978   -0.591363
 C   -5.976026    1.964069   -0.530948
 O   -5.397059    1.687527    0.754748
 C    4.718298   -0.866988   -1.464217
 C   -2.362802   -4.605234    0.008706
 N   -1.052475   -4.904717   -0.066702
 N   -2.370619   -2.429686   -1.326963
 C    8.363780   -1.004751   -2.566946
 C   -3.383951   -1.643743   -1.597987
 C    8.147763    1.756223   -1.548881
 C    4.593615    0.468873   -1.051398
 N   -4.567121   -2.095467   -1.089022
 N    3.682222   -4.788549   -0.134475
 C    6.578954    0.136848    2.457030
 C    6.641991   -1.033677    1.707810
 C    5.338158    0.672877    2.786972
 C    5.473021   -1.659308    1.289461
 C    4.172229    0.040629    2.368942
 C    2.727945   -3.228469    1.555199
 C    2.917914   -1.745767    1.122948
 C    4.713987   -4.794935    2.030424
 C    3.706245   -4.280309    1.035642
 C    4.220404   -1.129546    1.608911
 H    1.316005    1.218573    0.850362
 H   -0.751021   -1.923002   -0.758593
 H    3.908515   -2.737499   -1.385132
 H    6.021389   -2.337577   -2.300295
 H    5.652038    2.292503   -0.682600
 H    3.670639    2.744281   -1.602178
 H    1.992595    2.290656   -1.365871
 H    1.873271    0.054202   -1.705104
 H   -2.540276   -0.131637    0.856611
 H   -6.493685   -2.017550   -1.884060
 H    3.939068    3.444108    0.689253
 H    1.962025    3.415264    1.993170
 H   -5.082851   -5.782432    1.379726
 H   -5.858178   -1.023909    0.927251
 H   -6.793944   -3.162098    0.574770
 H   -2.918022    3.659415    2.107179
 H    2.984654    5.180833   -0.657876
 H    1.570006    6.038406    1.075526
 H   -7.764251    0.469072    0.742107
 H   -8.866919   -1.389770   -0.456629
 H    1.058487    4.270778   -1.756353
 H   -0.376394    6.028855   -0.984893
 H   -7.278299    1.079643   -1.952591
 H   -0.015785    2.723196   -0.171607
 H   -0.243173    4.041880    1.011593
 H   -5.222532    2.364662   -1.212663
 H   -6.725278    2.738312   -0.351899
 H   -0.755070   -5.791530    0.310221
 H   -0.424684   -4.410051   -0.692482
 H    9.155501   -0.959451   -1.809153
 H    8.268345   -2.045730   -2.888024
 H    8.712204   -0.420094   -3.426888
 H   -3.330386   -0.711277   -2.137729
 H    8.957032    1.349896   -0.929682
 H    7.889309    2.741269   -1.149560
 H    8.559518    1.901221   -2.555105
 H    2.892283   -4.416427   -0.671971
 H    7.491599    0.630798    2.777121
 H    7.602540   -1.456350    1.429748
 H    5.273868    1.588921    3.366997
 H    5.547264   -2.547899    0.671910
 H    3.211854    0.491028    2.601409
 H    1.711417   -3.545538    1.292961
 H    2.772847   -3.223133    2.649535
 H    2.123853   -1.225223    1.668554
 H    4.192238   -5.391425    2.790160
 H    5.446294   -5.430355    1.529010
 H    5.218639   -3.978280    2.556167
