34 
4uvw_ligand_xtb.xyz
 C   -0.283042   -2.082984    0.627827
 C    0.204087   -0.737342    0.164799
 C    1.611752   -0.405214    0.061528
 C    2.677383   -1.339920    0.042802
 C    2.498749   -2.828316   -0.064513
 C    3.983047   -0.881241    0.055359
 C    4.306021    0.469223    0.049163
 C    3.289806    1.387411   -0.029643
 C    1.960503    0.962894   -0.036471
 C    0.952989    2.010676   -0.187073
 O    1.181222    3.204137   -0.284288
 N   -0.335156    1.546540   -0.252154
 C   -0.716592    0.247718   -0.032250
 C   -2.178978    0.048095   -0.020889
 C   -2.781364   -0.897107   -0.847300
 C   -4.156424   -1.040218   -0.859327
 C   -4.947152   -0.245347   -0.045927
 C   -4.356935    0.699607    0.776512
 C   -2.982521    0.851658    0.784685
 H   -1.303833   -1.997711    0.993120
 H   -0.275349   -2.828294   -0.164532
 H    0.335024   -2.440475    1.446197
 H    2.216073   -3.274456    0.886850
 H    1.747177   -3.081546   -0.805915
 H    3.438631   -3.282565   -0.371559
 H    4.784771   -1.606879    0.056057
 H    5.338817    0.781833    0.070991
 H    3.477223    2.448135   -0.095925
 H   -1.056470    2.240947   -0.405638
 H   -2.166226   -1.506678   -1.491795
 H   -4.613524   -1.772685   -1.508139
 H   -6.020669   -0.360142   -0.054874
 H   -4.968975    1.321196    1.413090
 H   -2.524328    1.582884    1.435754
