34 
4uvw_ligand_dft.xyz
 C   -0.268080   -2.114677    0.614288
 C    0.200598   -0.754301    0.146851
 C    1.625072   -0.401777    0.057226
 C    2.697867   -1.342695    0.049448
 C    2.526604   -2.843392   -0.061819
 C    4.005246   -0.870677    0.063371
 C    4.323436    0.488229    0.052032
 C    3.301131    1.406840   -0.021265
 C    1.972656    0.969463   -0.028533
 C    0.952983    2.020513   -0.186511
 O    1.183332    3.216806   -0.296224
 N   -0.335618    1.542033   -0.250617
 C   -0.720670    0.229717   -0.044203
 C   -2.195965    0.046748   -0.026407
 C   -2.813995   -0.868940   -0.882850
 C   -4.197126   -1.010420   -0.884425
 C   -4.980161   -0.234255   -0.033740
 C   -4.374113    0.684318    0.818732
 C   -2.990337    0.826568    0.820745
 H   -1.312581   -2.073003    0.926634
 H   -0.187790   -2.896426   -0.146689
 H    0.311491   -2.437382    1.483489
 H    2.153336   -3.307379    0.855097
 H    1.844563   -3.112622   -0.872749
 H    3.492253   -3.304604   -0.286403
 H    4.814132   -1.597192    0.062114
 H    5.360842    0.807105    0.066557
 H    3.483824    2.473931   -0.084492
 H   -1.044587    2.239075   -0.435305
 H   -2.201166   -1.464014   -1.553383
 H   -4.664884   -1.723168   -1.556791
 H   -6.060348   -0.344064   -0.036418
 H   -4.978848    1.289131    1.487569
 H   -2.518431    1.534370    1.497250
