32 
4uvy_ligand_xtb.xyz
 C    4.830589   -0.563358   -0.010018
 C    4.465466    0.780486   -0.082479
 C    3.133833    1.148777   -0.081953
 C    2.130017    0.150124   -0.010356
 C    2.521649   -1.196708    0.062369
 C    3.873919   -1.546245    0.063503
 C    1.511435   -2.250467    0.143353
 N    0.206654   -1.802676    0.128113
 O    1.739804   -3.443405    0.222508
 C   -1.635689   -0.225487    0.030205
 C   -2.151318    0.913624    0.648961
 C   -3.505908    1.179432    0.631495
 C   -4.365834    0.303325   -0.013866
 C   -3.876031   -0.832481   -0.639611
 C   -2.519585   -1.093310   -0.612079
Cl   -6.061208    0.630822   -0.038786
 C   -0.194050   -0.493621    0.052517
 C    0.744863    0.485498   -0.014689
 C    3.623969    3.475216   -0.213018
 O    2.682218    2.432724   -0.143000
 H    5.878834   -0.821106   -0.012048
 H    5.243350    1.525662   -0.138836
 H    4.132878   -2.591510    0.122215
 H   -0.498697   -2.524095    0.216080
 H   -1.483876    1.586314    1.164477
 H   -3.897957    2.058269    1.118413
 H   -4.551877   -1.503654   -1.145790
 H   -2.146143   -1.967442   -1.125626
 H    0.464539    1.519945   -0.103402
 H    4.274898    3.489292    0.666968
 H    4.235794    3.404492   -1.117960
 H    3.042096    4.395212   -0.243991
