35 
4uw1_ligand_dft.xyz
 O   -1.235685   -3.427298   -0.002968
 C   -1.015822   -2.234427   -0.001758
 C   -2.129536   -1.240962   -0.000326
 C   -3.453856   -1.691817    0.002079
 C   -4.481496   -0.767420    0.003691
 C   -4.209219    0.604376    0.002868
 N    0.321288   -1.781931   -0.001178
 C    0.598571   -0.527066   -0.001944
 C   -0.418088    0.586993   -0.004145
 C   -1.837340    0.116110   -0.001225
 C   -2.890045    1.045377    0.000336
 O   -2.507077    2.349871   -0.000863
 C   -3.514566    3.337051    0.001018
 C    2.035316   -0.145945   -0.000889
 C    3.011727   -1.151853    0.002335
 C    4.357642   -0.828061    0.003453
 C    4.781946    0.506253    0.001297
 C    3.809147    1.504913   -0.002010
 C    2.454998    1.187167   -0.003035
 C    6.251159    0.840479    0.002582
 H   -3.641623   -2.759384    0.002611
 H   -5.514912   -1.100170    0.005589
 H   -5.032179    1.309978    0.004177
 H   -0.239630    1.229482   -0.876470
 H   -0.237790    1.235383    0.863302
 H   -4.147080    3.265775   -0.892785
 H   -4.143571    3.265947    0.897310
 H   -2.996107    4.296420   -0.000097
 H    2.684118   -2.185619    0.003868
 H    5.098979   -1.623488    0.006078
 H    4.112068    2.548738   -0.003821
 H    1.733125    1.997730   -0.005662
 H    6.746996    0.424226    0.886586
 H    6.749599    0.419568   -0.877738
 H    6.417857    1.921341   -0.000013
