46 
4uxj_ligand_dft.xyz
 P    1.894762   -0.238430    1.855547
 O    1.676890    1.209445    2.032734
 O    2.424852   -1.015299    3.137423
 O    3.062260   -0.588852    0.781004
 P    3.244389   -0.241370   -0.786792
 O    2.566151   -1.165879   -1.705880
 O    4.828718   -0.229172   -0.875404
 O    2.896380    1.307676   -0.895976
 P    1.412196    2.036729   -1.028116
 O    1.588758    2.930605   -2.327695
 O    0.330235    1.042413   -1.047484
 O    1.492587    3.110106    0.113168
 O    0.637856   -1.043191    1.390691
 C    0.625055   -2.473022    1.162939
 C   -0.533652   -2.820969    0.261269
 O   -1.762258   -2.448835    0.867248
 C   -0.531773   -2.168785   -1.128809
 O    0.304783   -2.843324   -2.027258
 C   -2.010530   -2.300803   -1.481064
 C   -2.702408   -2.097986   -0.129163
 N   -3.137820   -0.705410    0.086951
 C   -4.387425   -0.374735   -0.410537
 O   -5.119414   -1.178263   -0.962318
 N   -4.725832    0.950091   -0.231041
 C   -3.951512    1.977217    0.326298
 O   -4.387572    3.113100    0.383518
 C   -2.643635    1.536865    0.796251
 C   -1.725133    2.553656    1.401465
 C   -2.309209    0.240131    0.651238
 H    2.946835   -0.450769    3.724827
 H    5.135598   -0.747074   -1.632673
 H    1.017880    2.610731   -3.040357
 H    1.517661    2.646783    0.983808
 H    1.553179   -2.776044    0.668009
 H    0.540287   -2.960211    2.136593
 H   -0.492881   -3.912475    0.117446
 H   -0.255170   -1.111884   -1.043678
 H    1.125429   -2.330766   -2.089818
 H   -2.355663   -1.589132   -2.231920
 H   -2.195641   -3.314579   -1.851510
 H   -3.599489   -2.707307   -0.021404
 H   -5.636013    1.215082   -0.584821
 H   -2.220580    3.086844    2.219241
 H   -1.430975    3.304686    0.660808
 H   -0.820952    2.075519    1.787804
 H   -1.354632   -0.139759    0.987197
