49 
4uxl_ligand_dft.xyz
 C   -4.543318    1.531843   -0.029360
 C    2.207703   -2.224693   -1.230058
 C    3.113490   -1.702318   -2.141441
 C   -0.162617    0.976149    0.637642
 C    3.508707    0.149266   -0.628723
 C   -1.399640    2.528022   -0.683746
 C   -3.733116    0.384666   -0.237160
 C   -1.321718    1.271269   -0.098425
 C   -2.351735    0.241207   -0.256198
 C    1.947333   -1.581943   -0.016430
 C    2.626032   -0.397510    0.302669
 C    0.857846    1.892915    0.709980
 C    3.741307   -0.506983   -1.823994
 C   -2.168265   -1.144440   -0.494081
 C    0.677399    3.146310    0.074017
 C    0.984453   -2.202876    0.959206
 C   -0.889724   -1.913051   -0.699750
 C    2.424990    0.348345    1.615603
 C    3.689991    0.393830    2.454496
 C   -5.679735   -1.204496   -0.471165
 C   -1.188768   -3.156814    1.427641
 N   -5.224083    2.456364    0.135463
 N   -0.435781    3.450106   -0.585601
 N   -3.337546   -1.775145   -0.611347
 N   -4.275294   -0.847089   -0.458638
 N   -0.297209   -2.433292    0.533773
 N    1.694028    4.066169    0.099315
 O    1.353371   -2.498565    2.090430
 O    2.045582    1.706634    1.352903
 F    4.600062    0.028261   -2.701140
 H    1.688605   -3.150170   -1.462944
 H    3.327364   -2.194766   -3.083112
 H   -0.097540    0.025744    1.148605
 H    4.004194    1.094880   -0.436019
 H   -2.268057    2.813768   -1.273325
 H   -1.112820   -2.749332   -1.373201
 H   -0.165020   -1.265529   -1.193394
 H    1.649851   -0.135760    2.212863
 H    4.511139    0.874632    1.914420
 H    3.503798    0.947782    3.378627
 H    3.983244   -0.628344    2.707548
 H   -6.062018   -1.303306    0.548648
 H   -6.248972   -0.436362   -0.998495
 H   -5.769221   -2.157415   -0.991110
 H   -0.591660   -3.789643    2.082957
 H   -1.874452   -3.765550    0.831970
 H   -1.781437   -2.471234    2.043912
 H    2.374788    3.973066    0.837076
 H    1.423522    5.006653   -0.146542
