68 
4v01_ligand_xtb.xyz
 N   -8.572592   -2.177306    2.109717
 N    7.022469   -0.031755    0.395308
 C   -4.987621    0.155068   -0.112912
 C   -3.860635    0.746486   -0.714737
 C   -3.987959    1.995376   -1.348080
 C   -2.865509    2.550144   -1.941832
 C   -1.637114    1.912647   -1.902994
 C   -2.629817    0.097499   -0.687316
 C    2.222155    0.357680   -1.084277
 C    4.516898    1.057902   -0.895319
 C    4.006630   -1.257508   -1.122513
 C    6.458733   -0.505830   -0.852185
 C    6.580025   -0.763194    1.567883
 C    6.886902    0.021370    2.840318
 C    7.281413    3.561462   -0.174359
 C  -10.568588   -0.770838    1.644591
 C  -10.933570    0.380307    0.994944
 C   -9.946454    1.126344    0.316933
 N   -8.689411    0.795449    0.261794
 N   -8.346978   -0.315144    0.889399
 C   -9.222232   -1.144280    1.596208
 C   -7.295682   -2.030066    1.745544
 C   -7.108638   -0.879239    0.981677
 C   -5.967400   -0.333965    0.399340
 C   -1.509178    0.681183   -1.264243
 C   -5.313602    2.684736   -1.375425
 C   -0.229251   -0.079582   -1.204323
 O   -0.193749   -1.290191   -1.196355
 N    0.881440    0.724425   -1.136077
 C    3.176183    1.367078   -0.947815
 C    4.968946   -0.257266   -0.977149
 C    2.650036   -0.962165   -1.175948
 C    4.419316   -2.699167   -1.246304
 F    5.261269   -2.908451   -2.279804
 F    5.059360   -3.158411   -0.151151
 F    3.391637   -3.532101   -1.441289
 C    7.323123    3.427258    1.136102
 C    8.657512    1.064876    4.108586
 N    8.234740    0.557450    2.821044
 H    6.833807    0.956294    0.521169
 H   -2.952861    3.500599   -2.449003
 H   -0.795258    2.365178   -2.408255
 H   -2.534426   -0.867840   -0.213590
 H    5.240407    1.854011   -0.790176
 H    6.701999   -1.564402   -0.940451
 H    6.968683    0.023925   -1.663669
 H    7.110455   -1.722399    1.578665
 H    5.499054   -0.983471    1.553933
 H    6.707571   -0.637802    3.709159
 H    6.198386    0.871580    2.924457
 H    6.690333    4.324345   -0.657698
 H    7.850470    2.919879   -0.828176
 H  -11.268030   -1.389812    2.182272
 H  -11.955241    0.722617    0.993592
 H  -10.197165    2.037244   -0.205137
 H   -6.549291   -2.743013    2.035961
 H   -6.062400    2.047141   -1.843770
 H   -5.656421    2.883404   -0.360402
 H   -5.254709    3.623776   -1.919777
 H    0.715108    1.719376   -1.074021
 H    2.859591    2.398929   -0.884527
 H    1.922178   -1.749297   -1.285584
 H    6.757633    4.075199    1.787863
 H    7.917800    2.665431    1.615220
 H    8.005908    1.893954    4.389311
 H    8.617663    0.313877    4.913177
 H    9.677204    1.436899    4.026782
 H    8.875725   -0.161159    2.499054
