65 
4v24_ligand_xtb.xyz
 O   -0.691796    0.064559   -0.581299
 S   -0.307800    1.326953   -1.204993
 O   -1.419863    2.032404   -1.799339
 C    0.457289    2.352311    0.040394
 C    1.120542    1.744283    1.089402
 C    1.772743    2.539107    2.017683
 C    1.753271    3.919393    1.881237
 C    1.078023    4.514907    0.825987
 C    0.426490    3.725835   -0.108539
 C    0.982192    0.990755   -2.453370
 C    2.046977    0.238558   -1.739333
 C    3.071253    0.914695   -1.088227
 C    3.997164    0.229846   -0.310754
 C    5.110341    0.967058    0.364907
 C    3.880429   -1.147243   -0.182215
 C    2.867386   -1.836668   -0.839097
 C    1.948203   -1.139327   -1.613692
 O    2.757281   -3.203812   -0.773720
 C    2.439540   -3.734175    0.509399
 C    1.046573   -3.294589    0.881722
 C   -0.057104   -3.958935    0.362735
 C   -1.332188   -3.460507    0.556847
 C   -1.522701   -2.282889    1.267278
 C   -0.423400   -1.635974    1.816988
 C    0.849688   -2.138042    1.625932
 C   -2.879495   -1.645212    1.389006
 N   -3.099170   -0.727360    0.243459
 C   -4.136516    0.326120    0.474256
 C   -3.448019    1.642512    0.838354
 O   -2.542242    1.384672    1.894985
 C   -4.929872    0.423777   -0.835388
 C   -4.031926   -0.270640   -1.859041
 C   -3.430695   -1.396374   -1.033017
 H    1.110637    0.669312    1.161716
 H    2.299477    2.083441    2.841505
 H    2.266782    4.536264    2.602551
 H    1.063355    5.589021    0.727843
 H   -0.111064    4.155714   -0.939326
 H    1.298384    1.962219   -2.822132
 H    0.500537    0.418616   -3.241536
 H    3.159260    1.986845   -1.193235
 H    4.806838    1.979173    0.622237
 H    5.432679    0.450928    1.265339
 H    5.966689    1.033646   -0.305832
 H    4.597550   -1.692339    0.413628
 H    1.162044   -1.686514   -2.109025
 H    3.167747   -3.410335    1.262418
 H    2.500160   -4.817199    0.388441
 H    0.087643   -4.862052   -0.210297
 H   -2.179942   -3.990939    0.148214
 H   -0.573353   -0.730495    2.385831
 H    1.701681   -1.626822    2.051271
 H   -3.680753   -2.388581    1.402991
 H   -2.918215   -1.045407    2.299513
 H   -2.172047   -0.254861    0.070469
 H   -4.765144    0.006513    1.309213
 H   -4.212227    2.367037    1.143860
 H   -2.916899    2.034145   -0.039388
 H   -2.187413    2.217124    2.220479
 H   -5.132867    1.457205   -1.104589
 H   -5.880822   -0.100831   -0.746205
 H   -3.249022    0.408692   -2.197751
 H   -4.584158   -0.633475   -2.721592
 H   -2.531904   -1.831402   -1.466041
 H   -4.170821   -2.178447   -0.846619
