62 
4v25_ligand_xtb.xyz
 C   -5.067221    1.953394    2.216861
 C   -4.434143    2.843437    1.196903
 C   -5.032600    4.049299    0.844991
 N   -4.553137    4.861617   -0.081634
 C   -3.461915    4.448074   -0.695414
Cl   -2.847118    5.457315   -1.926323
 N   -2.799178    3.339859   -0.460495
 C   -3.254670    2.533721    0.498916
 C   -2.461164    1.317052    0.718806
 C   -2.158174    0.851250    1.995047
 C   -1.417153   -0.302051    2.160551
 C   -1.966132    0.629002   -0.387731
 C   -1.234229   -0.527457   -0.224498
 C   -0.974439   -1.017111    1.052989
 N   -0.255287   -2.217173    1.221546
 C   -0.610709   -3.373932    0.591304
 O    0.093253   -4.361468    0.594731
 C   -1.981092   -3.352717   -0.007663
 C   -3.103717   -3.193663    0.793118
 C   -4.374877   -3.251922    0.261467
 C   -4.540616   -3.476719   -1.102093
 O   -5.802839   -3.527208   -1.595603
 C   -3.426253   -3.633760   -1.915838
 C   -2.147816   -3.574451   -1.376806
 O   -1.040148   -3.669722   -2.152113
 C    1.034360   -2.145848    1.897319
 C    2.038392   -1.451514    1.016077
 C    2.426571   -0.141301    1.260083
 C    3.324760    0.490379    0.419832
 C    2.543469   -2.113232   -0.096626
 C    3.440110   -1.480731   -0.937248
 C    3.839593   -0.174859   -0.685379
 C    4.865121    0.505007   -1.555179
 N    6.164562    0.487764   -0.907083
 C    6.716160    1.576779   -0.361085
 O    6.272588    2.700482   -0.398258
 C    8.057533    1.261833    0.343933
 F    8.918653    0.670156   -0.521414
 F    7.858536    0.363939    1.342465
 H   -4.730111    2.218706    3.218811
 H   -6.148570    2.072386    2.190594
 H   -4.816847    0.911262    2.032928
 H   -5.944414    4.381855    1.324886
 H   -2.478436    1.404895    2.863767
 H   -1.197391   -0.659953    3.155445
 H   -2.166070    1.018621   -1.373322
 H   -0.847503   -1.057608   -1.081034
 H   -2.974934   -3.034955    1.852940
 H   -5.249746   -3.134779    0.878930
 H   -5.784961   -3.699317   -2.544894
 H   -3.552246   -3.803442   -2.979299
 H   -1.282845   -3.902741   -3.056415
 H    1.341867   -3.177761    2.086285
 H    0.918626   -1.615313    2.844930
 H    2.028463    0.387544    2.114163
 H    3.631591    1.506614    0.618185
 H    2.229607   -3.126733   -0.296470
 H    3.830940   -2.005999   -1.797045
 H    4.609292    1.556012   -1.707602
 H    4.949024    0.003453   -2.522951
 H    6.594808   -0.413515   -0.757688
 H    8.529729    2.160670    0.760673
