34 
4vgc_ligand_dft.xyz
 C    0.153493    0.054444   -1.147062
 C    1.241346   -0.491944   -0.393642
 C    2.426567    0.279020   -0.226853
 C    2.508017    1.572584   -0.805778
 C    1.459366    2.076683   -1.524622
 C    0.283672    1.309737   -1.692052
 C    1.190463   -1.780901    0.201835
 C    2.250851   -2.274602    0.917191
 C    3.425793   -1.507398    1.077673
 C    3.508182   -0.260512    0.516282
 C   -1.147098   -0.695083   -1.290860
 C   -2.038968   -0.595765   -0.026008
 C   -1.862553    2.994779    1.190994
 C   -1.638374    1.495355    1.213656
 N   -2.356006    0.788186    0.287441
 O   -0.863264    0.963990    1.990196
 O   -3.148198   -2.775492   -0.602062
 B   -3.302196   -1.544012   -0.051514
 H    3.417728    2.151406   -0.668769
 H    1.524298    3.063634   -1.973455
 H   -0.540382    1.725752   -2.267574
 H    0.297967   -2.388711    0.093833
 H    2.187138   -3.261035    1.366769
 H    4.259761   -1.908312    1.645899
 H    4.408114    0.337942    0.634189
 H   -0.978519   -1.751867   -1.520775
 H   -1.701234   -0.285402   -2.144963
 H   -1.443362   -0.933947    0.836405
 H   -1.746932    3.388127    2.201961
 H   -1.090431    3.446563    0.558698
 H   -2.844410    3.276858    0.798114
 H   -2.913222    1.306416   -0.374802
 H   -3.946200   -3.310209   -0.534216
 H   -4.360135   -1.220822    0.424583
