50 
4w4s_ligand_xtb.xyz
 C    3.342323   -1.472878    0.214156
 C    3.831544   -2.720946    0.585170
 C    3.392433   -3.825494   -0.113813
 C    2.480489   -3.709830   -1.162512
 C    1.980757   -2.481886   -1.552278
 C    2.427177   -1.376588   -0.852317
 O    2.066437   -0.073909   -1.058994
 C    2.720909    0.648710   -0.105947
 C    3.516866   -0.126352    0.680637
 C    4.318695    0.475472    1.720409
 C    4.106986    1.753162    2.030972
 C    3.008336    2.573834    1.412855
 C    2.591960    2.133990   -0.008695
 C    1.176602    2.551226   -0.323872
 C    0.127200    1.950723    0.360664
 C    0.893761    3.486234   -1.308523
 C   -0.419237    3.811639   -1.602936
 C   -1.458918    3.196198   -0.929723
 C   -1.191762    2.255951    0.058416
 C   -2.300679    1.518965    0.746857
 C   -2.732528    0.294534   -0.059451
 P   -1.347556   -0.765068   -0.675865
 O   -2.063441   -1.875592   -1.541249
 O   -0.595358    0.032973   -1.815383
 O   -0.502290   -1.269254    0.425985
 P   -3.567364   -0.946913    1.027300
 O   -2.560426   -1.206865    2.220013
 O   -4.748633   -0.198642    1.773643
 O   -4.001666   -2.151443    0.295813
 O   -3.624139    0.584036   -1.101565
 H    4.529750   -2.817200    1.402415
 H    3.754741   -4.805789    0.158118
 H    2.153075   -4.599866   -1.677391
 H    1.264533   -2.385522   -2.352715
 H    5.074342   -0.119998    2.207348
 H    4.676196    2.237941    2.810011
 H    3.298960    3.625266    1.386816
 H    2.136325    2.502054    2.074094
 H    3.270792    2.589208   -0.743713
 H    0.339853    1.216680    1.125026
 H    1.700547    3.958676   -1.849868
 H   -0.632466    4.542309   -2.368836
 H   -2.482712    3.444831   -1.169486
 H   -1.975647    1.179814    1.732040
 H   -3.181805    2.153104    0.871552
 H   -2.808334   -2.282316   -1.057826
 H    0.354021    0.079116   -1.617563
 H   -1.686291   -1.461193    1.871355
 H   -5.584477   -0.567991    1.486676
 H   -3.118949    0.840190   -1.886104
