12 
4w52_ligand_xtb.xyz
 C    0.552940    1.269335    0.000078
 C    1.375746    0.155787   -0.000015
 C    0.822814   -1.113490   -0.000008
 C   -0.552967   -1.269382    0.000049
 C   -1.375769   -0.155819   -0.000078
 C   -0.822842    1.113595   -0.000023
 H    0.984854    2.259700    0.000373
 H    2.449282    0.277246   -0.000492
 H    1.465150   -1.982223    0.000080
 H   -0.984385   -2.259926    0.000168
 H   -2.449401   -0.277495    0.000020
 H   -1.465033    1.982541   -0.000171
