12 
4w52_ligand_dft.xyz
 C   -0.703103   -1.202175   -0.000003
 C   -1.392826    0.007585   -0.000033
 C   -0.689523    1.210022    0.000057
 C    0.702859    1.202295   -0.000053
 C    1.392855   -0.007835    0.000021
 C    0.689730   -1.209887    0.000006
 H   -1.250997   -2.140108    0.000002
 H   -2.478992    0.013953   -0.000045
 H   -1.227754    2.153536    0.000212
 H    1.251530    2.139795   -0.000307
 H    2.478983   -0.013427    0.000250
 H    1.227285   -2.153788   -0.000092
