18 
4w54_ligand_dft.xyz
 C   -1.923736    0.000488   -0.593263
 C   -2.733387   -0.000365    0.709367
 C   -0.434918    0.000168   -0.335962
 C    0.265352    1.199708   -0.188982
 C    0.264981   -1.199473   -0.189305
 C    1.627520    1.202732    0.095760
 C    1.627275   -1.202931    0.095456
 C    2.313488   -0.000264    0.239127
 H   -2.194704    0.880170   -1.188985
 H   -2.194880   -0.878296   -1.190241
 H   -2.498786   -0.884889    1.310999
 H   -2.498620    0.883261    1.312255
 H   -3.809160   -0.000129    0.504580
 H   -0.264714    2.142974   -0.302040
 H   -0.265173   -2.142664   -0.302588
 H    2.155064    2.146326    0.202482
 H    2.154421   -2.146782    0.201898
 H    3.377103   -0.000346    0.458451
