21 
4w55_ligand_xtb.xyz
 C   -3.682807   -0.011812   -0.258281
 C   -2.190255   -0.042479   -0.560336
 C   -1.349148    0.073222    0.716452
 C    0.115151    0.036708    0.387323
 C    0.772730   -1.177398    0.232934
 C    2.110999   -1.217779   -0.114167
 C    2.812344   -0.040806   -0.312725
 C    2.167209    1.174394   -0.161898
 C    0.827881    1.211076    0.183357
 H   -3.958272   -0.839051    0.392571
 H   -3.953541    0.917832    0.237929
 H   -4.259907   -0.091099   -1.176757
 H   -1.933702    0.780237   -1.231698
 H   -1.937742   -0.974885   -1.070238
 H   -1.601556   -0.752986    1.384999
 H   -1.594918    1.009062    1.222853
 H    0.230005   -2.099123    0.389832
 H    2.608828   -2.169973   -0.229359
 H    3.857858   -0.070776   -0.582703
 H    2.709290    2.096826   -0.313304
 H    0.329034    2.163182    0.299909
