24 
4w57_ligand_xtb.xyz
 C   -0.413723   -0.374719   -0.528113
 C   -1.343860   -1.235697    0.042364
 C   -2.557769   -0.761453    0.504622
 C   -2.860126    0.586174    0.405253
 C   -1.942917    1.452676   -0.162805
 C   -0.729659    0.974112   -0.625941
 C    0.915530   -0.898143   -0.990905
 C    1.875133   -1.112788    0.188621
 C    2.239023    0.176077    0.925618
 C    3.133870    1.100892    0.108685
 H   -1.113961   -2.289380    0.119937
 H   -3.271389   -1.444587    0.942419
 H   -3.807582    0.958277    0.766576
 H   -2.172684    2.505249   -0.246224
 H   -0.020941    1.657914   -1.071744
 H    1.361533   -0.206089   -1.705987
 H    0.771885   -1.856808   -1.495544
 H    2.788788   -1.585393   -0.179988
 H    1.405250   -1.800428    0.895817
 H    2.759850   -0.089243    1.848940
 H    1.323167    0.702389    1.202948
 H    4.044842    0.585282   -0.189038
 H    2.627565    1.446612   -0.788637
 H    3.410666    1.973419    0.696123
