34 
4w7t_ligand_dft.xyz
 C    3.116396    0.685293    0.068113
 C    1.707902    0.581574   -0.057180
 C    1.182814   -0.722462   -0.114446
 O    1.219501    2.907868   -0.069484
 C   -4.811675   -0.343781    1.183203
 C   -5.383533   -0.482000   -0.076932
 C   -4.575686   -0.405244   -1.209019
 C   -3.207963   -0.191843   -1.078423
 C    3.842480    1.994382    0.167057
 N    3.885623   -0.397325    0.103949
 N    1.948078   -1.808404   -0.076318
 N    4.066207   -2.678890    0.022109
 C    3.268076   -1.588802    0.017732
 C    0.814800    1.758922   -0.128895
 C   -0.671304    1.489407   -0.315693
 C   -1.131333    0.180529    0.335125
 C   -2.620448   -0.052621    0.182462
 C   -0.298012   -0.972456   -0.231588
 C   -3.441260   -0.131466    1.308160
 H   -5.431458   -0.400571    2.073333
 H   -6.451717   -0.647922   -0.179011
 H   -5.013151   -0.511942   -2.197370
 H   -2.593449   -0.132700   -1.973805
 H    3.649775    2.612457   -0.713723
 H    4.911216    1.795963    0.263335
 H    3.486322    2.574894    1.021864
 H    5.049790   -2.561138    0.198328
 H    3.646201   -3.592049    0.066639
 H   -0.861665    1.450462   -1.398267
 H   -1.216948    2.353002    0.072795
 H   -0.913786    0.249434    1.409577
 H   -0.529681   -1.918531    0.265042
 H   -0.533259   -1.114900   -1.295763
 H   -3.001079   -0.023659    2.296682
