58 
4w9g_ligand_dft.xyz
 C   -1.316321    1.588108   -2.230839
 C   -0.532944    2.633135   -1.426108
 C   -1.532200    3.522098   -0.669052
 C    0.307746    3.514573   -2.360478
 C    0.358582    1.953788   -0.367042
 C    1.526090    1.120040   -0.867282
 O    1.658503    0.761442   -2.040537
 N    2.436729    0.758735    0.074767
 C    2.411541    1.135819    1.485870
 C    3.659034    0.471694    2.079205
 O    4.149433    1.301572    3.108536
 C    4.595622    0.320673    0.872250
 C    3.646022   -0.010720   -0.271193
 C    3.263651   -1.503634   -0.294395
 O    3.536858   -2.257345    0.631252
 N    2.528430   -1.862465   -1.378671
 C    1.589004   -2.972372   -1.274276
 C    0.271482   -2.475702   -0.714535
 C   -0.834284   -2.287277   -1.534619
 C   -2.031370   -1.732710   -1.071576
 C   -3.168919   -1.548753   -2.044713
 C    0.180501   -2.094497    0.627770
 C   -0.992329   -1.538156    1.109057
 C   -2.108315   -1.347578    0.278991
 C   -3.320461   -0.731737    0.848582
 S   -3.235245    0.670997    1.874198
 C   -4.957750    0.628543    2.042096
 N   -5.553035   -0.329268    1.401514
 C   -4.633374   -1.094068    0.729609
 H   -0.641940    0.904989   -2.751740
 H   -1.959283    2.081210   -2.969455
 H   -1.958118    0.999953   -1.565131
 H   -2.134749    2.934275    0.033449
 H   -1.018919    4.309034   -0.102700
 H   -2.218087    4.008605   -1.371905
 H    0.903129    4.236158   -1.786625
 H   -0.345423    4.083451   -3.032133
 H    0.985900    2.910981   -2.967512
 H   -0.259570    1.286814    0.254039
 H    0.743693    2.723217    0.314257
 H    2.506356    2.221180    1.611557
 H    1.488902    0.804888    1.972110
 H    3.407319   -0.524418    2.460737
 H    4.825011    0.809224    3.588386
 H    5.087323    1.281637    0.688088
 H    5.349266   -0.455652    1.017531
 H    4.004505    0.309907   -1.253040
 H    2.226553   -1.081317   -1.960378
 H    1.449978   -3.416490   -2.263962
 H    2.039886   -3.721827   -0.620592
 H   -0.763285   -2.560451   -2.585652
 H   -3.747960   -0.646522   -1.830081
 H   -2.786131   -1.472812   -3.066315
 H   -3.862805   -2.397150   -2.014865
 H    1.031831   -2.237321    1.287054
 H   -1.062817   -1.264155    2.158510
 H   -5.476187    1.363299    2.646556
 H   -4.979713   -1.948630    0.161442
