65 
4w9h_ligand_dft.xyz
 C    4.645643    4.207889   -1.055474
 C    3.767653    3.408290   -0.112332
 O    3.830478    3.531331    1.100788
 N    2.911812    2.536605   -0.721486
 C    2.120581    1.588260    0.034981
 C    0.597159    1.939696    0.030126
 C    0.041792    1.999918   -1.398125
 C   -0.182036    0.892437    0.834920
 C    0.429169    3.312114    0.696552
 C    2.409788    0.210663   -0.559114
 O    2.448746    0.071250   -1.788402
 N    2.624541   -0.826368    0.277034
 C    2.778209   -0.760134    1.733474
 C    3.018117   -2.215786    2.136826
 O    3.777635   -2.227209    3.321978
 C    3.719857   -2.810219    0.910704
 C    2.998926   -2.150394   -0.257967
 C    1.728784   -2.925690   -0.664611
 O    1.277949   -3.838192    0.016913
 N    1.174639   -2.495964   -1.821680
 C   -0.136383   -2.958087   -2.249965
 C   -1.256725   -2.143089   -1.640310
 C   -1.824275   -1.076274   -2.335641
 C   -2.805129   -0.284858   -1.751058
 C   -1.697485   -2.406985   -0.340807
 C   -2.671599   -1.612465    0.249426
 C   -3.242015   -0.539749   -0.447535
 C   -4.257332    0.315065    0.189910
 S   -4.162731    2.049738    0.093435
 C   -5.607018    2.151108    1.038374
 N   -6.116466    1.015310    1.395728
 C   -5.362403   -0.038078    0.921577
 C   -5.827789   -1.432415    1.215466
 H    4.207062    4.320224   -2.051261
 H    5.614500    3.707471   -1.156122
 H    4.818973    5.192751   -0.619113
 H    2.988210    2.357687   -1.712793
 H    2.477195    1.655502    1.065614
 H   -1.014040    2.292239   -1.368253
 H    0.577824    2.742187   -1.999414
 H    0.109781    1.032618   -1.902154
 H   -0.081696   -0.113914    0.413183
 H    0.141961    0.871989    1.882046
 H   -1.248590    1.138340    0.832911
 H    0.930164    4.096313    0.120902
 H    0.850366    3.320004    1.707330
 H   -0.635330    3.564143    0.762890
 H    3.654288   -0.162364    2.012136
 H    1.893871   -0.341245    2.213595
 H    2.054454   -2.722722    2.274500
 H    3.780859   -3.128363    3.663940
 H    4.772337   -2.508155    0.928511
 H    3.649138   -3.898312    0.868042
 H    3.634379   -2.005371   -1.136048
 H    1.539276   -1.625449   -2.202245
 H   -0.174094   -2.902157   -3.341960
 H   -0.222332   -4.007715   -1.960125
 H   -1.496574   -0.858534   -3.349515
 H   -3.241196    0.535974   -2.313467
 H   -1.246609   -3.224325    0.214307
 H   -2.977105   -1.805448    1.273249
 H   -6.037465    3.111465    1.296456
 H   -5.359931   -2.160034    0.548047
 H   -6.913288   -1.488760    1.097024
 H   -5.595763   -1.713658    2.249053
