61 
4w9i_ligand_xtb.xyz
 C    2.267644    4.838177   -1.314048
 C    2.337382    3.593543   -0.463930
 O    3.366122    3.171601    0.032961
 N    1.159724    2.966823   -0.247688
 C   -0.117443    3.233014   -0.864612
 C   -0.932055    1.953800   -0.627976
 O   -2.292353    2.277951   -0.513770
 C   -0.313165    1.380088    0.657817
 C    1.166255    1.724607    0.508156
 C    1.892286    0.666068   -0.325931
 O    1.692531    0.591888   -1.534709
 N    2.713366   -0.172809    0.312354
 C    3.038360   -0.167233    1.723901
 C    3.956741   -1.381083    1.913745
 O    4.829184   -1.134985    2.984931
 C    4.643230   -1.501904    0.545854
 C    3.526285   -1.144807   -0.423230
 C    2.644838   -2.368484   -0.751280
 O    2.707643   -3.409645   -0.128526
 N    1.818211   -2.142574   -1.785256
 C    0.695433   -3.016753   -2.073893
 C   -0.539456   -2.443934   -1.430721
 C   -1.445733   -1.685098   -2.157888
 C   -2.519258   -1.075310   -1.535993
 C   -0.722559   -2.576837   -0.058204
 C   -1.790038   -1.969685    0.569105
 C   -2.708744   -1.211458   -0.160356
 C   -3.811245   -0.554162    0.522604
 S   -3.601815    0.070925    2.139387
 C   -5.253053    0.590576    2.096155
 N   -5.880329    0.318000    1.014941
 C   -5.102542   -0.323043    0.106831
 C   -5.718973   -0.736882   -1.184820
 H    2.039721    4.565617   -2.342623
 H    1.493615    5.508647   -0.949766
 H    3.231796    5.337361   -1.285590
 H   -0.629702    4.069963   -0.374839
 H   -0.015474    3.451351   -1.928377
 H   -0.767211    1.249868   -1.455079
 H   -2.793968    1.467388   -0.366995
 H   -0.482680    0.309163    0.761339
 H   -0.739922    1.897981    1.518347
 H    1.675699    1.886503    1.459471
 H    3.600850    0.734072    1.991782
 H    2.140867   -0.236974    2.341172
 H    3.358120   -2.284134    2.099305
 H    5.419173   -1.889476    3.084918
 H    5.020426   -2.506012    0.360558
 H    5.456040   -0.778048    0.485101
 H    3.880786   -0.689187   -1.352699
 H    1.742609   -1.179065   -2.110040
 H    0.576367   -3.093908   -3.157247
 H    0.934396   -3.998084   -1.656703
 H   -1.305620   -1.558768   -3.221542
 H   -3.193859   -0.464875   -2.115573
 H   -0.013978   -3.154775    0.516321
 H   -1.925031   -2.078483    1.635849
 H   -5.689344    1.096129    2.933844
 H   -6.776430   -0.926821   -1.020089
 H   -5.634286    0.062042   -1.921453
 H   -5.240855   -1.632036   -1.574839
