61 
4w9i_ligand_dft.xyz
 C    2.302842    4.930778   -1.216504
 C    2.358958    3.657531   -0.401523
 O    3.398982    3.218865    0.075123
 N    1.180734    3.001620   -0.214526
 C   -0.106569    3.289331   -0.832914
 C   -0.902840    1.993273   -0.642126
 O   -2.266946    2.316877   -0.511525
 C   -0.272835    1.363416    0.609186
 C    1.211369    1.734968    0.492580
 C    1.971987    0.694488   -0.337433
 O    1.861700    0.679160   -1.565227
 N    2.692930   -0.227310    0.335994
 C    2.984202   -0.208873    1.770065
 C    3.823956   -1.468990    1.981922
 O    4.655434   -1.267673    3.100365
 C    4.559285   -1.625801    0.645596
 C    3.512139   -1.219976   -0.384842
 C    2.607297   -2.394955   -0.798125
 O    2.547988   -3.434334   -0.153042
 N    1.871299   -2.141364   -1.909313
 C    0.706950   -2.952944   -2.226136
 C   -0.526410   -2.412845   -1.534762
 C   -1.401228   -1.557196   -2.199744
 C   -2.471527   -0.970273   -1.533728
 C   -0.756370   -2.687959   -0.182803
 C   -1.831820   -2.116399    0.482054
 C   -2.702879   -1.239294   -0.180047
 C   -3.803323   -0.573545    0.537780
 S   -3.583785    0.037781    2.153969
 C   -5.217132    0.597833    2.132887
 N   -5.871578    0.362667    1.039887
 C   -5.085910   -0.302570    0.123560
 C   -5.704038   -0.688613   -1.186839
 H    2.139045    4.693488   -2.273704
 H    1.490630    5.588767   -0.891684
 H    3.258074    5.445980   -1.115142
 H   -0.628156    4.108351   -0.321137
 H    0.004113    3.546727   -1.889673
 H   -0.730697    1.332442   -1.500335
 H   -2.761163    1.495269   -0.392806
 H   -0.436319    0.283627    0.669725
 H   -0.709034    1.837151    1.495120
 H    1.685344    1.872602    1.465256
 H    3.579400    0.673169    2.035397
 H    2.068106   -0.221922    2.366357
 H    3.162705   -2.333027    2.125689
 H    5.076337   -2.108888    3.310779
 H    4.923086   -2.641569    0.479185
 H    5.399766   -0.924484    0.624850
 H    3.940244   -0.746358   -1.272753
 H    1.846830   -1.161885   -2.191959
 H    0.568897   -2.958030   -3.311473
 H    0.922557   -3.973248   -1.902723
 H   -1.232733   -1.323308   -3.247938
 H   -3.112476   -0.272317   -2.064448
 H   -0.075088   -3.347903    0.346475
 H   -2.002751   -2.352396    1.528868
 H   -5.641602    1.106958    2.989963
 H   -6.756490   -0.935453   -1.027654
 H   -5.666876    0.140032   -1.903519
 H   -5.198784   -1.549038   -1.632700
