84 
4w9j_ligand_xtb.xyz
 C   -4.337323    1.268788   -2.672467
 C   -4.321578    0.512007   -1.344671
 C   -5.475702    0.969964   -0.457080
 C   -4.366772   -0.993613   -1.633273
 C   -4.242150   -1.913938   -0.398737
 N   -5.468492   -2.002452    0.354125
 C   -6.532451   -2.724973   -0.053649
 O   -6.555379   -3.315151   -1.114055
 C   -7.684359   -2.708926    0.929700
 C   -3.158746   -1.397892    0.541130
 O   -3.420846   -0.936694    1.636917
 N   -1.904940   -1.506719    0.060274
 C   -0.811336   -0.781251    0.678993
 C    0.509466   -1.586040    0.668275
 C    0.337598   -2.806859    1.574818
 C    1.619354   -0.689628    1.221170
 C    0.877273   -2.047148   -0.742772
 C   -0.722125    0.543838   -0.081523
 O   -0.590101    0.552722   -1.304716
 N   -0.888932    1.676667    0.608796
 C   -1.084755    1.818976    2.038806
 C   -1.173794    3.333018    2.268951
 O   -1.996381    3.581583    3.378032
 C   -1.732531    3.848361    0.934840
 C   -1.036317    2.958826   -0.083372
 C    0.356276    3.511921   -0.460297
 O    0.886010    4.421104    0.145523
 N    0.880036    2.891785   -1.527220
 C    2.246240    3.114053   -1.964378
 C    3.119436    1.978149   -1.500871
 C    3.849612    2.080443   -0.324034
 C    4.595116    1.013534    0.139307
 C    3.134306    0.776636   -2.199914
 C    3.871864   -0.294335   -1.739307
 C    4.619294   -0.189096   -0.566427
 C    5.382530   -1.326592   -0.082834
 S    4.749570   -2.945047   -0.220521
 C    6.199011   -3.522128    0.533634
 N    7.048609   -2.615560    0.837958
 C    6.622526   -1.369741    0.507493
 C    7.530487   -0.216210    0.763385
 H   -5.247324    1.044364   -3.224235
 H   -4.295480    2.342528   -2.502301
 H   -3.483201    0.986582   -3.284077
 H   -3.379924    0.743922   -0.833446
 H   -5.518467    2.057221   -0.429036
 H   -5.345938    0.613095    0.560365
 H   -6.422574    0.599715   -0.843555
 H   -5.306160   -1.245921   -2.128272
 H   -3.556450   -1.234946   -2.324983
 H   -3.984761   -2.920308   -0.757012
 H   -5.438788   -1.567510    1.266913
 H   -8.497164   -3.315300    0.541510
 H   -7.362242   -3.107352    1.888946
 H   -8.032719   -1.688818    1.074944
 H   -1.771807   -1.738980   -0.912649
 H   -1.112584   -0.609730    1.713803
 H   -0.500280   -3.414613    1.241988
 H    0.152269   -2.503083    2.602505
 H    1.238022   -3.415545    1.551548
 H    1.383591   -0.357379    2.229954
 H    2.555694   -1.240389    1.257367
 H    1.765287    0.184173    0.589884
 H    0.202025   -2.827879   -1.085316
 H    1.886049   -2.452737   -0.741571
 H    0.841720   -1.215744   -1.440833
 H   -2.029864    1.364374    2.357287
 H   -0.261232    1.375873    2.599921
 H   -0.169671    3.751219    2.424600
 H   -2.038362    4.531736    3.528428
 H   -1.499302    4.897977    0.767360
 H   -2.812337    3.696474    0.913070
 H   -1.616456    2.806622   -0.999790
 H    0.413196    2.049811   -1.857923
 H    2.254079    3.188609   -3.055708
 H    2.573076    4.060439   -1.528507
 H    3.822473    3.002019    0.238414
 H    5.134154    1.099836    1.069312
 H    2.561098    0.680568   -3.110613
 H    3.878235   -1.223649   -2.290060
 H    6.342594   -4.568321    0.714482
 H    7.330967    0.594949    0.067658
 H    7.402726    0.151008    1.781585
 H    8.559615   -0.549597    0.655853
