85 
4w9k_ligand_dft.xyz
 C   -7.550272   -0.445011   -0.650546
 C   -6.507300   -1.461349   -1.006489
 N   -6.847630   -2.460114   -1.895161
 C   -5.859010   -3.275091   -2.083291
 S   -4.419726   -2.906125   -1.199762
 C   -5.228457   -1.525977   -0.514100
 C   -4.535274   -0.628996    0.425203
 C   -4.631418    0.761331    0.287272
 C   -3.955980    1.610854    1.154796
 C   -3.737899   -1.142875    1.453293
 C   -3.058801   -0.290865    2.314433
 C   -3.159054    1.093739    2.178395
 C   -2.359865    2.014834    3.074565
 N   -1.065647    2.347154    2.502390
 C   -0.923099    3.382814    1.640951
 O   -1.793115    4.213921    1.413620
 C    0.454182    3.423001    0.951703
 C    0.715683    4.749721    0.249198
 C    0.104251    4.540660   -1.140200
 O    0.630650    5.363825   -2.153996
 C    0.459453    3.089593   -1.462753
 N    0.478259    2.439932   -0.148900
 C    0.787981    1.152809    0.104539
 O    0.956128    0.742580    1.259660
 C    0.930707    0.191270   -1.084228
 C   -0.292138   -0.754149   -1.256477
 C   -1.563328    0.099009   -1.359503
 C   -0.106073   -1.539857   -2.562733
 C   -0.448424   -1.737605   -0.087554
 N    2.170710   -0.544540   -0.927065
 C    3.345408    0.126032   -1.008303
 O    3.419543    1.284558   -1.406228
 C    4.579496   -0.641141   -0.541306
 N    5.731938    0.135532   -0.917762
 C    6.964651   -0.429077   -0.966498
 O    7.160239   -1.593517   -0.639248
 C    8.086480    0.470305   -1.445035
 C    4.516055   -0.894913    0.993207
 C    3.797726   -2.174264    1.348866
 C    4.405587   -3.400239    1.052264
 C    3.763453   -4.596038    1.349323
 C    2.503422   -4.584901    1.947372
 C    1.892033   -3.371312    2.241842
 C    2.534517   -2.169511    1.943599
 H   -7.317547    0.056035    0.292238
 H   -7.638656    0.318872   -1.431667
 H   -8.522636   -0.936449   -0.561332
 H   -5.904240   -4.135635   -2.740331
 H   -5.217638    1.177616   -0.526160
 H   -4.017689    2.687353    1.024141
 H   -3.654980   -2.218148    1.584688
 H   -2.442919   -0.710695    3.106460
 H   -2.190319    1.546454    4.048893
 H   -2.892416    2.954262    3.236528
 H   -0.355182    1.620844    2.446048
 H    1.231774    3.156095    1.672661
 H    0.270725    5.589606    0.785793
 H    1.792534    4.911451    0.135652
 H   -0.985804    4.646283   -1.065579
 H    0.269888    6.249351   -2.033030
 H   -0.274377    2.633121   -2.128920
 H    1.452405    3.043436   -1.924075
 H    1.030287    0.766484   -2.006685
 H   -1.496215    0.823813   -2.179006
 H   -1.771928    0.640916   -0.431201
 H   -2.425433   -0.542974   -1.564292
 H   -0.953210   -2.217597   -2.715381
 H    0.810340   -2.138268   -2.544694
 H   -0.053324   -0.865289   -3.425301
 H   -1.370775   -2.312696   -0.224853
 H   -0.509844   -1.216533    0.870930
 H    0.373897   -2.459480   -0.033815
 H    2.151331   -1.391855   -0.373533
 H    4.628114   -1.612376   -1.047248
 H    5.543091    1.070063   -1.255931
 H    8.522056    0.036864   -2.349493
 H    8.868202    0.490720   -0.681480
 H    7.765216    1.493600   -1.657033
 H    4.051770   -0.034988    1.488165
 H    5.551262   -0.962176    1.337102
 H    5.388847   -3.398548    0.586263
 H    4.247297   -5.540533    1.118176
 H    2.002430   -5.520034    2.179903
 H    0.908104   -3.352991    2.702046
 H    2.042042   -1.221475    2.145755
