85 
4w9k_ligand_xtb.xyz
 C   -7.428243   -0.491887   -0.958156
 C   -6.360907   -1.520738   -1.108962
 N   -6.621383   -2.616216   -1.867273
 C   -5.645214   -3.442586   -1.888750
 S   -4.265320   -2.971487   -0.952664
 C   -5.119952   -1.514860   -0.518797
 C   -4.499932   -0.525597    0.345523
 C   -4.671352    0.839433    0.116194
 C   -4.051168    1.767552    0.930091
 C   -3.689920   -0.931391    1.406067
 C   -3.076728    0.000467    2.217769
 C   -3.253686    1.360424    1.991807
 C   -2.511466    2.372667    2.823451
 N   -1.165939    2.543423    2.305683
 C   -0.827600    3.567524    1.508656
 O   -1.539843    4.519553    1.262174
 C    0.604000    3.428221    0.944595
 C    1.070534    4.718593    0.288167
 C    0.522429    4.586450   -1.139237
 O    1.212370    5.340533   -2.100669
 C    0.712300    3.094415   -1.437101
 N    0.613827    2.447607   -0.142995
 C    0.692662    1.140171    0.122823
 O    0.659011    0.722494    1.279814
 C    0.893557    0.177477   -1.050859
 C   -0.322073   -0.744939   -1.299165
 C   -1.558221    0.134787   -1.501240
 C   -0.063678   -1.557322   -2.570424
 C   -0.562978   -1.696965   -0.126499
 N    2.099721   -0.581633   -0.777573
 C    3.300471    0.002194   -0.934329
 O    3.452952    1.099844   -1.442603
 C    4.483393   -0.828127   -0.446939
 N    5.686913   -0.153150   -0.862652
 C    6.863904   -0.799628   -1.009162
 O    7.003334   -1.968466   -0.712604
 C    7.973233    0.073252   -1.554960
 C    4.431284   -0.999271    1.093339
 C    3.589381   -2.176068    1.493682
 C    4.057175   -3.462874    1.243716
 C    3.292842   -4.564118    1.581881
 C    2.051938   -4.394116    2.175767
 C    1.581768   -3.118230    2.431107
 C    2.345233   -2.012409    2.091560
 H   -7.327755    0.034902   -0.012534
 H   -7.379505    0.230481   -1.772878
 H   -8.396932   -0.982978   -1.005821
 H   -5.648633   -4.366279   -2.431526
 H   -5.262438    1.171931   -0.722116
 H   -4.173922    2.822394    0.733884
 H   -3.547636   -1.986352    1.590233
 H   -2.451411   -0.329034    3.034883
 H   -2.443442    2.045262    3.864755
 H   -2.999502    3.348445    2.774982
 H   -0.549194    1.733869    2.317472
 H    1.266491    3.082919    1.745339
 H    0.673030    5.590077    0.804955
 H    2.159250    4.767498    0.253108
 H   -0.547413    4.838761   -1.139535
 H    1.096154    6.276010   -1.904137
 H   -0.046123    2.726287   -2.128577
 H    1.709471    2.948483   -1.868258
 H    1.095786    0.748386   -1.959801
 H   -1.419292    0.815242   -2.338489
 H   -1.772534    0.717565   -0.608268
 H   -2.423566   -0.487677   -1.713566
 H   -0.891345   -2.239851   -2.746385
 H    0.849712   -2.139400   -2.475824
 H    0.034006   -0.904128   -3.434619
 H   -1.528146   -2.182795   -0.247090
 H   -0.565547   -1.154343    0.813914
 H    0.197065   -2.474034   -0.081447
 H    2.016335   -1.369155   -0.149458
 H    4.463984   -1.824227   -0.908291
 H    5.549048    0.793579   -1.193101
 H    7.727493    0.389303   -2.566411
 H    8.900773   -0.491104   -1.571443
 H    8.096041    0.957156   -0.933748
 H    4.061131   -0.080536    1.552818
 H    5.457494   -1.166897    1.426142
 H    5.028075   -3.591012    0.787414
 H    3.666280   -5.558367    1.386167
 H    1.455877   -5.254739    2.441362
 H    0.616415   -2.979143    2.895023
 H    1.967052   -1.019600    2.288574
