84 
4w9l_ligand_xtb.xyz
 C   -3.006110   -5.116893    0.567995
 C   -2.973306   -3.819350   -0.208669
 O   -2.076331   -3.520339   -0.976863
 N   -4.033743   -3.018926    0.017614
 C   -4.185953   -1.719681   -0.614044
 C   -5.669103   -1.352062   -0.825244
 C   -6.284552   -2.360963   -1.800635
 C   -6.451830   -1.361756    0.490652
 C   -5.730919    0.048863   -1.439519
 C   -3.366500   -0.704126    0.208734
 O   -3.828734    0.074108    1.022938
 N   -2.053591   -0.824555   -0.031116
 C   -1.075330   -0.008252    0.652248
 C    0.204471   -0.809879    0.992834
 C   -0.160924   -1.897999    2.005878
 C    0.807033   -1.463158   -0.251958
 C    1.218625    0.150256    1.618205
 C   -0.805672    1.205486   -0.240873
 O   -0.454762    1.070965   -1.409879
 N   -1.024694    2.419824    0.282251
 C   -1.482774    2.739073    1.620751
 C   -1.502063    4.271765    1.668932
 O   -2.495939    4.693657    2.566132
 C   -1.762352    4.655954    0.205988
 C   -0.960296    3.615226   -0.560634
 C    0.511673    4.050923   -0.734716
 O    0.998159    4.980901   -0.123070
 N    1.159010    3.306367   -1.641949
 C    2.589938    3.406453   -1.865804
 C    3.259721    2.152716   -1.371877
 C    3.211908    0.994247   -2.138068
 C    3.734445   -0.191341   -1.662227
 C    3.843126    2.101435   -0.112595
 C    4.369551    0.919342    0.368391
 C    4.321817   -0.244716   -0.398235
 C    4.842172   -1.491715    0.134317
 S    4.667134   -1.870279    1.827277
 C    5.488407   -3.365857    1.526692
 N    5.852785   -3.549525    0.313959
 C    5.503807   -2.518014   -0.496606
 C    5.901199   -2.580068   -1.931580
 H   -3.918218   -5.666242    0.346141
 H   -2.972373   -4.911621    1.636299
 H   -2.146752   -5.721503    0.293497
 H   -4.684840   -3.245300    0.751947
 H   -3.706533   -1.800513   -1.597686
 H   -6.190430   -3.376782   -1.422795
 H   -5.790175   -2.310427   -2.768215
 H   -7.340473   -2.144876   -1.943546
 H   -5.941128   -0.755144    1.232624
 H   -7.442902   -0.945165    0.327739
 H   -6.580238   -2.371876    0.876422
 H   -6.755958    0.294487   -1.706312
 H   -5.373178    0.787333   -0.728171
 H   -5.118664    0.103815   -2.337362
 H   -1.720966   -1.481320   -0.725845
 H   -1.548151    0.318446    1.581685
 H   -0.884940   -2.586903    1.577569
 H   -0.586337   -1.464291    2.908644
 H    0.727857   -2.461400    2.279347
 H    0.184858   -2.281133   -0.608420
 H    0.922390   -0.734672   -1.049180
 H    1.786503   -1.869918   -0.011762
 H    1.486316    0.940117    0.919935
 H    2.126010   -0.386895    1.884000
 H    0.817715    0.602774    2.522889
 H   -0.818058    2.326677    2.380601
 H   -2.502043    2.371414    1.786863
 H   -0.516443    4.652240    1.971356
 H   -2.504889    5.656240    2.589000
 H   -1.422314    5.664127   -0.023136
 H   -2.827689    4.562821   -0.007589
 H   -1.378932    3.382035   -1.545352
 H    0.694440    2.461933   -1.971661
 H    2.769700    3.542980   -2.937434
 H    2.940331    4.286542   -1.322320
 H    2.745613    1.018195   -3.112312
 H    3.651979   -1.088414   -2.254328
 H    3.874880    2.992554    0.496921
 H    4.818206    0.888726    1.350927
 H    5.665640   -4.062514    2.321266
 H    6.042530   -1.581851   -2.338365
 H    5.139217   -3.096056   -2.515706
 H    6.825545   -3.146257   -2.013992
