24 
4w9n_ligand_xtb.xyz
 C    3.628435    0.488107    0.624979
 C    3.846252   -0.602944   -0.199501
 C    2.352605    1.024330    0.728623
 C    1.301373    0.442086    0.004145
 C    1.541872   -0.635084   -0.832195
 C    2.815895   -1.165565   -0.935066
 C   -3.520802   -0.986601    0.174824
 C   -3.464455    0.326961   -0.266079
 C   -2.246016    0.980681   -0.287079
 C   -1.077097    0.334456    0.129633
 C   -2.376108   -1.638365    0.605306
 C   -1.162662   -0.976570    0.584893
 O    0.072088    1.067194    0.127676
Cl    5.434444   -1.264516   -0.315808
Cl   -5.035798   -1.808679    0.190996
Cl   -2.153735    2.615411   -0.824792
 O    2.138520    2.094916    1.522423
 H    4.429493    0.933869    1.190674
 H    0.731475   -1.055425   -1.408153
 H    3.005025   -2.004440   -1.584141
 H   -4.355650    0.837473   -0.592599
 H   -2.431699   -2.654691    0.959975
 H   -0.271237   -1.475405    0.933422
 H    1.208475    2.355114    1.448398
