71 
4w9o_ligand_xtb.xyz
 C    4.393988    2.982797    1.318882
 O    5.137454    2.650406    0.169127
 C    5.044945    1.383787   -0.309236
 C    4.267579    0.390178    0.250140
 C    5.806703    1.098585   -1.467002
 O    6.558688    2.131417   -1.949176
 C    7.366021    1.893532   -3.073158
 C    5.739610   -0.166350   -2.015659
 C    4.944704   -1.161732   -1.453039
 C    4.212378   -0.886294   -0.316033
 O    3.405803   -1.778675    0.342218
 C    3.067590   -2.985466   -0.306334
 C    1.953225   -3.659588    0.498952
 N    0.769008   -2.822068    0.585377
 C   -0.062813   -2.862383   -0.475355
 O    0.143482   -3.614592   -1.413190
 C    0.641915   -1.942647    1.729825
 C    0.711683   -0.459329    1.351559
 C    1.113589    0.398183    2.563697
 O    1.118101    1.749717    2.164119
 C    0.195509    0.203873    3.783312
 O    0.478002    1.267462    4.679113
 C   -0.623101    0.033355    0.743671
 C   -0.432440    0.813008   -0.562444
 C   -0.119354   -0.114910   -1.732043
 C   -1.218114   -1.166712   -1.858821
 C   -1.304651   -1.959243   -0.544589
 N   -1.522525   -1.084055    0.574725
 S   -3.018420   -0.994827    1.244739
 O   -2.876458   -0.347047    2.517888
 O   -3.605142   -2.298019    1.191204
 C   -3.961039    0.096943    0.165255
 C   -4.644169   -0.455303   -0.899817
 C   -5.311683    0.394322   -1.772062
Cl   -6.172235   -0.258751   -3.108462
 C   -5.291102    1.769494   -1.581189
 C   -4.600632    2.291770   -0.496295
Cl   -4.579356    3.992568   -0.248989
 C   -3.926724    1.458849    0.387352
 H    4.726248    2.406126    2.188430
 H    4.586976    4.039843    1.494224
 H    3.320714    2.826271    1.171069
 H    3.681601    0.573144    1.133703
 H    6.769585    1.620758   -3.950688
 H    7.881867    2.832403   -3.268367
 H    8.105721    1.108634   -2.880704
 H    6.307378   -0.409324   -2.899178
 H    4.924770   -2.134717   -1.915735
 H    2.707517   -2.789698   -1.323922
 H    3.934742   -3.657629   -0.358145
 H    1.678814   -4.586189   -0.010725
 H    2.305119   -3.881809    1.506117
 H   -0.295068   -2.151187    2.255438
 H    1.476707   -2.165804    2.394978
 H    1.503855   -0.339935    0.609939
 H    2.135255    0.115705    2.872534
 H    1.034755    2.269199    2.976816
 H   -0.859395    0.219468    3.489920
 H    0.414258   -0.760053    4.257546
 H   -0.145190    1.226696    5.410186
 H   -1.107253    0.693126    1.464841
 H   -1.352932    1.360043   -0.784613
 H    0.366540    1.538704   -0.411376
 H    0.840077   -0.611316   -1.575609
 H   -0.047162    0.465409   -2.653317
 H   -2.175788   -0.681675   -2.061852
 H   -0.996476   -1.863668   -2.666954
 H   -2.160868   -2.642078   -0.569056
 H   -4.663998   -1.525823   -1.023229
 H   -5.811280    2.422775   -2.263151
 H   -3.401857    1.850135    1.243161
