71 
4w9o_ligand_dft.xyz
 C    4.068970    2.477884    2.278214
 O    4.594994    2.668312    0.980593
 C    4.590113    1.610217    0.143093
 C    4.120269    0.349608    0.470074
 C    5.106478    1.850628   -1.154779
 O    5.541654    3.116946   -1.384335
 C    6.052914    3.402958   -2.662312
 C    5.131514    0.813138   -2.068828
 C    4.652296   -0.465002   -1.740307
 C    4.141338   -0.688037   -0.474180
 O    3.626637   -1.875249   -0.035853
 C    3.305331   -2.863648   -0.997578
 C    2.215691   -3.744767   -0.408964
 N    0.990395   -2.984425   -0.165690
 C    0.230113   -2.744036   -1.270921
 O    0.522722   -3.221118   -2.362417
 C    0.779446   -2.427430    1.172017
 C    0.776577   -0.899640    1.226538
 C    1.070196   -0.409858    2.650211
 O    0.944855    0.999341    2.663944
 C    0.157355   -0.997783    3.725742
 O    0.468201   -0.283120    4.916167
 C   -0.532726   -0.277871    0.673521
 C   -0.274181    0.852677   -0.330428
 C    0.200525    0.329771   -1.686271
 C   -0.802222   -0.684223   -2.236559
 C   -1.012208   -1.836732   -1.239565
 N   -1.378948   -1.329634    0.082533
 S   -2.907991   -1.532400    0.656566
 O   -2.841034   -1.443292    2.107581
 O   -3.477060   -2.688899   -0.010967
 C   -3.817298   -0.092141    0.100856
 C   -4.395130   -0.117512   -1.163835
 C   -4.999357    1.043314   -1.629583
Cl   -5.731781    1.050943   -3.208855
 C   -5.033518    2.204582   -0.863159
 C   -4.456432    2.184505    0.401744
Cl   -4.502447    3.625975    1.377709
 C   -3.844776    1.041822    0.903736
 H    4.663158    1.747323    2.843564
 H    4.137437    3.449500    2.769144
 H    3.022611    2.149436    2.247851
 H    3.720708    0.138286    1.453924
 H    5.298814    3.242816   -3.445216
 H    6.333842    4.456899   -2.645282
 H    6.940229    2.796486   -2.890210
 H    5.530685    0.972179   -3.063881
 H    4.703238   -1.253157   -2.481615
 H    2.922854   -2.404655   -1.915310
 H    4.194345   -3.459296   -1.246845
 H    1.997050   -4.550948   -1.111672
 H    2.548519   -4.183308    0.534869
 H   -0.141896   -2.831865    1.602029
 H    1.612022   -2.787520    1.780304
 H    1.610292   -0.557525    0.608349
 H    2.105795   -0.693566    2.903318
 H    0.867985    1.234461    3.602073
 H   -0.897315   -0.873102    3.452020
 H    0.354638   -2.070699    3.852363
 H   -0.244416   -0.417888    5.549471
 H   -1.084625    0.143422    1.513567
 H   -1.206566    1.415060   -0.471593
 H    0.456305    1.535655    0.112882
 H    1.191947   -0.135590   -1.593128
 H    0.318424    1.162924   -2.386105
 H   -1.768873   -0.192683   -2.404181
 H   -0.468649   -1.108522   -3.185457
 H   -1.823761   -2.481695   -1.581536
 H   -4.383304   -1.022682   -1.760357
 H   -5.505855    3.102983   -1.242112
 H   -3.411450    1.028556    1.896728
