159 
4wci_ligand_xtb.xyz
 N    0.920322    0.141906   -1.455167
 C    2.334026    0.073381   -1.778374
 C    2.940156   -1.154804   -1.093208
 O    2.250643   -1.936363   -0.430897
 C    3.107615    1.355947   -1.393497
 C    4.088451    1.739110   -2.481794
 O    4.862192    0.926831   -2.961451
 N    4.010470    3.014856   -2.883607
 N    4.239163   -1.297297   -1.297397
 C    5.033009   -2.333712   -0.677805
 C    6.120500   -1.637974    0.162015
 O    7.068891   -1.103809   -0.375030
 C    5.742426   -3.209644   -1.717286
 C    4.840909   -4.057034   -2.627027
 C    3.871387   -4.925933   -1.827034
 C    4.077115   -3.224782   -3.656813
 N    6.009737   -1.673297    1.508645
 C    4.868308   -2.056079    2.309660
 C    3.698443   -1.091087    2.058960
 O    3.828508   -0.131273    1.313769
 C    5.386272   -1.939122    3.750011
 C    6.347650   -0.756991    3.657507
 C    7.018089   -0.982634    2.308316
 N    2.595644   -1.373746    2.763633
 C    1.236168   -0.922444    2.491029
 C    0.951296    0.566676    2.799467
 O   -0.042706    0.916649    3.412743
 C    0.273741   -1.812814    3.300867
 O    0.799279   -3.132241    3.301517
 C   -1.131797   -1.780899    2.714838
 N    1.863927    1.403360    2.308155
 C    1.692343    2.838397    2.269376
 C    0.801263    3.166001    1.060272
 O    0.403887    2.272560    0.321720
 C    3.075252    3.479439    2.184937
 N    0.460332    4.436637    0.834618
 C   -0.356181    4.731355   -0.340214
 C    0.325022    4.173552   -1.589813
 O    1.538146    4.281604   -1.730775
 C   -0.422724    6.260277   -0.366647
 C   -0.289632    6.625908    1.109871
 C    0.763995    5.631776    1.592968
 N   -0.440482    3.633384   -2.546095
 C   -1.872162    3.354187   -2.535281
 C   -2.118711    2.088132   -1.689470
 O   -1.797639    0.972602   -2.071650
 C   -2.196744    3.109661   -4.011627
 C   -0.918325    2.470904   -4.549533
 C    0.179184    3.218298   -3.802820
 N   -2.636339    2.336472   -0.484226
 C   -2.770443    1.277311    0.496611
 C   -3.990990    0.423063    0.130763
 O   -5.029585    0.904741   -0.278646
 C   -2.817225    1.873897    1.920832
 C   -4.121105    1.697505    2.705307
 C   -5.274130    2.609824    2.253758
 N   -4.938633    4.013896    2.311276
 C   -4.394330    4.698333    1.259114
 N   -4.456940    4.397417    0.017165
 N   -3.662814    5.819483    1.612063
 N   -3.807858   -0.903412    0.257646
 C   -4.850060   -1.858188   -0.036982
 C   -4.418557   -3.213149    0.516692
 O   -3.295942   -3.422263    0.940786
 C   -5.218846   -1.879948   -1.541203
 C   -4.055517   -1.755676   -2.526589
 C   -3.244338   -3.038161   -2.762664
 N   -2.265718   -3.323850   -1.737469
 C   -1.121104   -2.658387   -1.569759
 N   -0.320222   -2.980522   -0.551983
 N   -0.734147   -1.701267   -2.394777
 N   -5.396212   -4.135366    0.550097
 C   -5.155317   -5.492586    0.990341
 C   -4.289996   -6.227384   -0.033976
 O   -3.802139   -5.701580   -1.001015
 C   -6.467720   -6.221765    1.243906
 O   -4.116950   -7.500201    0.278893
 H    0.005656   -1.023076   -2.048218
 H    0.482716    0.942189   -1.899998
 H    0.799322    0.290756   -0.456955
 H    2.421289   -0.087302   -2.862013
 H    3.671656    1.181643   -0.475909
 H    2.400437    2.166146   -1.217970
 H    3.319170    3.646894   -2.503939
 H    4.649545    3.347685   -3.587360
 H    4.730962   -0.618594   -1.887999
 H    4.361069   -2.929286   -0.058626
 H    6.409718   -3.879328   -1.168870
 H    6.367514   -2.555904   -2.327826
 H    5.517293   -4.722171   -3.176425
 H    3.122938   -4.311854   -1.331019
 H    3.355092   -5.615796   -2.490830
 H    4.403655   -5.508034   -1.077629
 H    4.729075   -2.487780   -4.117961
 H    3.685161   -3.872472   -4.438472
 H    3.238399   -2.708857   -3.197778
 H    4.535831   -3.074699    2.081837
 H    4.586727   -1.782115    4.471273
 H    5.930757   -2.845747    4.015804
 H    5.786802    0.178209    3.649300
 H    7.063124   -0.730843    4.475464
 H    7.901182   -1.623305    2.397645
 H    7.315391   -0.061025    1.805391
 H    2.588921   -2.254550    3.263425
 H    1.044814   -1.064415    1.416798
 H    0.246218   -1.431597    4.333698
 H    0.136152   -3.716175    3.683173
 H   -1.511152   -0.765846    2.747830
 H   -1.796987   -2.417332    3.295263
 H   -1.112333   -2.143289    1.690237
 H    2.621415    1.014028    1.740976
 H    1.163695    3.140225    3.182219
 H    3.494929    3.340019    1.191486
 H    3.043175    4.539668    2.407918
 H    3.732303    3.001540    2.907848
 H   -1.342741    4.288285   -0.198737
 H    0.425187    6.653968   -0.929418
 H   -1.345810    6.617980   -0.816439
 H   -1.234719    6.447385    1.623269
 H    0.014807    7.658333    1.263574
 H    1.764866    5.997753    1.339420
 H    0.707671    5.439108    2.665330
 H   -2.441532    4.192405   -2.127326
 H   -2.390505    4.060383   -4.508334
 H   -3.066890    2.467050   -4.126343
 H   -0.901092    1.414517   -4.285431
 H   -0.821468    2.571995   -5.627639
 H    0.502807    4.113174   -4.344936
 H    1.062017    2.605833   -3.608388
 H   -3.175157    3.198918   -0.324934
 H   -1.872549    0.658750    0.388298
 H   -2.592698    2.939873    1.845988
 H   -2.007498    1.436002    2.505570
 H   -4.460280    0.662038    2.646701
 H   -3.903225    1.911554    3.754736
 H   -6.136223    2.441111    2.906134
 H   -5.570232    2.358412    1.235059
 H   -4.696525    4.348554    3.232903
 H   -5.061452    3.607857   -0.186649
 H   -3.569257    6.473008    0.848431
 H   -3.928024    6.259948    2.480261
 H   -2.946562   -1.298043    0.611370
 H   -5.759131   -1.556493    0.504831
 H   -5.790546   -2.783420   -1.760172
 H   -5.867880   -1.018515   -1.704765
 H   -3.399765   -0.943541   -2.208498
 H   -4.486546   -1.468423   -3.487334
 H   -3.911356   -3.899992   -2.804175
 H   -2.732029   -2.963800   -3.727482
 H   -2.503015   -4.057406   -1.085583
 H   -0.518045   -3.795494    0.001774
 H    0.619937   -2.570846   -0.502845
 H   -1.406371   -1.301475   -3.026153
 H   -6.289533   -3.938701    0.126716
 H   -4.559182   -5.447737    1.912182
 H   -6.267286   -7.229174    1.595344
 H   -7.052894   -6.282972    0.328632
 H   -7.045494   -5.695370    1.998816
 H   -3.559708   -7.959455   -0.371301
