55 
4wcu_ligand_dft.xyz
 C    1.849955   -2.218100    0.126557
 C    2.763144   -2.406410   -0.912525
 C    4.127644   -2.227835   -0.706730
 C    3.791485   -1.665754    1.471692
 C    2.416313   -1.815950    1.337849
 O   -1.062139    4.639162   -0.774930
 C   -0.959169    3.421615   -0.720981
 N    0.158188    2.715429   -0.976748
 C    1.436663    3.338310   -1.233803
 C    2.547511    2.701196   -0.424588
 C    3.813936    2.528532   -0.982036
 C    4.849364    1.969317   -0.238461
 C    4.627688    1.573956    1.076596
 C    3.363462    1.734426    1.638648
 C    2.330549    2.290886    0.892319
 C   -2.187385    2.579543   -0.379860
 O   -1.773991    1.320099    0.152204
 C   -2.494357    0.199176   -0.056569
 C   -3.888689    0.193445    0.030499
 O   -4.576090    1.349641    0.266485
 C   -4.816255    1.592406    1.646734
 C   -4.608798   -1.005732   -0.118454
 O   -5.945260   -0.886172   -0.011330
 C   -6.731686   -2.053612   -0.140310
 C   -3.927722   -2.205828   -0.325184
 C   -2.542005   -2.194092   -0.369536
 C   -1.797409   -1.017927   -0.257811
 C   -0.317988   -1.072909   -0.380661
 O    0.372188   -0.142240   -0.748131
 C    0.369795   -2.403212   -0.037239
Cl    1.407532   -1.469220    2.718329
 N    4.637631   -1.873919    0.468342
Cl    2.224386   -2.868605   -2.506241
 H    4.824918   -2.380112   -1.525618
 H    4.214427   -1.361004    2.424505
 H    0.124659    1.702627   -0.888306
 H    1.328564    4.399376   -0.984569
 H    1.682209    3.284325   -2.302328
 H    3.990659    2.828823   -2.012362
 H    5.827873    1.833929   -0.689727
 H    5.432937    1.128953    1.653538
 H    3.176755    1.419468    2.661826
 H    1.340630    2.396514    1.326913
 H   -2.789917    2.438871   -1.282451
 H   -2.780205    3.136949    0.346620
 H   -5.428642    0.794823    2.082252
 H   -3.871724    1.675782    2.198926
 H   -5.356714    2.538586    1.701956
 H   -6.600748   -2.514779   -1.126451
 H   -6.493053   -2.785126    0.641404
 H   -7.765727   -1.727893   -0.028369
 H   -4.460125   -3.141819   -0.438820
 H   -2.031252   -3.138141   -0.525881
 H   -0.066960   -2.819069    0.874762
 H    0.174179   -3.115207   -0.845725
