67 
4wf2_ligand_xtb.xyz
 P    0.012953   -1.342586   -0.684651
 O   -0.002346   -0.802884   -2.151894
 O    1.206342   -2.114318   -0.283923
 O   -1.343280   -2.158699   -0.663594
 C   -1.601676   -3.061174    0.399175
 C   -3.048199   -2.894674    0.876183
 O   -3.197122   -1.700332    1.636753
 C   -4.038223   -2.799053   -0.293592
 O   -5.267316   -3.364769    0.064985
 C   -4.157065   -1.281722   -0.497050
 O   -5.385496   -0.941562   -1.059857
 C   -3.978952   -0.763897    0.948773
 N   -3.347086    0.529781    0.976392
 C   -2.464342    1.006528    1.901310
 N   -2.079769    2.226738    1.683427
 C   -2.732653    2.603167    0.536639
 C   -2.758422    3.779588   -0.231234
 N   -2.006140    4.856537    0.055621
 N   -3.549752    3.818061   -1.307899
 C   -4.273560    2.757740   -1.615321
 N   -4.335127    1.595928   -0.987630
 C   -3.538465    1.543964    0.085884
 C    0.657770    0.964750    0.238545
 O   -0.292786   -0.098957    0.289385
 C    1.042157    1.476257    1.624157
 C    1.594034    0.418048    2.581430
 C    2.727907   -0.451906    2.033872
 C    3.913985    0.336236    1.477316
 C    5.039542   -0.592068    1.017748
 S    6.664348    0.235321    1.133279
 C    6.403184    1.031856   -0.475780
 C    5.725503   -0.021672   -1.355844
 N    4.663935    0.525563   -2.161080
 C    3.486366   -0.145135   -1.998039
 O    2.455077    0.088743   -2.615885
 N    3.660565   -1.072754   -1.038086
 C    4.974975   -1.049306   -0.458895
 H    0.899820   -0.521525   -2.446113
 H   -1.452897   -4.080551    0.030596
 H   -0.917512   -2.875980    1.229863
 H   -3.311131   -3.734792    1.528401
 H   -3.636631   -3.289207   -1.189713
 H   -5.951068   -2.858605   -0.398558
 H   -3.316708   -0.930378   -1.107356
 H   -5.338136    0.018174   -1.254334
 H   -4.971269   -0.683625    1.432398
 H   -2.138888    0.398807    2.720633
 H   -2.137917    5.694076   -0.482529
 H   -1.492288    4.873909    0.917650
 H   -4.899506    2.853466   -2.492351
 H    0.203059    1.783346   -0.331014
 H    1.544514    0.629669   -0.303175
 H    1.781459    2.265876    1.473745
 H    0.157364    1.923917    2.079405
 H    0.777769   -0.247863    2.866682
 H    1.933227    0.933907    3.483288
 H    3.086939   -1.084085    2.850351
 H    2.325449   -1.111278    1.270055
 H    4.304879    0.988032    2.262899
 H    3.598457    0.966214    0.644828
 H    5.093749   -1.455923    1.681675
 H    7.367170    1.353084   -0.861437
 H    5.756485    1.899098   -0.339183
 H    6.478490   -0.522659   -1.977285
 H    4.830825    1.112073   -2.958675
 H    2.886778   -1.646053   -0.708933
 H    5.439481   -2.039389   -0.529137
