50 
4wiv_ligand_xtb.xyz
 O    6.327041    0.054939   -0.692208
 C    5.057060    0.014128   -1.129133
 C    4.224192   -0.263875   -0.072321
 C    5.122058   -0.378132    1.035251
 C    4.793613   -0.649525    2.456629
 C    4.805999    0.221906   -2.576272
 C    2.771832   -0.393360   -0.072883
 C    2.146832   -1.422562    0.628734
 C   -1.458751   -0.779459   -0.078174
 C   -3.321077   -1.829822   -0.004807
 C   -2.438359    0.173329   -0.378992
 N    6.350806   -0.177088    0.643851
 C    1.983323    0.512686   -0.781471
 C    0.608498    0.401784   -0.779743
 C   -0.014511   -0.623382   -0.068465
 C    0.772804   -1.540488    0.625433
 N   -2.025064   -1.982490    0.165731
 N   -3.625326   -0.500436   -0.338395
 C   -4.386039   -2.738062    0.071579
 N   -5.621786   -2.394092   -0.167379
 C   -5.873274   -1.111192   -0.501918
 C   -4.914012   -0.149763   -0.594603
 N   -2.317114    1.525076   -0.673071
 C   -2.261369    2.505395    0.428309
 C   -1.823972    3.829638   -0.200374
 C   -3.637365    2.671191    1.091350
 C   -1.243588    2.068803    1.479211
 H    3.840876   -0.193370    2.716755
 H    4.721597   -1.723012    2.627927
 H    5.582396   -0.256011    3.091642
 H    4.779965    1.286352   -2.810426
 H    5.609287   -0.229682   -3.154259
 H    3.854548   -0.223901   -2.854174
 H    2.746378   -2.145749    1.160405
 H    2.457279    1.318455   -1.322705
 H    0.003842    1.100997   -1.336813
 H    0.284396   -2.343473    1.154728
 H   -4.191898   -3.767160    0.334574
 H   -6.909226   -0.876566   -0.694678
 H   -5.123852    0.875920   -0.857777
 H   -3.029486    1.816148   -1.336999
 H   -0.859215    3.708801   -0.685328
 H   -2.545504    4.160921   -0.944698
 H   -1.738370    4.598648    0.562093
 H   -4.379392    3.007330    0.367737
 H   -3.971270    1.730048    1.525536
 H   -3.584187    3.410441    1.886376
 H   -1.527054    1.118424    1.925438
 H   -0.258531    1.958642    1.036356
 H   -1.192888    2.816066    2.266766
