68 
4wk1_ligand_xtb.xyz
 P   -0.809575    1.241009    2.269473
 O    0.427038    1.864582    1.822002
 O   -1.138403    1.305140    3.824856
 O   -2.086248    1.905100    1.618772
 C   -3.381542    1.333366    1.710621
 C   -3.896625    0.955949    0.315107
 O   -3.969593    2.103920   -0.516042
 C   -2.998968   -0.049316   -0.422999
 O   -3.455245   -1.364262   -0.203512
 C   -3.039752    0.445209   -1.885566
 O   -4.175155    0.025423   -2.579212
 C   -3.119859    1.953560   -1.625443
 N   -1.813206    2.515565   -1.346987
 C   -1.604519    3.810098   -0.934182
 N   -0.371330    4.094185   -0.669892
 C    0.316067    2.930624   -0.900206
 C    1.663185    2.553689   -0.749640
 N    2.617430    3.395009   -0.320693
 N    2.019216    1.310971   -1.097489
 C    1.089806    0.479592   -1.528827
 N   -0.209970    0.684459   -1.640573
 C   -0.575572    1.930455   -1.320266
 P   -2.806904   -2.572818   -1.044893
 O   -2.828270   -2.420014   -2.496078
 O   -3.677229   -3.773728   -0.468093
 O   -1.357121   -2.847814   -0.456623
 C   -1.217154   -3.299680    0.883609
 C   -0.119352   -2.553590    1.641692
 O    1.165906   -3.073503    1.345422
 C   -0.006195   -1.061237    1.324433
 O   -1.010591   -0.341185    1.970501
 C    1.405466   -0.740826    1.822544
 O    1.344702   -0.406596    3.184172
 C    2.139806   -2.076754    1.545273
 N    2.962372   -1.931002    0.373628
 C    2.923721   -2.602121   -0.820571
 N    3.732389   -2.124790   -1.713359
 C    4.348013   -1.057296   -1.107992
 C    5.263995   -0.080929   -1.537672
 N    5.809464   -0.081794   -2.766055
 N    5.627567    0.870066   -0.672097
 C    5.122158    0.857100    0.548780
 N    4.252579    0.013838    1.074856
 C    3.873875   -0.925547    0.205237
 H   -0.405749    0.950519    4.330343
 H   -3.371484    0.448978    2.349672
 H   -4.036874    2.098785    2.134142
 H   -4.907289    0.538319    0.414091
 H   -1.968084    0.047270   -0.080431
 H   -2.120751    0.171017   -2.410804
 H   -3.987835   -0.873853   -2.892480
 H   -3.582952    2.494969   -2.458926
 H   -2.420766    4.499488   -0.848707
 H    2.314294    4.239677    0.132423
 H    3.513201    2.997218   -0.089036
 H    1.430018   -0.507011   -1.819268
 H   -4.432176   -3.936987   -1.032629
 H   -2.160982   -3.170670    1.416871
 H   -0.953945   -4.360839    0.856301
 H   -0.314350   -2.665514    2.720303
 H   -0.045124   -0.916021    0.238127
 H    1.851902    0.071740    1.247725
 H    2.127451    0.120663    3.385140
 H    2.780697   -2.345931    2.401654
 H    2.274997   -3.442006   -0.966721
 H    5.425626   -0.703555   -3.455285
 H    6.347098    0.718398   -3.049299
 H    5.467042    1.646348    1.205817
