35 
4wk7_ligand_xtb.xyz
 C    1.069333   -1.570345   -1.011879
 C    3.454446   -2.267705   -0.649741
 N    0.202318   -1.773125    0.013539
 C    2.406511   -1.189556   -0.357689
 C    0.758127   -1.469307    1.272750
 C   -1.215306    1.068165    0.870160
 C   -2.081458    1.588314   -1.312631
 C   -2.187530    0.091879    1.014792
 C   -3.043553    0.610871   -1.174234
 C    0.776787    3.041431    0.401039
 C    2.900721    0.179777   -0.865704
 C   -1.157115    1.823144   -0.293983
 C   -3.090274   -0.139507   -0.007615
 C    1.836211    1.937236    0.451353
 N    2.051734   -1.158662    1.040216
 N    1.928402    1.227643   -0.691002
 O    0.843656   -1.665114   -2.188999
 O    0.168467   -1.509305    2.316253
 O    2.551047    1.758192    1.414084
 O   -0.236255    2.805984   -0.547696
Cl   -4.280622   -1.385068    0.163168
 H    3.146451   -3.211829   -0.207694
 H    3.553972   -2.399487   -1.723603
 H    4.415363   -1.980483   -0.230643
 H   -0.768133   -2.024920   -0.100906
 H   -0.512262    1.210581    1.674938
 H   -2.025981    2.185923   -2.208408
 H   -2.214997   -0.495211    1.918879
 H   -3.751601    0.426891   -1.966160
 H    1.271763    3.961737    0.073322
 H    0.377568    3.209734    1.407100
 H    3.793793    0.458330   -0.297909
 H    3.144537    0.093330   -1.925136
 H    2.623474   -0.703057    1.733830
 H    1.262722    1.399194   -1.429584
