35 
4wk7_ligand_dft.xyz
 C    1.374116   -1.660031   -0.959583
 C    3.851516   -1.928626   -0.617927
 N    0.526800   -1.911316    0.087883
 C    2.637966   -1.038036   -0.343777
 C    1.007335   -1.400214    1.307190
 C   -1.315451    0.896098    0.805751
 C   -2.377945    1.577612   -1.255015
 C   -2.255603   -0.124264    0.944431
 C   -3.311632    0.563042   -1.117550
 C    0.509958    3.022251    0.413659
 C    2.864717    0.361549   -0.942699
 C   -1.377863    1.745728   -0.294733
 C   -3.243485   -0.286402   -0.014565
 C    1.673294    2.031587    0.392726
 N    2.291539   -0.989169    1.068960
 N    1.766594    1.275936   -0.726775
 O    1.182968   -1.868861   -2.135448
 O    0.381133   -1.347561    2.342271
 O    2.469435    1.983812    1.320417
 O   -0.488768    2.757760   -0.545929
Cl   -4.412446   -1.577380    0.153274
 H    3.707635   -2.911419   -0.162045
 H    3.991043   -2.056319   -1.695170
 H    4.753547   -1.479714   -0.190237
 H   -0.422863   -2.238254   -0.017224
 H   -0.543142    0.979587    1.561458
 H   -2.408353    2.251744   -2.104386
 H   -2.182863   -0.795255    1.793315
 H   -4.087854    0.428151   -1.862694
 H    0.908972    4.008962    0.164077
 H    0.107828    3.068317    1.430513
 H    3.766346    0.795259   -0.499487
 H    3.022071    0.250616   -2.018282
 H    2.667808   -0.259814    1.663247
 H    1.057189    1.382488   -1.437149
