37 
4wke_ligand_xtb.xyz
 C   -2.151188   -0.831230    1.613874
 C    2.258011   -1.438026   -0.616308
 C    5.406162    0.816505    0.888757
 C    4.776793   -0.818788   -0.800563
 C   -1.817366    3.006363   -1.307823
 C   -1.200027    2.871402   -0.105867
 C    4.127770    0.861716    1.403198
 C    5.716413   -0.012563   -0.195687
 C    3.171690    0.055084    0.803074
 C    3.479327   -0.783518   -0.290433
 C    1.329923   -0.972047    0.268729
 C   -2.394941    1.043315   -0.040065
 C   -4.433919    0.065552    0.954199
 C   -4.539433   -1.458631   -0.786841
 C   -0.098824   -1.308725    0.369185
 C   -2.994249   -0.230132    0.462230
 N   -1.535879    1.762989    0.591408
 N   -5.242905   -0.648791    0.136937
 N   -3.234136   -1.159696   -0.612224
 N   -0.730336   -0.718109    1.409304
 O   -4.745536    0.778427    1.867303
 O   -5.051224   -2.222246   -1.552952
 O   -0.638206   -2.074771   -0.413440
 O    1.868289   -0.064167    1.135245
 S   -2.878152    1.684513   -1.591601
Cl    7.340728   -0.015517   -0.786788
 H   -2.408301   -0.308945    2.535611
 H   -2.414979   -1.890258    1.699654
 H    2.081828   -2.155138   -1.390894
 H    6.184662    1.424252    1.321295
 H    5.031921   -1.452822   -1.633750
 H   -1.713584    3.788234   -2.031687
 H   -0.485230    3.552814    0.317284
 H    3.878160    1.495689    2.238080
 H   -6.249071   -0.664808    0.209655
 H   -2.466174   -1.720193   -0.970852
 H   -0.261811    0.052396    1.861458
