41 
4wki_ligand_xtb.xyz
 C   -0.866187   -0.805370    2.407682
 C   -1.366371   -2.021639    2.044640
 C    4.692553   -0.746425   -0.052497
 C    2.276147   -1.399095   -0.758492
 C   -2.395080    0.005287   -1.637806
 C    2.851536    0.767481   -0.528063
 C   -2.250854   -0.461194    0.821520
 C   -4.019792    2.333796    0.347063
 C   -2.982493    0.321847   -0.232083
 C   -2.925915   -2.840287    0.302658
 C    4.943120    1.670159    0.095086
 C    3.631423    1.885363   -0.270880
 C    5.456608    0.372214    0.199361
 C    3.363666   -0.543879   -0.423645
 C    1.221110   -0.580300   -1.035766
 C   -4.509039    0.154458   -0.247476
 C   -0.161636   -0.940732   -1.386173
 N   -1.421691    0.159483    1.635580
 N   -5.012035    1.374377    0.066675
 N   -2.835120    1.734345    0.060630
 N   -0.965229    0.129168   -1.619492
 N   -2.253600   -1.797895    1.032804
 O   -5.140361   -0.833383   -0.519153
 O   -4.228551    3.454340    0.712716
 O   -0.532882   -2.096024   -1.475949
 O    1.553763    0.737322   -0.899494
Cl    7.111313    0.180386    0.661408
 H   -0.151412   -0.558056    3.165430
 H   -1.171471   -3.006967    2.413324
 H    5.103454   -1.739005    0.032723
 H    2.265829   -2.468559   -0.792824
 H   -2.818457    0.700059   -2.366650
 H   -2.642910   -1.021311   -1.915483
 H   -3.095606   -3.684602    0.968981
 H   -2.293223   -3.161726   -0.528488
 H   -3.879952   -2.483673   -0.078272
 H    5.589510    2.506866    0.305832
 H    3.225522    2.880213   -0.353505
 H   -5.998117    1.572706    0.149621
 H   -1.993839    2.027322    0.538522
 H   -0.586464    1.045670   -1.432254
