41 
4wki_ligand_dft.xyz
 C   -1.524165   -1.188558    2.634062
 C   -1.981325   -2.323935    2.026518
 C    4.878135   -0.767397   -0.115586
 C    2.415301   -1.396327   -0.769122
 C   -2.274376    0.085831   -1.578957
 C    3.014904    0.748553   -0.385844
 C   -2.546617   -0.561794    0.862469
 C   -3.928546    2.443939    0.350474
 C   -3.005179    0.366087   -0.242058
 C   -3.189981   -2.828879   -0.105310
 C    5.113000    1.644206    0.218939
 C    3.776701    1.865976   -0.074141
 C    5.643307    0.343011    0.193864
 C    3.526417   -0.555282   -0.411874
 C    1.360094   -0.564955   -0.927830
 C   -4.526476    0.371685   -0.499843
 C   -0.041446   -0.877869   -1.281556
 N   -1.879273   -0.092070    1.897969
 N   -4.951037    1.628030   -0.166739
 N   -2.750942    1.739670    0.181563
 N   -0.848937    0.207713   -1.423644
 N   -2.640116   -1.918885    0.891652
 O   -5.197784   -0.525975   -0.956851
 O   -4.080537    3.539441    0.826561
 O   -0.399531   -2.035879   -1.443768
 O    1.693590    0.745514   -0.702652
Cl    7.338596    0.129135    0.570066
 H   -0.970621   -1.095298    3.557147
 H   -1.908908   -3.369008    2.287002
 H    5.314930   -1.759389   -0.126522
 H    2.389524   -2.468412   -0.893027
 H   -2.626337    0.808424   -2.321619
 H   -2.495362   -0.919192   -1.939892
 H   -2.404753   -3.106448   -0.812112
 H   -4.017886   -2.344723   -0.622741
 H   -3.566539   -3.716216    0.407072
 H    5.761364    2.475380    0.471543
 H    3.346939    2.860797   -0.059252
 H   -5.913628    1.929317   -0.210432
 H   -2.083459    1.831500    0.943665
 H   -0.473642    1.116185   -1.189104
