64 
4wlb_ligand_dft.xyz
 C   -2.802395    0.199620    1.750437
 C   -3.173571   -0.569733   -0.593577
 C   -6.897783   -0.762720   -1.342802
 C   -4.570502   -1.122227   -0.779948
 C   -4.834703   -2.477991   -0.601514
 C   -6.116612   -2.990227   -0.786745
 C   -7.128225   -2.118690   -1.153409
 C   -5.612553   -0.271021   -1.156590
 C   -5.204281    0.384406    2.508667
 C   -3.500132   -0.874968    3.888379
 C   -3.958239   -0.498303    2.477594
 N   -3.117774    0.539910    0.361840
 F   -8.369465   -2.598491   -1.329391
 S   -2.608716    2.015990   -0.212263
 O   -3.233639    2.183934   -1.516661
 O   -2.806404    2.972846    0.862712
 C   -0.864801    1.871021   -0.491851
 C   -0.363787    1.546409   -1.758829
 C    0.992673    1.381997   -1.912937
 C    1.828127    1.544156   -0.782432
 N    1.348897    1.871113    0.426477
 C    0.033131    2.031112    0.555356
 N    3.175772    1.364801   -0.890939
 C    4.114661    1.682030    0.182108
 C    4.127401    0.589773    1.261051
 C    4.713767   -0.714383    0.734072
 N    6.056887   -0.461535    0.201636
 C    6.105294    0.511323   -0.887420
 C    5.520914    1.839762   -0.403933
 S    7.104998   -1.752946    0.117862
 O    8.379390   -1.232476   -0.346676
 O    6.986904   -2.477833    1.370518
 C    6.458969   -2.815290   -1.174340
 H   -1.901352   -0.435104    1.777517
 H   -2.575937    1.129645    2.278442
 H   -2.799568   -0.221359   -1.560390
 H   -2.495311   -1.363506   -0.252631
 H   -7.717650   -0.114317   -1.631570
 H   -4.032660   -3.150024   -0.305038
 H   -6.336410   -4.042591   -0.645393
 H   -5.407677    0.786304   -1.299103
 H   -6.022476   -0.121927    3.031543
 H   -4.996818    1.327615    3.028485
 H   -5.541747    0.625649    1.497398
 H   -3.248679    0.021291    4.469034
 H   -4.293812   -1.405746    4.423632
 H   -2.616245   -1.523131    3.868282
 H   -4.201201   -1.423739    1.939836
 H   -1.040979    1.452900   -2.601685
 H    1.418903    1.140950   -2.881963
 H   -0.320849    2.320480    1.541752
 H    3.542781    1.295024   -1.827121
 H    3.802018    2.624962    0.643649
 H    3.109082    0.424943    1.621691
 H    4.733206    0.937476    2.105227
 H    4.056408   -1.126350   -0.050342
 H    4.799023   -1.446333    1.538154
 H    5.547623    0.139736   -1.766869
 H    7.146424    0.644785   -1.183692
 H    6.175535    2.239060    0.376774
 H    5.515132    2.561639   -1.229423
 H    6.448105   -2.267795   -2.118951
 H    7.124718   -3.676758   -1.251801
 H    5.454505   -3.144205   -0.900769
