34 
4wmx_ligand_dft.xyz
 C   -2.204136   -0.364173   -0.449280
 C   -0.965913    0.076379   -0.899929
 O    1.047225    3.142359   -0.894655
 C    0.726374    2.025388   -1.220341
 O    1.486340    1.301389   -2.043923
 C   -0.575607    1.415862   -0.743960
 C   -1.469463    2.286692   -0.120064
 C   -2.705817    1.847791    0.327087
 C   -3.093058    0.510999    0.180560
 C   -4.399596    0.063671    0.696302
 C   -4.724838   -1.191883    1.005739
 N   -0.045718   -0.856862   -1.508018
 S    0.716509   -1.974634   -0.431703
 O   -0.291913   -2.639225    0.378710
 O    1.598788   -2.738377   -1.294425
 C    1.631984   -0.859543    0.592874
 C    2.884835   -0.428255    0.166121
 C    3.564101    0.507285    0.936561
 C    2.988910    0.995884    2.107235
 C    1.738145    0.546883    2.524833
 C    1.046789   -0.390272    1.766538
 H   -2.466436   -1.407925   -0.586161
 H    1.102928    0.400661   -2.127348
 H   -1.165485    3.320465    0.000866
 H   -3.381891    2.549673    0.807681
 H   -5.132908    0.853134    0.853309
 H   -4.023320   -2.016859    0.912731
 H   -5.711760   -1.434365    1.385984
 H   -0.479085   -1.422749   -2.238157
 H    3.311035   -0.814064   -0.753339
 H    4.537041    0.863250    0.615778
 H    3.519238    1.736320    2.697681
 H    1.296887    0.930796    3.438588
 H    0.069858   -0.751581    2.068455
