54 
4wn1_ligand_xtb.xyz
 C    8.874286   -1.091339    0.393291
 C    8.046819   -1.695447    1.353843
 C    8.350857   -0.222337   -0.523914
 C    6.363292    0.968660   -1.421322
 C    2.198866    0.504578    1.012075
 C    2.017740    1.116592   -1.294344
 C    6.707176   -1.427253    1.388658
 C    0.847064    0.692671    1.171589
 C    0.654552    1.299998   -1.146052
 C    5.019199    1.190970   -1.343480
 C   -5.566863    1.590112    0.600175
 C    6.975612    0.075614   -0.516218
 C    2.813763    0.724996   -0.223286
 C   -4.473335    0.850988    0.180118
 C    6.135965   -0.536330    0.454799
 C    0.056343    1.099912    0.093104
 C    4.260519    0.519815   -0.350282
 C   -3.506569    1.834021   -0.143868
 C   -3.161830   -1.293455    0.303177
 C   -3.112000   -2.641617    0.190260
 C   -5.475998   -1.348348   -0.242045
 C   -4.379089   -0.597746    0.075545
 C   -4.261608   -3.435425   -0.154391
 C   -6.034121    4.028502    0.850832
 C   -6.641108   -3.410801   -0.694691
 C   -2.129228    1.665276   -0.691142
 N    4.815289   -0.298868    0.514405
 N   -3.993187    3.046561    0.065740
 N   -5.228049    2.890123    0.518312
 N   -5.434164   -2.692481   -0.352462
 O   -4.278380   -4.650098   -0.273822
 O   -1.267630    1.254396    0.357453
 H    9.930090   -1.319944    0.385373
 H    8.482741   -2.378746    2.068241
 H    8.981722    0.246775   -1.266478
 H    6.971377    1.470736   -2.162389
 H    2.812110    0.186128    1.839922
 H    2.451438    1.258096   -2.273118
 H    6.055197   -1.883099    2.117285
 H    0.368182    0.532917    2.125104
 H    0.069985    1.594587   -2.003678
 H    4.537241    1.888666   -2.010434
 H   -6.526631    1.279652    0.961049
 H   -2.286283   -0.732938    0.590062
 H   -2.198426   -3.188773    0.362753
 H   -6.436462   -0.890451   -0.433751
 H   -6.925829    4.066718    0.222004
 H   -6.338845    3.991083    1.898145
 H   -5.432988    4.918772    0.680326
 H   -7.402406   -3.269042    0.073854
 H   -7.029591   -3.072005   -1.655999
 H   -6.380514   -4.467388   -0.757433
 H   -1.801604    2.630744   -1.095242
 H   -2.133475    0.910135   -1.491180
