54 
4wn1_ligand_dft.xyz
 C    8.485597   -1.323272   -0.260634
 C    7.490561   -2.330358   -0.256755
 C    8.130287   -0.000828   -0.186780
 C    6.321267    1.713042   -0.038036
 C    1.695166    0.176729   -0.309829
 C    2.070341    2.330800    0.685230
 C    6.162386   -1.999306   -0.178677
 C    0.324395    0.376367   -0.244245
 C    0.698633    2.542660    0.752362
 C    4.984035    1.980494    0.038780
 C   -5.783166    1.130024    0.127580
 C    6.765133    0.369580   -0.105060
 C    2.590843    1.151700    0.143780
 C   -4.515380    0.607286   -0.031741
 C    5.766122   -0.639240   -0.100405
 C   -0.176871    1.568394    0.282985
 C    4.053974    0.900190    0.057588
 C   -3.739870    1.723041   -0.439843
 C   -2.867009   -1.117740    0.825543
 C   -2.472494   -2.409422    0.967803
 C   -4.815889   -1.822358   -0.351135
 C   -4.079221   -0.784959    0.141807
 C   -3.256008   -3.514353    0.455758
 C   -6.767724    3.433428   -0.102585
 C   -5.251233   -4.208740   -0.737016
 C   -2.288919    1.757820   -0.782783
 N    4.438284   -0.357572   -0.018692
 N   -4.477354    2.825235   -0.525083
 N   -5.714758    2.445708   -0.184762
 N   -4.441479   -3.124006   -0.199355
 O   -2.977082   -4.703857    0.546116
 O   -1.522597    1.792147    0.423710
 H    9.532611   -1.603919   -0.322397
 H    7.787094   -3.373364   -0.315510
 H    8.888299    0.778471   -0.190230
 H    7.049683    2.519884   -0.060544
 H    2.095398   -0.750727   -0.704371
 H    2.733988    3.092412    1.083531
 H    5.382370   -2.753566   -0.171933
 H   -0.354990   -0.401125   -0.580929
 H    0.289360    3.453056    1.177392
 H    4.630836    3.005334    0.057848
 H   -6.706705    0.669780    0.449689
 H   -2.266109   -0.310073    1.233522
 H   -1.557257   -2.674925    1.484001
 H   -5.735627   -1.657311   -0.903074
 H   -7.733202    2.924112   -0.096527
 H   -6.665292    4.031413    0.807327
 H   -6.706304    4.088624   -0.972785
 H   -6.132251   -3.791118   -1.226742
 H   -4.665376   -4.789132   -1.453128
 H   -5.554834   -4.879213    0.069946
 H   -2.071370    2.652019   -1.377832
 H   -2.025478    0.871621   -1.372761
