65 
4wn5_ligand_xtb.xyz
 C   -7.746586    1.383538    0.833608
 C   -2.404324   -0.905794    1.133580
 C   -1.013166   -1.453091    0.822619
 C   -6.860756    0.202196    0.437649
 C   -3.478624   -1.989433    1.221091
 C    0.049531   -0.357392    0.864967
 C    7.135265    1.140431    0.159186
 C   -7.476703   -0.680404   -0.645153
 C   -3.711951   -2.746442   -0.094567
 C    1.434299   -0.901124    0.519853
 C   -6.587440   -1.884683   -0.968798
 C   -4.070728   -1.823758   -1.220912
 C    2.547307    0.138576    0.651463
 C   -5.290908   -1.457623   -1.582757
 C    2.460183    1.246583   -0.396500
 C    3.632000    2.225499   -0.277120
 C    8.390739   -0.951098    0.839851
 C    7.129956   -0.400884    0.156939
 O    5.134263    0.914097   -1.627807
 C    4.930988    1.538717   -0.614052
 O    5.835975    1.703888    0.349621
 O    7.131001   -0.922121   -1.148396
 O    9.552927   -0.500398    0.200638
 C   -7.875707    2.442786   -0.259007
 C   -8.693083    3.638695    0.214544
 H   -7.323056    1.854423    1.724621
 H   -8.741200    1.015690    1.098132
 H   -2.368311   -0.379708    2.091437
 H   -2.688775   -0.178357    0.370779
 H   -0.760895   -2.231184    1.547473
 H   -1.007670   -1.908122   -0.169099
 H   -5.892218    0.571651    0.092629
 H   -6.682310   -0.411151    1.325109
 H   -3.200970   -2.709027    1.995611
 H   -4.417458   -1.519454    1.521423
 H   -0.227677    0.427953    0.159722
 H    0.074155    0.084913    1.863885
 H    7.728473    1.522970    0.989565
 H    7.555494    1.499359   -0.786417
 H   -8.453457   -1.035392   -0.307527
 H   -7.628363   -0.098321   -1.555645
 H   -2.808243   -3.298386   -0.358359
 H   -4.506671   -3.477141    0.064844
 H    1.427410   -1.291428   -0.500329
 H    1.657637   -1.735422    1.189404
 H   -7.115380   -2.525125   -1.683584
 H   -6.417765   -2.462507   -0.060655
 H   -3.228064   -1.421696   -1.768918
 H    3.509707   -0.368564    0.544529
 H    2.515169    0.579724    1.650781
 H   -5.404624   -0.779877   -2.420768
 H    2.473878    0.804524   -1.394475
 H    1.528780    1.800361   -0.277866
 H    3.700260    2.637466    0.729480
 H    3.497225    3.042850   -0.988986
 H    8.444540   -0.613479    1.876322
 H    8.336617   -2.048226    0.821007
 H    6.243964   -0.745990    0.716622
 H    6.420108   -0.482186   -1.647815
 H    9.455414   -0.719697   -0.735439
 H   -6.878448    2.777830   -0.553680
 H   -8.355811    2.011043   -1.138518
 H   -8.224559    4.104195    1.079245
 H   -9.696114    3.326070    0.497493
 H   -8.775865    4.383921   -0.573366
