46 
4wno_ligand_dft.xyz
 C   -2.808443  -40.576301  -19.016672
 C   -0.789909  -39.345928  -19.479918
 C   -4.181148  -39.878703  -16.998069
 C   -7.820975  -41.392516  -14.938897
 C   -9.579084  -40.051642  -13.597425
 C   -6.673426  -40.667309  -15.200729
 N   -7.705693  -37.468476  -10.883065
 C   -6.683471  -37.360528  -11.830687
 C   -5.340240  -37.341801  -11.441683
 C   -4.328443  -37.336847  -12.393719
 C   -6.976836  -37.341309  -13.200141
 C   -5.964416  -37.314293  -14.148099
 C   -4.624558  -37.329378  -13.756337
 N   -3.576983  -37.290659  -14.701763
 C   -3.398488  -38.119516  -15.778711
 N   -2.316724  -37.897746  -16.499684
 C   -2.142664  -38.721766  -17.567713
 C   -3.052550  -39.757583  -17.893159
 C   -1.696907  -40.376926  -19.801015
 C   -1.004420  -38.537852  -18.391005
 N   -5.101588  -40.856216  -17.206892
 C   -6.224359  -41.172512  -16.439623
 N   -7.009559  -42.131389  -16.916534
 N   -7.974488  -42.242010  -15.981434
 C   -8.798351  -41.331065  -13.833972
 C   -8.522079  -40.477844  -12.624172
 N   -4.344118  -39.070058  -15.973112
 H   -3.491059  -41.379167  -19.282616
 H    0.087186  -39.191933  -20.102032
 H   -9.355619  -39.222717  -14.262317
 H  -10.622524  -40.140645  -13.310171
 H   -6.213637  -39.902091  -14.599817
 H   -7.481939  -37.082365   -9.976213
 H   -8.608863  -37.148545  -11.204482
 H   -5.084638  -37.360156  -10.385224
 H   -3.289915  -37.352433  -12.074119
 H   -8.014387  -37.346117  -13.524567
 H   -6.210491  -37.302736  -15.203580
 H   -2.788681  -36.686687  -14.523944
 H   -1.517228  -41.011220  -20.662979
 H   -0.318663  -37.739607  -18.127212
 H   -4.996263  -41.451334  -18.013339
 H   -8.716103  -42.906647  -16.127489
 H   -9.339233  -42.258402  -13.658113
 H   -8.836749  -40.860720  -11.659157
 H   -7.593276  -39.917304  -12.601401
