48 
4wnp_ligand_dft.xyz
 C    3.209692    2.298418    0.649943
 C    5.046835    1.171688    0.460669
 C    0.794433    1.407251    0.408732
 C    0.243398   -2.443878    0.314269
 C    0.682783   -1.878706   -0.887976
 C    2.521043   -2.693887    1.128708
 C   -4.166638   -0.815687    0.094564
 C   -5.564937   -1.047048    0.005065
 C   -6.423233   -0.016174   -0.272435
 C   -5.943825    1.300500   -0.475185
 C   -4.601213    1.561891   -0.387964
 C   -3.693767    0.516282   -0.094855
 C   -2.286333    0.633433    0.074966
 N   -1.650446    1.887650   -0.027564
 C   -0.363825    2.142039    0.090827
 N   -0.029370    3.542298   -0.130727
 N    1.202105    3.660102    0.030961
 C    1.777099    2.353446    0.394312
 C    3.846272    1.127815    1.429739
 C    4.148980    1.898250   -0.562078
 N   -1.492552   -0.354311    0.341227
 C   -2.045393   -1.600078    0.395272
 N   -1.161297   -2.608974    0.535101
 C    2.056531   -1.692792   -1.060271
 N    2.750828   -1.158857   -2.105133
 C    4.031070   -1.322454   -1.694488
 N    4.257256   -1.878068   -0.501389
 C    2.980029   -2.127883   -0.056930
 C    1.141287   -2.832234    1.314082
 N   -3.342970   -1.863437    0.327921
 H    3.536102    3.272620    1.029900
 H    5.446456    0.203097    0.157289
 H    5.846738    1.820788    0.830592
 H    0.864331    0.350483    0.611874
 H   -0.020869   -1.610690   -1.670158
 H    3.218842   -3.017298    1.895459
 H   -5.916488   -2.061959    0.154153
 H   -7.489505   -0.208079   -0.342884
 H   -6.640988    2.100911   -0.698456
 H   -4.254867    2.580432   -0.546886
 H   -2.213370    2.702083   -0.254777
 H    3.284057    0.198732    1.299368
 H    4.026673    1.300644    2.493988
 H    4.561270    2.728237   -1.139943
 H    3.629742    1.194949   -1.219168
 H   -1.560286   -3.535898    0.578652
 H    4.855010   -0.998174   -2.324325
 H    0.750548   -3.246863    2.238753
