63 
4wp7_ligand_dft.xyz
 C   -4.223807   -0.456168   -0.160739
 C   -2.889605   -0.491276    0.389438
 C   -2.163256   -1.647273    0.551016
 C   -3.965030   -2.946014   -0.311845
 C   -2.463294    4.072072   -0.645824
 C   -3.930202    4.372340   -0.319156
 C   -2.094457    4.605509   -2.032389
 C    0.269716    0.666101    1.709814
 C    2.250897    2.053247    0.989636
 O    5.320121    1.789501    0.095944
 C    4.967152    0.623964    0.187464
 C    5.673551   -0.419580   -0.560522
 O    5.493493   -1.745284   -0.289301
 C    6.333750   -2.426289   -1.098372
 C    7.048639   -1.576242   -1.883173
 C    6.621521   -0.266109   -1.530219
 N    3.918015    0.263425    1.039375
 C    3.339045    1.357401    1.797783
 C    2.931272   -0.742693    0.681532
 C    1.801853   -0.128063   -0.142625
 N    1.188447    1.062888    0.566871
 C   -0.925058   -0.064241    1.216372
 N   -2.080202    0.530505    0.829678
 C   -2.428190    1.952641    0.796497
 C   -2.163372    2.568335   -0.574919
 N   -0.934877   -1.386863    1.061133
 N   -2.680007   -2.867615    0.216805
 C   -1.942644   -4.112581    0.400740
 O   -4.453290   -4.010042   -0.622313
 N   -4.673852   -1.739846   -0.475509
 C   -6.017456   -1.885912   -1.040559
 O   -4.881232    0.556370   -0.345108
 H   -1.831144    4.583220    0.096273
 H   -4.148185    5.431341   -0.486399
 H   -4.598819    3.782356   -0.956137
 H   -4.180351    4.151062    0.723412
 H   -1.043904    4.408941   -2.277195
 H   -2.714823    4.136826   -2.805061
 H   -2.253468    5.686406   -2.087569
 H    0.014085    1.587867    2.235589
 H    0.833470    0.022100    2.382890
 H    2.686051    2.466580    0.076609
 H    1.754399    2.850757    1.546819
 H    6.314336   -3.500374   -0.996491
 H    7.793717   -1.850136   -2.614978
 H    6.970530    0.677687   -1.922221
 H    2.953168    0.968376    2.746470
 H    4.116164    2.088955    2.018359
 H    2.542522   -1.210525    1.592573
 H    3.385758   -1.538098    0.093921
 H    1.000251   -0.845862   -0.323935
 H    2.185576    0.252013   -1.093127
 H    0.588972    1.535293   -0.116546
 H   -1.865621    2.464218    1.584043
 H   -3.487798    2.019774    1.041240
 H   -1.110045    2.399492   -0.860709
 H   -2.775410    2.036613   -1.313050
 H   -2.525543   -4.797312    1.018711
 H   -1.756535   -4.585480   -0.565856
 H   -0.999395   -3.876592    0.892113
 H   -5.954208   -2.345331   -2.028203
 H   -6.620495   -2.524561   -0.393554
 H   -6.454806   -0.892448   -1.109951
