59 
4wpf_ligand_xtb.xyz
 C    0.524815    1.170149   -1.137011
 C    6.030868    1.063542   -0.604988
 C    4.661599    1.073885    0.074388
 C    1.672523   -1.025808    0.020711
 C    4.547281   -1.315269   -0.064721
 C    5.928260   -1.323725   -0.740339
 C    2.505361    0.004629   -0.432818
 C    0.301786   -0.948247   -0.114419
 C   -0.310776    0.156484   -0.691752
 C    8.395667   -1.541976    0.815755
 C    7.800860   -0.189529    0.483008
 O    8.295914    0.846078    0.883078
 N    6.701868   -0.185838   -0.313159
 N    3.886366   -0.067688   -0.370604
 C    1.897062    1.115217   -1.027422
 F   -0.018301    2.272027   -1.716072
 C   -1.811464    0.230582   -0.806357
 N   -2.444762   -0.036729    0.467904
 C   -2.809849    1.044401    1.339934
 C   -1.724214    2.102217    1.620387
 C   -2.615688    3.185285    0.992364
 C   -3.728968    2.149347    0.765818
 S   -3.361224   -1.412386    0.603009
 O   -2.790255   -2.400043   -0.266369
 O   -3.491059   -1.714027    1.998168
 C   -4.971827   -0.939507   -0.029492
 C   -5.920953   -0.450736    0.846598
 C   -7.140631   -0.018598    0.352930
 C   -7.393959   -0.077729   -1.008793
 C   -6.437818   -0.578589   -1.878214
 C   -5.217312   -1.012519   -1.386638
 H    6.654556    1.875697   -0.229292
 H    5.910392    1.158862   -1.689124
 H    4.138546    1.999363   -0.155093
 H    4.811920    1.024239    1.165121
 H    2.093018   -1.892815    0.503479
 H    4.673956   -1.452952    1.021395
 H    3.963511   -2.143874   -0.465517
 H    5.784640   -1.254413   -1.825531
 H    6.441834   -2.255482   -0.515186
 H   -0.329205   -1.748376    0.241050
 H    8.661503   -2.081539   -0.090212
 H    9.293845   -1.374716    1.403820
 H    7.699719   -2.139029    1.400851
 H    2.477228    1.931546   -1.426009
 H   -2.145620   -0.550741   -1.493586
 H   -2.115067    1.204649   -1.198733
 H   -3.198423    0.561068    2.236529
 H   -0.784239    1.924224    1.107560
 H   -1.522224    2.241640    2.679587
 H   -2.210554    3.608953    0.075899
 H   -2.884414    3.997307    1.663891
 H   -4.628036    2.318822    1.354138
 H   -4.022316    2.001763   -0.272220
 H   -5.694976   -0.433455    1.900820
 H   -7.892604    0.361623    1.027683
 H   -8.344371    0.260965   -1.393509
 H   -6.643298   -0.633273   -2.936634
 H   -4.461876   -1.425436   -2.036246
