59 
4wpn_ligand_xtb.xyz
 C   -3.640422    0.101808    0.270488
 C   -2.237418   -0.197160    0.393705
 C   -1.719078   -1.467149    0.185189
 C   -0.080648   -0.209686    0.690923
 N   -1.169191    0.598700    0.720812
 C   -1.225805    2.023125    0.929649
 C   -0.969805    2.783272   -0.384520
 C   -0.960485    5.098035    0.601003
 C    0.241372    4.643619   -1.548646
 C    1.307618    0.232273    0.983172
 C    3.258113    1.450956    0.026669
 C    4.319897    0.478762    0.515762
 C    3.215209   -1.313643   -0.853773
 C    2.168302   -0.294922   -1.279522
 C    5.381966   -1.737594    0.252964
 C   -5.804880   -0.904559   -0.198314
 O   -4.148043    1.194960    0.419506
 N   -4.361648   -1.037602   -0.057052
 C   -3.875911   -2.325754   -0.269158
 O   -4.614413   -3.234143   -0.552074
 N   -2.505255   -2.515746   -0.146823
 C   -1.943342   -3.834971   -0.347559
 N   -0.377709   -1.457220    0.361173
 C   -0.158761    4.069575   -0.190856
 N    1.972378    0.761188   -0.249247
 C    4.551321   -0.664666   -0.476839
 O    4.990702   -2.191783    1.302375
 N    6.518077   -2.114909   -0.350466
 H   -0.487374    2.300057    1.687587
 H   -2.221939    2.257830    1.307341
 H   -1.926221    3.030539   -0.845399
 H   -0.448006    2.122354   -1.090263
 H   -1.877340    5.346254    0.073655
 H   -1.223274    4.720888    1.585571
 H   -0.382754    6.009526    0.728209
 H    0.828111    3.932345   -2.129529
 H   -0.644826    4.900197   -2.122492
 H    0.832525    5.545668   -1.418474
 H    1.870843   -0.624632    1.351065
 H    1.312478    1.020955    1.738076
 H    3.586973    1.924371   -0.902234
 H    3.088642    2.232993    0.769629
 H    4.043128    0.047308    1.478894
 H    5.247949    1.031847    0.664943
 H    3.362069   -2.009401   -1.680414
 H    2.856386   -1.899415   -0.006380
 H    1.214960   -0.802823   -1.437676
 H    2.473739    0.197339   -2.205908
 H   -6.105332   -1.199978   -1.202628
 H   -6.305774   -1.553922    0.518337
 H   -6.063109    0.135079   -0.013892
 H   -2.760965   -4.552562   -0.334738
 H   -1.431691   -3.885450   -1.309469
 H   -1.233705   -4.047082    0.449764
 H    0.756884    3.834440    0.372447
 H    1.322749    1.458438   -0.639376
 H    5.067881   -0.300664   -1.367799
 H    7.084288   -2.820148    0.094977
 H    6.836716   -1.733426   -1.223078
