31 
4wsj_ligand_dft.xyz
 C   -0.415991    2.668530   -0.151074
 C    0.167123    1.314899   -0.559344
 C    1.642713    1.220472   -0.153415
 O    1.749129    1.439285    1.239171
 C    2.250694   -0.136508   -0.504073
 O    3.577990   -0.134561   -0.013653
 C    1.450952   -1.268099    0.123612
 O    2.124153   -2.465051   -0.248493
 C    0.003928   -1.216195   -0.344958
 C   -0.634610    0.133650    0.014993
 N   -2.012947    0.195597   -0.441846
 C   -3.025808   -0.418218    0.232600
 O   -2.848284   -1.003529    1.289597
 C   -4.390922   -0.336397   -0.426371
 H   -0.370055    2.786159    0.934739
 H    0.154492    3.485987   -0.604515
 H   -1.459833    2.766488   -0.462929
 H    0.145813    1.231343   -1.658582
 H    2.204438    1.995916   -0.699082
 H    2.649269    1.165914    1.470663
 H    2.242567   -0.271115   -1.597935
 H    3.851613   -1.062947    0.002064
 H    1.489005   -1.137888    1.214485
 H    1.756922   -3.190515    0.269609
 H   -0.580707   -2.016183    0.121878
 H   -0.028586   -1.367996   -1.432587
 H   -0.662921    0.227064    1.105213
 H   -2.192874    0.565807   -1.363033
 H   -5.139331   -0.152188    0.346774
 H   -4.621552   -1.301303   -0.889025
 H   -4.460010    0.444330   -1.189603
