28 
4wsk_ligand_xtb.xyz
 C   -1.141065    2.399550   -0.356149
 C   -0.304687    1.166098   -0.685172
 C    1.104726    1.317515   -0.097812
 O    1.017271    1.508312    1.291780
 C    1.969225    0.084836   -0.401932
 O    3.227014    0.294261    0.198138
 C    1.302231   -1.174887    0.160764
 O    2.159583   -2.258666   -0.146595
 C   -0.090279   -1.338431   -0.442381
 C   -0.954551   -0.109959   -0.136734
 N   -2.282159   -0.286045   -0.689975
 C   -3.325988   -0.703698    0.048228
 O   -3.295657   -0.952444    1.226197
 H   -2.156477    2.288666   -0.727331
 H   -1.172701    2.535448    0.720657
 H   -0.697856    3.284497   -0.805468
 H   -0.203266    1.069142   -1.773008
 H    1.593823    2.191783   -0.558778
 H    1.917858    1.435015    1.633944
 H    2.085910   -0.033275   -1.490128
 H    3.695968   -0.548740    0.168180
 H    1.216939   -1.062169    1.252441
 H    1.754627   -3.073272    0.168758
 H   -0.572033   -2.227587   -0.028253
 H    0.003776   -1.469696   -1.524269
 H   -1.079820   -0.012831    0.946226
 H   -2.386550   -0.159807   -1.684107
 H   -4.248447   -0.792718   -0.558072
