38 
4wsy_ligand_xtb.xyz
 C   22.959227  -40.087773   -2.450973
 C   23.179738  -40.371471   -3.810411
 C   24.416002  -40.823949   -4.315063
 C   24.567792  -41.069283   -5.651088
 C   23.496733  -40.876024   -6.538928
 C   22.283897  -40.438452   -6.082543
 C   22.096270  -40.175754   -4.711598
 N   20.888246  -39.747989   -4.287574
 C   20.715270  -39.495013   -3.027368
 C   21.722872  -39.635195   -2.035492
 C   21.440041  -39.321795   -0.655380
 C   20.568750  -38.392439   -0.058195
 C   19.693003  -37.406228   -0.521815
 N   22.050586  -39.943381    0.380753
 N   21.663544  -39.538535    1.579655
 C   20.762034  -38.578779    1.349733
 C   20.045530  -37.795199    2.270716
 C   19.182270  -36.858053    1.788350
 C   18.996573  -36.643030    0.393332
 C   18.077911  -35.623837   -0.058211
 S   17.760617  -35.371076   -1.768561
 C   17.329704  -34.732529    0.656857
 N   16.540335  -33.888342   -0.047216
 C   16.646544  -34.084632   -1.316242
 N   16.027337  -33.344238   -2.266558
 H   23.777799  -40.203066   -1.751757
 H   25.237624  -40.969754   -3.627523
 H   25.516821  -41.413815   -6.034978
 H   23.641944  -41.076980   -7.590125
 H   21.448422  -40.283035   -6.746699
 H   19.721395  -39.180742   -2.738500
 H   19.570986  -37.230334   -1.580644
 H   22.721987  -40.694071    0.311569
 H   20.191918  -37.943418    3.328583
 H   18.621714  -36.249463    2.479873
 H   17.314100  -34.647470    1.727740
 H   15.946616  -33.735324   -3.189547
 H   15.266851  -32.767535   -1.946172
