91 
4wt2_ligand_dft.xyz
 C   -6.624663    2.827550    0.759693
 O   -5.464689    2.374673    0.073450
 C   -4.913064    1.233773    0.571399
 C   -3.820113    1.377132    1.414746
 C   -5.348012   -0.054311    0.199874
 C   -6.470973   -0.260833   -0.746251
 O   -7.285403    0.565065   -1.094694
 O   -6.515104   -1.527091   -1.214911
 C   -4.653507   -1.154096    0.717040
 C   -3.572046   -1.018406    1.572777
 C   -3.128944    0.265836    1.905523
 N   -2.002896    0.530130    2.697260
 C   -1.057652   -0.347625    3.163767
 O   -1.154937   -1.563818    3.080745
 C    0.142289    0.339386    3.804951
 C    1.233596    0.910450    2.835075
 C    2.308310   -0.119405    2.472851
 C    1.917205    2.093558    3.540254
 C    0.540447    1.460840    1.586106
 O   -0.118962    2.502666    1.682384
 N    0.642788    0.798128    0.404923
 C    0.232147    1.507892   -0.824442
 C   -1.265575    1.681091   -0.950732
 C   -2.076655    0.647466   -1.681424
 C   -1.861801    2.000996   -2.297631
 C    0.965704    2.849319   -0.971056
 S    2.753428    2.594087   -1.031082
 O    3.013384    1.520960   -2.001500
 O    3.249445    2.427779    0.342497
 C    3.469811    4.153571   -1.693782
 C    3.044045    4.328782   -3.152225
 C    3.005226    5.318377   -0.816607
 C    4.988100    3.961397   -1.592044
 C    1.367874   -0.473570    0.184411
 C    0.548108   -1.416633   -0.679237
 C   -0.619211   -1.994090   -0.182392
 C   -1.361439   -2.841236   -0.982774
 F   -2.478233   -3.388587   -0.494874
 C   -0.964287   -3.132522   -2.286142
Cl   -1.927035   -4.193497   -3.268179
 C    0.204046   -2.565600   -2.780930
 C    0.957292   -1.713551   -1.977710
 C    1.785759   -1.160766    1.493427
 C    2.799120   -2.246837    1.195601
 C    4.051345   -1.924624    0.665486
 C    4.964287   -2.935302    0.397920
Cl    6.529319   -2.516439   -0.265482
 C    4.665116   -4.270924    0.643579
 C    3.416766   -4.586083    1.168292
 C    2.490483   -3.584113    1.440936
 H   -7.430444    2.092692    0.689139
 H   -6.930228    3.748061    0.260837
 H   -6.391788    3.038878    1.811724
 H   -3.494263    2.385524    1.654056
 H   -7.283388   -1.558969   -1.805823
 H   -4.964435   -2.150445    0.426670
 H   -3.065334   -1.889893    1.959642
 H   -1.717522    1.504042    2.706206
 H    0.607788   -0.390703    4.471336
 H   -0.226782    1.165375    4.421889
 H    2.674769   -0.607446    3.382998
 H    3.154850    0.413299    2.025142
 H    2.683364    2.527404    2.891866
 H    2.393897    1.742829    4.462609
 H    1.191368    2.871150    3.786376
 H    0.564691    0.881178   -1.655566
 H   -1.728814    2.159918   -0.097180
 H   -1.546864   -0.187508   -2.128995
 H   -3.056833    0.399260   -1.289185
 H   -2.692466    2.698831   -2.326571
 H   -1.195589    2.056296   -3.156187
 H    0.667965    3.309178   -1.915916
 H    0.745858    3.520426   -0.140724
 H    3.552553    5.208366   -3.560992
 H    3.321705    3.457905   -3.751214
 H    1.967440    4.498205   -3.255288
 H    3.533085    6.225501   -1.129275
 H    1.932188    5.508156   -0.920823
 H    3.231073    5.135459    0.237601
 H    5.299555    3.822078   -0.554006
 H    5.315450    3.096802   -2.176542
 H    5.479837    4.855116   -1.989620
 H    2.277692   -0.220621   -0.370526
 H   -0.973007   -1.797717    0.823182
 H    0.517004   -2.793454   -3.793960
 H    1.865253   -1.264437   -2.370343
 H    0.911717   -1.641128    1.942047
 H    4.319375   -0.892970    0.456007
 H    5.394904   -5.042817    0.426025
 H    3.165811   -5.624260    1.362504
 H    1.515071   -3.839797    1.845284
