49 
4wtu_ligand_xtb.xyz
 C    6.172011   -0.596701   -0.186828
 O    7.430293   -0.168760   -0.234867
 C    7.691046    1.227049   -0.055685
 C    6.504158    2.109793   -0.305605
 C    5.269573    1.619476   -0.324998
 C    5.064507    0.182130   -0.176084
 C    3.747431   -0.422184   -0.095621
 C    2.574749    0.318113    0.055266
 N    3.696890   -1.762201   -0.149629
 C    2.546692   -2.361670   -0.091642
 F    2.570479   -3.698486   -0.163393
 C    1.307086   -1.715801    0.037922
 O    0.171166   -2.456981    0.056048
 C    1.348699   -0.327277    0.130391
 C    0.076219    0.456965    0.335798
 C    0.021325    1.091025    1.757818
 O   -0.374074    2.432685    1.578632
 C   -0.366208    2.744041    0.248514
 N    0.072548    1.664510   -0.465730
 N   -0.688326    3.839405   -0.272649
 C   -1.135740   -0.414713    0.080398
 C   -2.392611    0.162278   -0.026432
 C   -1.019516   -1.799979   -0.017228
 C   -2.156222   -2.583180   -0.205812
 C   -3.398299   -1.996339   -0.299278
 C   -3.532991   -0.609601   -0.215643
 C   -4.841788    0.045088   -0.326920
 C   -5.009480    1.240513   -1.024749
 C   -6.261081    1.828585   -1.107977
 C   -7.328375    1.200937   -0.487887
 N   -7.192643    0.073560    0.191157
 C   -6.003280   -0.465991    0.263425
 F   -5.936714   -1.589725    0.994459
 H    6.104568   -1.675249   -0.182432
 H    8.061014    1.369813    0.974567
 H    8.510564    1.473556   -0.740858
 H    6.717620    3.156093   -0.452605
 H    4.423234    2.258899   -0.512314
 H    2.594694    1.393177    0.123309
 H   -0.706202    0.589830    2.402048
 H    1.007221    1.065280    2.236476
 H   -0.096999    1.633201   -1.455820
 H   -0.944679    4.555450    0.395078
 H   -2.486253    1.234956    0.064624
 H   -2.034786   -3.651729   -0.279201
 H   -4.266890   -2.616228   -0.453742
 H   -4.160320    1.695242   -1.513340
 H   -6.401679    2.751069   -1.647693
 H   -8.330762    1.602741   -0.525087
