87 
4wuy_ligand_xtb.xyz
 C    1.944142   -3.657299    2.165199
 C   -8.188803    2.360957    1.256901
 C    1.620453   -2.506301   -3.608020
 C   -0.005032   -4.322703    3.372380
 C   -7.993460   -0.039568    1.461295
 C    1.370679   -4.319377    3.237078
 C   -8.576222    1.174319    1.836185
 C   -7.009611   -0.096285    0.498332
 C   -0.795507   -3.642676    2.463211
 C    1.426176   -2.770881   -1.215018
 C    3.124459   -1.288730   -2.178421
 C    2.865639   -1.484826    0.228864
 C   -5.653909    2.695062   -1.293892
 C    2.074304   -2.223219   -2.370892
 C   -7.193832    2.335306    0.280325
 C    1.167216   -2.996135    1.225912
 C    1.828479   -2.393773    0.049489
 C    3.531802   -0.916141   -0.890427
 C   -6.558504    3.343363   -0.506928
 C   -6.611665    1.097602   -0.092978
 C   -0.229618   -2.959108    1.388487
 C    4.581346    0.001478   -0.660463
 C    6.725637    2.921754    2.836266
 C    5.189318    2.919919    2.937820
 C    7.016512    3.203021    1.355424
 C    4.729476    3.395200    1.561137
 C   -0.762324   -0.852115    0.274703
 C   -2.409399   -2.578966    0.320856
 C   -1.221476   -0.446161   -1.128013
 C   -2.873854   -2.141222   -1.078588
 C   -6.840913    4.806070   -0.463780
 C    6.638249    2.703912   -1.644833
 C   -4.783243    0.385545   -1.636956
 C    5.661408    3.388051   -0.686176
 C   -3.556617    0.171856   -0.729320
 C    6.574162    1.171886   -1.555506
 N    1.474289   -3.052716   -4.693984
 N   -5.686945    1.342953   -1.068649
 N   -1.005202   -2.269389    0.451771
 N    5.767989    2.889599    0.671414
 N   -2.623805   -0.739720   -1.363584
 N    5.223519    0.672349   -1.671734
 O    4.955441    0.274736    0.598765
 H    3.016082   -3.673607    2.029082
 H   -8.642794    3.296314    1.549512
 H   -0.469988   -4.843976    4.197190
 H   -8.322997   -0.950740    1.939244
 H    1.992195   -4.837808    3.952211
 H   -9.344466    1.172555    2.595847
 H   -6.565687   -1.039960    0.215868
 H   -1.866054   -3.633900    2.604900
 H    0.638466   -3.493995   -1.350458
 H    3.606213   -0.898149   -3.063726
 H    3.168913   -1.191249    1.219787
 H   -4.981235    3.101358   -2.026376
 H    7.131060    1.956666    3.134264
 H    7.173430    3.685305    3.469766
 H    4.824046    3.567839    3.731447
 H    4.822478    1.911013    3.119156
 H    7.829864    2.587102    0.969449
 H    7.286549    4.261398    1.208805
 H    4.678017    4.495615    1.525260
 H    3.756769    2.991902    1.276281
 H   -1.319964   -0.267387    1.029597
 H    0.299518   -0.643579    0.393625
 H   -2.550989   -3.656853    0.418156
 H   -3.020077   -2.074051    1.091125
 H   -0.639257   -1.014104   -1.858940
 H   -1.044854    0.618250   -1.294538
 H   -3.938893   -2.347327   -1.197319
 H   -2.323298   -2.723273   -1.823013
 H   -6.663192    5.200212    0.536824
 H   -6.202504    5.336244   -1.166515
 H   -7.881863    5.002540   -0.720079
 H    7.660814    3.020607   -1.436185
 H    6.389515    3.021650   -2.658674
 H   -5.308742   -0.561232   -1.784233
 H   -4.443862    0.742538   -2.611999
 H    4.639929    3.186674   -1.021619
 H    5.823679    4.479469   -0.727985
 H   -3.906328   -0.170711    0.255277
 H   -3.069809    1.139989   -0.586954
 H    6.991659    0.841840   -0.600953
 H    7.193295    0.747429   -2.353714
 H    5.372160    1.175788    0.651754
 H    0.778138   -2.707042   -5.354712
 H    4.908817    0.450320   -2.601095
