87 
4wuy_ligand_dft.xyz
 C    3.782660    2.081037    2.273909
 C   -8.408041   -0.494854   -0.758330
 C   -0.775922   -2.006222    1.174040
 C    3.531092    4.266850    1.308502
 C   -7.779214    1.851472   -0.777604
 C    4.257826    3.373479    2.087178
 C   -8.719559    0.831098   -1.010667
 C   -6.515481    1.565615   -0.286223
 C    2.342558    3.843046    0.723922
 C    0.786698   -0.256925    2.148825
 C    1.570700   -2.504365    1.307607
 C    3.182277   -0.756769    1.757922
 C   -5.233504   -1.712960    0.511234
 C    0.544034   -1.617603    1.511695
 C   -7.136410   -0.815663   -0.264342
 C    2.590402    1.614415    1.692906
 C    2.213920    0.193109    1.861600
 C    2.922099   -2.155622    1.541697
 C   -6.487263   -2.050435    0.087450
 C   -6.208358    0.226613   -0.027534
 C    1.855409    2.541017    0.901895
 C    4.059514   -2.916781    1.073356
 C    3.454504    1.373226   -3.421324
 C    4.125825    2.132252   -2.246787
 C    3.449036   -0.097601   -3.002845
 C    4.601535    1.046821   -1.278945
 C    0.722337    1.164286   -0.767095
 C   -0.375849    3.141901    0.020368
 C   -0.686707    0.826218   -1.290316
 C   -1.756375    2.461355    0.094748
 C   -7.079121   -3.422200    0.005443
 C    4.701397   -2.774387   -1.973012
 C   -3.815614    0.344255    0.736536
 C    4.681704   -1.442527   -1.233557
 C   -2.947324    0.437417   -0.519411
 C    4.818698   -3.957821   -0.968267
 N   -1.857246   -2.337395    0.887507
 N   -5.056953   -0.343249    0.464582
 N    0.644284    2.154528    0.289048
 N    4.639739   -0.220687   -2.100879
 N   -1.660620    1.046559   -0.244095
 N    3.836541   -3.920894    0.097869
 O    5.231778   -2.621873    1.335719
 H    4.330340    1.402454    2.921195
 H   -9.138136   -1.278807   -0.943007
 H    3.877217    5.285506    1.159277
 H   -8.048073    2.882695   -0.988466
 H    5.177280    3.686080    2.573768
 H   -9.701539    1.091027   -1.395475
 H   -5.790468    2.356745   -0.115037
 H    1.779725    4.534980    0.103207
 H    0.641191   -0.318432    3.240848
 H    1.312573   -3.498340    0.943757
 H    4.223291   -0.455079    1.656256
 H   -4.411388   -2.337238    0.839771
 H    4.023941    1.503409   -4.346383
 H    2.436566    1.716918   -3.614706
 H    3.431676    2.793433   -1.723370
 H    4.959278    2.742166   -2.603207
 H    3.533133   -0.811225   -3.823064
 H    2.580172   -0.350215   -2.389356
 H    3.880953    0.867480   -0.476094
 H    5.582633    1.211745   -0.832608
 H    1.332626    1.543119   -1.612845
 H    1.202916    0.263219   -0.372262
 H   -0.321231    3.932549    0.771940
 H   -0.237272    3.622896   -0.966935
 H   -0.719963   -0.228544   -1.579169
 H   -0.912418    1.419874   -2.199746
 H   -2.457457    2.993921   -0.577954
 H   -2.145864    2.549884    1.113842
 H   -6.356053   -4.180306    0.321393
 H   -7.964943   -3.517954    0.645654
 H   -7.392134   -3.664413   -1.017857
 H    5.543199   -2.824454   -2.677973
 H    3.777555   -2.889697   -2.555369
 H   -4.056964    1.333293    1.139168
 H   -3.264795   -0.207470    1.501529
 H    5.546273   -1.338630   -0.575985
 H    3.790106   -1.366615   -0.608300
 H   -3.503685    0.974391   -1.313292
 H   -2.773945   -0.586881   -0.861422
 H    5.802697   -3.940337   -0.497821
 H    4.720309   -4.893827   -1.526097
 H    5.479828   -0.202526   -2.685234
 H    0.054349    0.464990    1.778886
 H    2.885150   -3.955318   -0.242903
