179 
4wv6_ligand_dft.xyz
 N   13.349403   -3.532182    1.826330
 C   12.227618   -2.613257    2.246870
 C   11.334193   -2.494132    0.991820
 O   11.720122   -3.006158   -0.056107
 C   12.928217   -1.298844    2.643606
 C   14.251910   -1.341081    1.870028
 C   14.663955   -2.802567    1.980978
 N   10.183919   -1.834923    1.153910
 C    9.232937   -1.594525    0.079017
 C    8.634500   -0.204717    0.336044
 O    8.872592    0.405808    1.370948
 C    8.114776   -2.671250    0.012916
 C    7.214828   -2.633964    1.249942
 C    8.697669   -4.067200   -0.210566
 N    7.809570    0.268138   -0.634678
 C    6.789762    1.262378   -0.339820
 C    5.464474    0.695799   -0.893067
 O    5.477094   -0.226104   -1.702379
 C    7.090141    2.645920   -0.947533
 C    8.431145    3.234056   -0.464379
 C    9.619779    2.943067   -1.394619
 C    9.648773    3.754374   -2.684782
 N    9.991839    5.208922   -2.412196
 N    4.341009    1.297269   -0.463247
 C    3.008948    0.893157   -0.896686
 C    2.124332    2.117502   -0.626289
 O    2.310406    2.767883    0.397572
 C    2.549013   -0.341267   -0.091634
 C    1.222412   -0.988041   -0.514314
 C    1.076337   -2.358797    0.164353
 C   -0.185140   -3.157428   -0.165988
 N   -1.368592   -2.738876    0.646311
 N    1.184053    2.450937   -1.535622
 C    0.271647    3.547426   -1.257753
 C   -0.801948    3.078305   -0.264944
 O   -0.852684    1.916089    0.129763
 C   -0.342508    3.834172   -2.640660
 C   -0.422706    2.436185   -3.260250
 C    0.878162    1.769932   -2.801740
 N   -1.737961    3.996256    0.080974
 C   -2.878502    3.645111    0.920540
 C   -3.987511    2.962200    0.079442
 O   -5.134589    3.404259   -0.015078
 C   -3.438341    4.825324    1.708180
 C   -4.301962    4.312630    2.873829
 C   -5.309597    5.311347    3.452055
 C   -6.340819    5.847303    2.460297
 N   -6.941710    4.754114    1.636869
 N   -3.583555    1.833681   -0.519746
 C   -4.468883    0.853804   -1.124202
 C   -4.139077   -0.415536   -0.339461
 O   -2.949431   -0.735298   -0.222608
 C   -4.222105    0.666239   -2.633054
 C   -4.309826    1.996673   -3.398911
 C   -5.167961   -0.399559   -3.191262
 C   -5.680994    2.674322   -3.395678
 N   -5.146735   -1.055610    0.261890
 C   -4.932735   -2.123499    1.228187
 C   -4.858669   -3.473202    0.496072
 O   -3.778792   -4.037866    0.288878
 C   -5.996866   -2.026414    2.328917
 C   -5.822941   -0.761739    3.182610
 C   -7.105546   -0.365348    3.926671
 N   -8.135841    0.138805    3.041519
 C   -8.186181    1.401841    2.555213
 N   -9.089596    1.566199    1.510226
 N   -7.473828    2.422658    2.935622
 N   -6.034282   -3.960666    0.078448
 C   -6.163500   -5.092829   -0.816755
 C   -6.124716   -4.617425   -2.265289
 O   -5.730378   -5.580843   -3.086596
 C   -7.466319   -5.887837   -0.565640
 C   -8.796759   -5.296249   -1.067389
 C   -9.357436   -4.073878   -0.335593
 N   -8.606990   -2.857863   -0.639889
 C   -8.820573   -1.672050    0.010497
 N   -9.552916   -1.479162    1.052150
 N   -8.020094   -0.614945   -0.459161
 O   -6.474413   -3.513569   -2.634025
 H   13.339497   -4.426166    2.320731
 H   13.138358   -3.716317    0.818269
 H   11.673093   -3.070499    3.068470
 H   13.111607   -1.286675    3.721668
 H   12.317059   -0.427410    2.397637
 H   14.103680   -1.067701    0.820258
 H   15.009096   -0.678851    2.292514
 H   15.061115   -3.041009    2.969503
 H   15.356079   -3.153014    1.215219
 H   10.000405   -1.312762    2.004561
 H    9.784952   -1.600186   -0.867295
 H    7.500738   -2.423587   -0.862922
 H    6.438945   -3.400444    1.170398
 H    7.785671   -2.840181    2.162391
 H    6.716179   -1.665991    1.373265
 H    9.246025   -4.410705    0.673433
 H    7.891496   -4.783708   -0.391555
 H    9.379949   -4.093679   -1.064461
 H    7.511826   -0.368457   -1.370612
 H    6.728040    1.366235    0.749362
 H    7.062323    2.558659   -2.042296
 H    6.270768    3.317909   -0.672485
 H    8.668095    2.820359    0.520715
 H    8.318323    4.316052   -0.303347
 H    9.590493    1.889359   -1.689779
 H   10.569394    3.081401   -0.861718
 H   10.410902    3.397029   -3.379600
 H    8.684255    3.764815   -3.197231
 H    9.995305    5.768244   -3.272280
 H    9.320983    5.638661   -1.766798
 H   10.921173    5.297575   -1.986768
 H    4.349519    1.988176    0.279075
 H    3.065078    0.643486   -1.959465
 H    3.351653   -1.080861   -0.194534
 H    2.501392   -0.051915    0.965052
 H    0.382903   -0.320796   -0.279587
 H    1.219136   -1.150109   -1.600320
 H    1.166922   -2.252907    1.254907
 H    1.925196   -2.981981   -0.139658
 H   -0.472946   -3.052653   -1.214599
 H   -0.032174   -4.218845    0.038873
 H   -1.135889   -2.716831    1.640744
 H   -2.200451   -3.371510    0.525934
 H   -1.756473   -1.813426    0.372235
 H    0.813743    4.398255   -0.836017
 H    0.334516    4.475667   -3.212601
 H   -1.314008    4.331012   -2.588716
 H   -0.520481    2.453576   -4.347084
 H   -1.282403    1.895476   -2.849768
 H    1.685974    1.933845   -3.524329
 H    0.752264    0.695939   -2.656570
 H   -1.685399    4.933601   -0.292925
 H   -2.506784    2.889899    1.623048
 H   -2.611624    5.428978    2.095962
 H   -4.017228    5.462417    1.029710
 H   -4.846154    3.412961    2.558398
 H   -3.638423    3.989823    3.683623
 H   -5.834723    4.828346    4.283488
 H   -4.791852    6.177728    3.877540
 H   -7.152247    6.345481    2.994167
 H   -5.904556    6.570566    1.766773
 H   -7.253725    3.885402    2.216767
 H   -6.251368    4.374694    0.959766
 H   -7.740334    5.103222    1.105419
 H   -2.637993    1.506562   -0.317863
 H   -5.498222    1.173416   -0.939973
 H   -3.192697    0.293500   -2.732728
 H   -3.566870    2.690334   -2.984768
 H   -4.004777    1.802369   -4.434112
 H   -6.216482   -0.108070   -3.059929
 H   -5.004032   -0.536565   -4.263847
 H   -5.032673   -1.372911   -2.709537
 H   -6.002939    2.928413   -2.380269
 H   -5.640594    3.605574   -3.967811
 H   -6.447301    2.046362   -3.860795
 H   -6.118212   -0.787518    0.056812
 H   -3.946033   -1.964953    1.671875
 H   -6.994979   -2.028200    1.873028
 H   -5.943786   -2.918971    2.961531
 H   -5.524536    0.082061    2.547223
 H   -5.016794   -0.919946    3.908831
 H   -6.885369    0.379331    4.698006
 H   -7.523569   -1.226158    4.456931
 H   -8.716297   -0.541083    2.544492
 H   -9.825019    0.864192    1.478966
 H   -9.460605    2.505157    1.449608
 H   -6.857621    2.196912    3.709481
 H   -6.860624   -3.372990    0.150471
 H   -5.312324   -5.753570   -0.642399
 H   -5.804810   -5.262273   -4.002646
 H   -7.524767   -6.083485    0.510871
 H   -7.337342   -6.858982   -1.052830
 H   -8.748595   -5.087736   -2.143824
 H   -9.547019   -6.085901   -0.961739
 H  -10.412901   -3.945174   -0.604237
 H   -9.309671   -4.249713    0.746774
 H   -8.131775   -2.832203   -1.538543
 H  -10.077565   -2.306356    1.321884
 H   -8.345211    0.277366   -0.081270
 H   -7.960590   -0.575910   -1.472093
