179 
4wv6_ligand_xtb.xyz
 N  -13.616472   -3.166845    0.575909
 C  -12.280044   -3.185648   -0.076745
 C  -11.507104   -2.035124    0.621391
 O  -12.130092   -1.357180    1.427357
 C  -12.550054   -2.895602   -1.560349
 C  -13.902775   -2.184057   -1.540311
 C  -14.655368   -2.949888   -0.462807
 N  -10.235405   -1.889179    0.295381
 C   -9.360878   -0.879311    0.859649
 C   -8.579563   -0.259154   -0.304581
 O   -8.694840   -0.682990   -1.436470
 C   -8.402820   -1.496455    1.910298
 C   -7.514546   -2.570898    1.287338
 C   -9.191790   -2.056350    3.090045
 N   -7.808322    0.806215    0.020987
 C   -6.698672    1.198849   -0.830710
 C   -5.407074    0.714787   -0.132354
 O   -5.398354    0.485592    1.061348
 C   -6.629581    2.718308   -1.049248
 C   -7.622430    3.234121   -2.098069
 C   -9.053418    3.390103   -1.570131
 C   -9.293168    4.702978   -0.833021
 N   -9.410369    5.835676   -1.804060
 N   -4.358520    0.534490   -0.945808
 C   -3.044076    0.149768   -0.453008
 C   -2.252077    1.443821   -0.195322
 O   -2.212879    2.309339   -1.053440
 C   -2.356659   -0.705273   -1.524153
 C   -1.056828   -1.379238   -1.074058
 C   -0.637993   -2.411652   -2.127590
 C    0.636045   -3.193766   -1.814448
 N    1.857059   -2.425804   -2.147925
 N   -1.669307    1.583650    1.002517
 C   -0.833809    2.740520    1.277394
 C    0.540306    2.501370    0.644282
 O    0.782648    1.484197    0.011998
 C   -0.779281    2.784559    2.805257
 C   -0.784747    1.301469    3.170836
 C   -1.730149    0.680040    2.140737
 N    1.460015    3.455445    0.864081
 C    2.763563    3.450653    0.215049
 C    3.773961    2.526340    0.928889
 O    4.912664    2.866381    1.204724
 C    3.334180    4.860452    0.064016
 C    4.424214    4.874791   -1.013306
 C    5.300287    6.128822   -1.007131
 C    6.100590    6.350605    0.279853
 N    6.824273    5.142433    0.699929
 N    3.292785    1.301862    1.166898
 C    4.144741    0.174480    1.493679
 C    4.122824   -0.642699    0.206358
 O    3.047685   -0.943448   -0.303378
 C    3.599085   -0.632842    2.683679
 C    3.289354    0.276169    3.882237
 C    4.577517   -1.746497    3.046061
 C    4.474288    1.077758    4.409626
 N    5.297727   -0.878665   -0.382461
 C    5.384572   -1.448648   -1.718195
 C    5.304068   -2.981651   -1.611483
 O    4.277386   -3.586691   -1.910814
 C    6.638775   -0.927423   -2.421715
 C    6.523206    0.571840   -2.726130
 C    7.899087    1.219900   -2.946652
 N    8.600390    1.426944   -1.698947
 C    8.445384    2.470393   -0.889271
 N    9.011780    2.373172    0.334930
 N    7.758334    3.553075   -1.188517
 N    6.406025   -3.561829   -1.152846
 C    6.512563   -4.965673   -0.815202
 C    6.243264   -5.141693    0.679469
 O    5.926813   -6.377243    0.984628
 C    7.899425   -5.526919   -1.181908
 C    9.063498   -5.170347   -0.247111
 C    9.575804   -3.730816   -0.299719
 N    8.668696   -2.817516    0.382947
 C    8.790091   -1.460478    0.360916
 N    9.568588   -0.756604   -0.369959
 N    7.802059   -0.799992    1.089701
 O    6.332729   -4.232914    1.471505
 H  -13.814374   -3.979020    1.161496
 H  -13.506433   -2.305600    1.207723
 H  -11.763873   -4.133713    0.079803
 H  -12.623887   -3.827998   -2.119497
 H  -11.767247   -2.288372   -2.009877
 H  -13.785183   -1.138736   -1.253959
 H  -14.407059   -2.226245   -2.501254
 H  -14.994672   -3.914893   -0.842806
 H  -15.505564   -2.408302   -0.052104
 H   -9.825095   -2.420454   -0.462406
 H   -9.990611   -0.125339    1.343805
 H   -7.758038   -0.693205    2.279705
 H   -6.786957   -2.908104    2.019830
 H   -8.098478   -3.432994    0.974046
 H   -6.972900   -2.182177    0.427459
 H   -9.786243   -2.915764    2.788901
 H   -8.508644   -2.378678    3.870219
 H   -9.857792   -1.305672    3.507484
 H   -7.606494    0.951264    1.004902
 H   -6.820992    0.678968   -1.786027
 H   -6.786504    3.214055   -0.089588
 H   -5.618422    2.960726   -1.380929
 H   -7.635571    2.533876   -2.933185
 H   -7.251498    4.185179   -2.489260
 H   -9.260067    2.565635   -0.889093
 H   -9.764197    3.308347   -2.394203
 H  -10.217495    4.657162   -0.256506
 H   -8.467538    4.920096   -0.154333
 H   -9.520971    6.737600   -1.322619
 H   -8.566471    5.874349   -2.393139
 H  -10.222784    5.695323   -2.420300
 H   -4.386375    0.874531   -1.895303
 H   -3.209044   -0.416100    0.464418
 H   -3.066293   -1.476786   -1.833730
 H   -2.151054   -0.064831   -2.385027
 H   -0.284050   -0.623616   -0.923587
 H   -1.222868   -1.894219   -0.125941
 H   -0.529254   -1.919296   -3.096676
 H   -1.448580   -3.134950   -2.229210
 H    0.676574   -3.458751   -0.758103
 H    0.646260   -4.113509   -2.401999
 H    1.762003   -2.012930   -3.077807
 H    2.741947   -3.015319   -2.122164
 H    2.053921   -1.677749   -1.444649
 H   -1.276719    3.632319    0.822432
 H   -1.673800    3.273617    3.190568
 H    0.095718    3.304147    3.188810
 H   -1.116470    1.123516    4.190303
 H    0.216956    0.886485    3.053827
 H   -2.756578    0.638719    2.519900
 H   -1.407786   -0.325857    1.866105
 H    1.213275    4.283451    1.383957
 H    2.613382    3.002967   -0.779650
 H    2.538726    5.554663   -0.210101
 H    3.747447    5.171871    1.023660
 H    5.060449    4.000243   -0.879161
 H    3.948273    4.793421   -1.992909
 H    5.995495    6.057771   -1.845135
 H    4.680691    7.011004   -1.169631
 H    6.835841    7.135761    0.091779
 H    5.435246    6.709977    1.073855
 H    7.479918    4.286264   -0.442928
 H    6.162633    4.459356    1.069660
 H    7.463914    5.387854    1.448725
 H    2.388737    1.050084    0.766371
 H    5.145668    0.555442    1.707207
 H    2.656237   -1.088728    2.358794
 H    2.499774    0.974307    3.594629
 H    2.898372   -0.350626    4.685192
 H    5.527625   -1.333336    3.373071
 H    4.174464   -2.342035    3.860161
 H    4.758217   -2.406394    2.200174
 H    4.857998    1.760431    3.655625
 H    4.156726    1.668185    5.264778
 H    5.277525    0.426652    4.741299
 H    6.172765   -0.728106    0.127893
 H    4.494384   -1.116536   -2.266756
 H    7.508470   -1.091136   -1.787212
 H    6.785702   -1.480516   -3.349676
 H    6.031404    1.076848   -1.890985
 H    5.912787    0.718631   -3.617050
 H    7.785142    2.170477   -3.472116
 H    8.517558    0.575028   -3.572604
 H    9.076423    0.604559   -1.272568
 H    9.726243    1.669508    0.453583
 H    9.128407    3.221104    0.865720
 H    7.310794    3.615190   -2.086837
 H    7.176186   -2.998014   -0.802541
 H    5.742395   -5.509664   -1.370193
 H    5.785665   -6.516793    1.937042
 H    8.133632   -5.209140   -2.199287
 H    7.809865   -6.613552   -1.188516
 H    8.810822   -5.421796    0.784853
 H    9.899403   -5.810801   -0.531558
 H   10.567299   -3.697836    0.168694
 H    9.681383   -3.412617   -1.342494
 H    8.161728   -3.223543    1.161294
 H   10.258422   -1.281040   -0.892131
 H    8.032018    0.167047    1.280045
 H    7.491836   -1.297436    1.914571
