99 
4wvl_ligand_xtb.xyz
 C    1.863651   -1.908791   -1.202717
 C    1.236759   -3.143764   -1.414885
 C    3.306328   -3.546461   -1.267116
 O    0.223205    1.967020    2.077547
 C   -0.350332    0.859587    2.100684
 N   -1.499608    0.582390    1.458092
 C   -2.265080    1.385179    0.602177
 C   -2.058045    2.745497    0.428452
 C   -2.862171    3.466075   -0.438182
 C   -3.294818    0.767917   -0.103705
 C   -4.087962    1.499169   -0.961664
 C   -3.891361    2.866449   -1.152240
 C   -4.791429    3.627905   -2.110811
 C   -4.429662    5.112382   -2.204971
 C   -4.663038    3.013353   -3.512000
 C   -6.243661    3.518295   -1.625321
 N    0.163885   -0.180295    2.791406
 C    1.361978   -0.072614    3.589515
 C    2.652381   -0.280707    2.768657
 C    3.455344    0.996475    2.536831
 N    2.759646    1.978189    1.677187
 C    3.207308    3.387043    1.926033
 C    4.613844    3.677078    1.421632
 C    2.200983    4.377129    1.350294
 C    2.688190    1.582847    0.251259
 C    3.932793    0.953141   -0.372852
 C    3.770382    0.888957   -1.903358
 O    4.367097    2.025396   -2.467593
 C    4.509738   -0.415858   -2.266662
 O    5.867151   -0.190196   -2.490189
 C    4.312101   -1.271377   -0.995660
 O    4.122337   -0.381860    0.074365
 N    3.204208   -2.183906   -1.112753
 N    2.173701   -4.143123   -1.447151
 N    1.214420   -0.740224   -1.113438
 C   -0.093938   -0.869048   -1.274764
 C   -0.163063   -3.137814   -1.588886
 N   -0.798213   -1.959416   -1.502239
 N   -0.830026   -4.262147   -1.857717
 C   -2.249904   -4.365431   -2.082096
 C   -2.989255   -4.857377   -0.831421
 C   -3.225160   -3.714796    0.153712
 C   -3.534629   -4.229422    1.561904
 N   -3.987117   -3.162895    2.437336
 C   -3.202182   -2.144312    2.804370
 O   -2.029674   -2.057592    2.450269
 C   -3.872392   -1.095364    3.657729
 H    4.254904   -4.044491   -1.241785
 H   -1.824845   -0.376292    1.556983
 H   -1.274284    3.243957    0.973088
 H   -2.666973    4.520415   -0.541201
 H   -3.458088   -0.293852    0.016957
 H   -4.875067    0.986902   -1.492786
 H   -5.101768    5.603663   -2.904718
 H   -3.413163    5.246649   -2.567711
 H   -4.534309    5.603978   -1.240682
 H   -5.285551    3.559766   -4.216366
 H   -4.974384    1.972635   -3.521247
 H   -3.630966    3.064181   -3.852839
 H   -6.579563    2.485294   -1.604097
 H   -6.901091    4.075164   -2.288564
 H   -6.337589    3.929738   -0.622511
 H   -0.345703   -1.055011    2.782029
 H    1.373395    0.912336    4.068715
 H    1.296800   -0.826487    4.373647
 H    3.308479   -0.972330    3.296023
 H    2.405457   -0.741573    1.813122
 H    3.648510    1.470971    3.501810
 H    4.408857    0.726966    2.084277
 H    1.695675    1.977221    1.970537
 H    3.195055    3.498131    3.015805
 H    5.335815    2.964139    1.810345
 H    4.652203    3.678334    0.335817
 H    4.908730    4.665937    1.762968
 H    1.185767    4.075195    1.590682
 H    2.297911    4.478262    0.272805
 H    2.376985    5.356274    1.786520
 H    1.882706    0.851649    0.118353
 H    2.433344    2.469220   -0.327036
 H    4.842507    1.526280   -0.154799
 H    2.708927    0.802681   -2.162091
 H    4.149459    2.077213   -3.405825
 H    4.067038   -0.916745   -3.138509
 H    6.010000    0.767745   -2.560560
 H    5.211256   -1.871380   -0.807429
 H   -0.662610    0.050350   -1.218813
 H   -0.280330   -5.108546   -1.856805
 H   -2.413066   -5.060628   -2.909518
 H   -2.610544   -3.375426   -2.365918
 H   -3.943256   -5.297368   -1.123773
 H   -2.393160   -5.639620   -0.356529
 H   -4.057052   -3.100697   -0.197964
 H   -2.337339   -3.083815    0.196750
 H   -2.629570   -4.669823    1.991093
 H   -4.315402   -4.989738    1.528140
 H   -4.954325   -3.157705    2.718047
 H   -3.124259   -0.444503    4.102007
 H   -4.464464   -1.554828    4.444536
 H   -4.530461   -0.490594    3.035112
