109 
4wvt_ligand_xtb.xyz
 N   -1.847640   -0.843071    0.015081
 C   -2.080713    0.375501   -0.771773
 C   -0.718860   -0.704827    0.979554
 C   -1.255029   -0.441992    2.373776
 C    0.120702   -1.994258    0.950665
 O   -0.057074   -2.892690    1.744768
 N    1.049754   -2.023032   -0.022724
 C    1.811846   -3.231427   -0.279076
 C    3.331397   -3.021424   -0.358064
 O    3.982728   -3.479945   -1.275819
 C    1.319767   -3.901598   -1.578299
 C   -0.177884   -3.933087   -1.561933
 C   -0.910270   -3.026426   -2.318358
 C   -0.861476   -4.786153   -0.703751
 C   -2.285042   -2.929523   -2.171387
 C   -2.231490   -4.698249   -0.545597
 C   -2.952073   -3.742369   -1.253980
 N    3.921607   -2.359705    0.658015
 C    3.302536   -1.609097    1.726108
 C    2.787306   -0.241175    1.258616
 O    2.095226    0.467890    1.964667
 C    4.448236   -1.394422    2.725715
 C    5.668569   -1.268208    1.817152
 C    5.380950   -2.283020    0.716582
 N    3.192865    0.135400    0.031961
 C    2.858315    1.427151   -0.517375
 C    1.509359    1.376478   -1.231341
 O    1.056575    0.330584   -1.678511
 C    3.933462    1.855953   -1.532195
 C    5.306271    1.735454   -0.925929
 C    6.178502    0.740389   -1.347340
 C    5.706077    2.599730    0.086162
 C    7.432699    0.615390   -0.773597
 C    6.956888    2.472763    0.663151
 C    7.822645    1.479709    0.234680
 N    0.874513    2.547224   -1.425360
 C    0.985856    3.708851   -0.567718
 C    0.592439    3.267095    0.847855
 O   -0.257780    2.442433    1.054422
 C    0.031142    4.817184   -1.067524
 C   -1.401049    4.368064   -0.988559
 C   -2.116992    4.514288    0.190719
 C   -2.020358    3.728922   -2.059412
 C   -3.385912    3.984954    0.335560
 C   -3.288445    3.200440   -1.930759
 C   -3.972483    3.288578   -0.717128
 O    1.296904    3.871795    1.786936
 C   -5.245143   -2.232572    0.605084
 C   -6.484954   -1.649992    0.776073
 O   -5.176051    2.660341   -0.658106
 C   -5.876594    2.672564    0.572230
 C   -7.123309    1.790102    0.423641
 C   -7.178529    0.655352    1.451574
 N   -6.224444   -0.383300    1.158683
 N   -4.925177   -0.186021    1.213399
 N   -4.328155   -1.280156    0.884536
 O   -4.302630   -3.547083   -1.134160
 C   -4.885110   -3.612886    0.156536
 H   -1.677445   -1.623493   -0.644400
 H   -2.777225   -1.078508    0.529005
 H   -3.034764    0.306043   -1.287605
 H   -1.281289    0.495043   -1.500645
 H   -2.094092    1.236629   -0.107902
 H   -0.098245    0.135976    0.668405
 H   -1.739920   -1.332109    2.765664
 H   -0.423719   -0.184831    3.023403
 H   -1.952897    0.389502    2.357959
 H    1.102449   -1.277815   -0.714384
 H    1.613241   -3.895325    0.572611
 H    1.685601   -3.330565   -2.432118
 H    1.745789   -4.902520   -1.634755
 H   -0.403637   -2.378273   -3.018254
 H   -0.314840   -5.525974   -0.140345
 H   -2.862804   -2.239308   -2.767385
 H   -2.730314   -5.381936    0.123446
 H    2.471620   -2.148619    2.188680
 H    4.540826   -2.269063    3.369165
 H    4.280403   -0.517161    3.346472
 H    5.732838   -0.260681    1.405104
 H    6.597275   -1.486275    2.337779
 H    5.774080   -3.273407    0.964615
 H    5.787919   -1.997053   -0.255393
 H    3.728183   -0.495509   -0.543951
 H    2.815929    2.122155    0.326539
 H    3.742118    2.884925   -1.842082
 H    3.857923    1.215927   -2.413957
 H    5.883275    0.067634   -2.140798
 H    5.038456    3.381207    0.420510
 H    8.104334   -0.157263   -1.115313
 H    7.258172    3.151904    1.446061
 H    8.799281    1.383139    0.682803
 H   -0.025638    2.471743   -1.890506
 H    2.007603    4.097422   -0.559595
 H    0.304792    5.056973   -2.096002
 H    0.188077    5.702770   -0.451031
 H   -1.677938    5.049841    1.019487
 H   -1.518746    3.662676   -3.015043
 H   -3.900512    4.121833    1.272039
 H   -3.769541    2.706880   -2.759723
 H    1.071295    3.535875    2.671132
 H   -7.473557   -2.038892    0.661585
 H   -6.161312    3.700787    0.826592
 H   -5.225814    2.275868    1.361528
 H   -8.024870    2.390329    0.534791
 H   -7.122223    1.374311   -0.585505
 H   -8.170123    0.199694    1.450694
 H   -6.970734    1.048857    2.450476
 H   -5.792512   -4.219102    0.085912
 H   -4.202697   -4.063470    0.883472
