33 
4wy1_ligand_dft.xyz
 C   -0.935375   -0.200599   -0.269360
 N    1.671530    2.902675   -1.377456
 C   -1.787992   -1.122052    0.344121
 C   -2.915253    1.175994   -0.675222
 C    1.266729   -0.664137    0.957910
 C   -3.700032    0.223471   -0.048260
 C    0.579543   -0.428526   -0.410436
 O    2.182349   -1.961667   -1.458399
 C    2.807811   -2.254294   -0.224469
 C    2.726571   -1.077385    0.743448
 C    0.821442   -1.675000   -1.294825
 C   -1.546842    0.950110   -0.777682
 C    1.084449    0.536690    1.879115
 S    1.724408    2.106003    1.194734
 C    1.505310    1.928095   -0.569825
 N    1.236348    0.680043   -1.075191
 C   -3.154416   -0.939163    0.471491
 F   -1.286452   -2.267274    0.856790
 F   -5.018467    0.420757    0.063291
 H    1.930579    3.758393   -0.891076
 H   -3.368951    2.076078   -1.073055
 H    0.746426   -1.499392    1.437860
 H    2.338197   -3.145889    0.226275
 H    3.846291   -2.497926   -0.459881
 H    3.172313   -1.363011    1.703974
 H    3.305500   -0.239922    0.343865
 H    0.292221   -2.528897   -0.849221
 H    0.409700   -1.500517   -2.294473
 H   -0.934531    1.699878   -1.266239
 H    0.025967    0.670154    2.117410
 H    1.627442    0.383101    2.816215
 H    1.206545    0.691151   -2.087305
 H   -3.769575   -1.685516    0.958857
