37 
4wyp_ligand_dft.xyz
 P   -1.478664   -2.403328   -0.358511
 O    0.031387   -2.494883   -0.847753
 O   -2.291290   -3.041911   -1.584764
 O   -1.778182   -2.958757    0.974432
 O   -1.812526   -0.843144   -0.537062
 C   -2.972715   -0.308194    0.112631
 C   -2.698960    1.118901    0.553557
 O   -1.621677    1.139661    1.500513
 C   -2.302529    2.103721   -0.547039
 O   -2.685213    3.394410   -0.142848
 C   -0.778725    1.989644   -0.561970
 O   -0.210720    3.187673   -1.006646
 C   -0.471822    1.673887    0.922173
 N    0.615175    0.697172    1.016976
 C    0.586327   -0.555735    1.560915
 N    1.663282   -1.265765    1.300492
 C    2.449450   -0.411526    0.549673
 C    3.711816   -0.550534   -0.058665
 N    4.436976   -1.680260    0.037909
 N    4.200534    0.474699   -0.773775
 C    3.461438    1.580749   -0.893739
 N    2.262487    1.839718   -0.371919
 C    1.810896    0.804100    0.354206
 H    0.652083   -2.347888   -0.103116
 H   -2.409855   -3.993109   -1.459589
 H   -3.814842   -0.332855   -0.587544
 H   -3.212699   -0.914558    0.990895
 H   -3.592486    1.492663    1.062933
 H   -2.744561    1.837159   -1.516803
 H   -2.010534    3.994400   -0.497011
 H   -0.476616    1.135376   -1.178561
 H    0.757551    3.065044   -0.948581
 H   -0.166340    2.582313    1.452275
 H   -0.274969   -0.911103    2.108342
 H    5.361465   -1.699339   -0.361765
 H    4.139563   -2.423228    0.648988
 H    3.897725    2.371638   -1.498014
