38 
4wyy_ligand_xtb.xyz
 C   -0.868409   -0.498650   -0.779079
 C   -1.397709    0.751411   -0.498064
 C   -0.578800    1.855781   -0.239793
 O    1.301018   -3.130536   -1.386271
 C    3.389897    0.064977    0.948131
 C    4.872705   -0.198969    0.850683
 C    1.698807    2.886198   -0.006576
 C   -1.189887    3.198662    0.023060
 C   -3.637388    0.124425   -0.012173
 C   -5.009672    0.380125   -0.198977
 C   -5.512891   -1.449481    1.033292
 C   -4.166377   -1.696861    1.224971
 O    5.252652   -1.231132    1.604615
 O    5.639042    0.438255    0.179937
 C    2.766285   -0.013087   -0.459492
 O    2.773756   -1.363859   -0.881779
 B    1.505941   -1.848971   -1.034435
 C    1.325242    0.431058   -0.463405
 C    0.505543   -0.662760   -0.753625
 C    0.812143    1.699060   -0.236721
 O   -2.767704    0.986526   -0.549847
 N   -3.230150   -0.914639    0.702642
 N   -5.925415   -0.404545    0.319050
 H   -1.524013   -1.323157   -1.011511
 H    0.385763   -3.389452   -1.478203
 H    3.236699    1.061623    1.360135
 H    2.925599   -0.680544    1.592072
 H    1.369070    3.725909   -0.615117
 H    1.657958    3.199839    1.036829
 H    2.729439    2.660818   -0.262510
 H   -0.779986    3.634168    0.932450
 H   -0.978000    3.879291   -0.801265
 H   -2.267365    3.113994    0.125762
 H   -5.343982    1.230547   -0.775054
 H   -6.284020   -2.081792    1.447098
 H   -3.804686   -2.534815    1.804674
 H    6.201255   -1.405698    1.495446
 H    3.388464    0.563038   -1.157111
