38 
4wyy_ligand_dft.xyz
 C   -0.610719   -1.436903   -0.698103
 C   -1.407289   -0.327967   -0.923425
 C   -0.892358    0.966954   -1.072031
 O    2.034402   -3.515671   -0.240721
 C    3.214275    0.693670    0.840284
 C    4.718956    0.727946    0.968024
 C    1.095566    2.534329   -1.126682
 C   -1.827555    2.119714   -1.323225
 C   -3.603049   -0.276433   -0.060240
 C   -4.968056   -0.548949   -0.262399
 C   -5.395373    0.193692    1.837395
 C   -4.049163    0.457886    2.021097
 O    5.128996    0.513384    2.230449
 O    5.484884    0.950072    0.061347
 C    2.786538    0.000727   -0.453288
 O    3.126355   -1.384059   -0.340214
 B    1.992362   -2.166136   -0.368217
 C    1.288279    0.043771   -0.681750
 C    0.759522   -1.244459   -0.576809
 C    0.494836    1.160047   -0.953373
 O   -2.773530   -0.547571   -1.090323
 N   -3.137789    0.225007    1.066633
 N   -5.858999   -0.313442    0.684656
 H   -1.065610   -2.418971   -0.620784
 H    2.940882   -3.828463   -0.137074
 H    2.864086    1.731942    0.848687
 H    2.765003    0.187465    1.698246
 H    0.750382    3.005531   -2.052862
 H    0.816597    3.203712   -0.303737
 H    2.186559    2.498518   -1.177468
 H   -2.049076    2.641816   -0.384669
 H   -1.399105    2.848388   -2.016504
 H   -2.774340    1.774617   -1.743378
 H   -5.310638   -0.961958   -1.207086
 H   -6.122223    0.388827    2.619883
 H   -3.677347    0.869701    2.955611
 H    6.097803    0.578706    2.216517
 H    3.357420    0.416493   -1.290473
