34 
4wyz_ligand_dft.xyz
 N    1.987274   -0.148315   -0.467655
 C    2.449280   -1.369857   -0.024608
 N    3.797464   -1.433514    0.203570
 C    4.750880   -0.404140    0.060547
 C    4.161697    0.839870   -0.403040
 C    2.839506    0.916829   -0.643303
 O    1.708841   -2.333727    0.155663
 O    5.917852   -0.613497    0.317864
 P   -3.786048   -0.447629    0.076444
 O   -4.876665   -0.281628   -1.081527
 O   -3.468975   -1.994441   -0.027016
 O   -4.158348    0.139001    1.376913
 O    0.782710    2.300985    1.309920
 C   -0.095206    2.930955    0.400188
 C   -0.735325    1.869149   -0.476218
 O    0.248907    1.204275   -1.280039
 C   -1.456863    0.755168    0.280584
 O   -2.476789    0.259106   -0.577987
 C   -0.349153   -0.287828    0.469425
 O   -0.861024   -1.589360    0.570346
 C    0.537547   -0.063713   -0.779015
 H    4.142848   -2.326111    0.534009
 H    4.812673    1.689624   -0.553950
 H    2.355087    1.814150   -0.999314
 H   -5.532240    0.375883   -0.814060
 H   -2.513279   -2.120468    0.170307
 H    1.197195    2.971546    1.863550
 H    0.441116    3.637121   -0.250082
 H   -0.894758    3.480512    0.918740
 H   -1.433922    2.354772   -1.162253
 H   -1.889545    1.085556    1.228397
 H    0.225881   -0.018472    1.361877
 H   -0.083101   -2.178385    0.522741
 H    0.323340   -0.822794   -1.538475
