34 
4wyz_ligand_xtb.xyz
 N    1.945340   -0.147525   -0.563327
 C    2.350219   -1.372111   -0.075257
 N    3.664889   -1.450393    0.272042
 C    4.635582   -0.441774    0.203696
 C    4.112995    0.791656   -0.343391
 C    2.820662    0.884930   -0.700285
 O    1.589015   -2.316193    0.034015
 O    5.763576   -0.659805    0.574664
 P   -3.657001   -0.441570    0.169026
 O   -4.988248    0.145417   -0.462175
 O   -3.641210   -1.855511   -0.528634
 O   -3.583052   -0.363675    1.629093
 O    0.897254    2.096138    1.320479
 C    0.086307    2.859177    0.454420
 C   -0.653620    1.927489   -0.513949
 O    0.237622    1.256774   -1.397209
 C   -1.425887    0.819794    0.204481
 O   -2.532618    0.456013   -0.573146
 C   -0.392673   -0.314748    0.277875
 O   -1.007442   -1.560898    0.218139
 C    0.528054   -0.020604   -0.937654
 H    3.972105   -2.346886    0.635216
 H    4.792396    1.617681   -0.458271
 H    2.391040    1.777683   -1.127242
 H   -5.515029    0.537733    0.232339
 H   -2.809297   -2.292980   -0.334038
 H    1.308994    2.683514    1.963853
 H    0.698674    3.556932   -0.132858
 H   -0.661843    3.430314    1.018049
 H   -1.324568    2.521467   -1.140545
 H   -1.758625    1.099078    1.206859
 H    0.189036   -0.197979    1.202062
 H   -0.283483   -2.217794    0.237402
 H    0.334997   -0.748735   -1.740653
