37 
4wz4_ligand_dft.xyz
 C   -0.315805   -1.616356   -0.429367
 C   -1.108706   -0.599870   -0.929448
 C   -0.606223    0.631701   -1.362545
 O    2.418070   -3.489159    0.586036
 C    3.445820    0.860653    0.681872
 C    4.947614    0.970812    0.806882
 C    1.370570    2.167427   -1.728326
 C   -1.540071    1.678993   -1.908048
 C   -3.300032   -0.351818   -0.165631
 C   -4.130741    0.699081    1.520498
 O    5.351222    1.024715    2.087030
 O    5.712143    1.036224   -0.125411
 C    3.060055   -0.115183   -0.431212
 O    3.409487   -1.428296    0.000986
 B    2.293999   -2.215295    0.134090
 C    1.568888   -0.145606   -0.702996
 C    1.049330   -1.383147   -0.316451
 C    0.775935    0.864993   -1.249883
 O   -2.476907   -0.870219   -1.073119
 S   -5.007871   -0.628304   -0.300635
 N   -5.293880    0.287625    1.079152
 N   -2.965989    0.376913    0.851814
 N   -4.017702    1.421527    2.678720
 H   -0.779952   -2.555357   -0.142000
 H    1.570473   -3.941167    0.630267
 H    3.001493    0.536837    1.626124
 H    3.064652    1.863829    0.461240
 H    1.091626    2.372206   -2.767466
 H    1.020532    3.015380   -1.127627
 H    2.462099    2.155470   -1.690581
 H   -2.466393    1.233508   -2.276467
 H   -1.085165    2.234568   -2.732005
 H   -1.805420    2.398964   -1.125036
 H    6.318508    1.108266    2.065138
 H    3.647612    0.111239   -1.327706
 H   -3.183708    1.982116    2.759847
 H   -4.869361    1.854813    3.001926
