37 
4wz5_ligand_xtb.xyz
 C   -0.607267   -0.445777   -0.474373
 C   -1.039257    0.851792   -0.253530
 C   -0.140276    1.920302   -0.132789
 O    1.348856   -3.236806   -1.064859
 C    3.815723   -0.029307    0.871395
 C    5.294995   -0.234829    0.653349
 C    2.203879    2.816660   -0.127030
 C   -0.647183    3.315111    0.075647
 C   -3.353273    0.340443    0.025529
 C   -4.579108   -1.383220    0.486202
 O    5.809350   -1.135919    1.491465
 O    5.953386    0.345735   -0.166677
 C    3.064853   -0.165677   -0.467548
 O    2.960369   -1.540127   -0.789529
 B    1.658513   -1.952460   -0.815909
 C    1.655857    0.365698   -0.390318
 C    0.754393   -0.689820   -0.541368
 C    1.234745    1.675880   -0.213796
 O   -2.385830    1.201222   -0.193123
 S   -5.006006    0.943347   -0.030172
 N   -5.577544   -0.551085    0.354333
 N   -3.308742   -0.918572    0.313283
 N   -4.769320   -2.704171    0.730032
 H   -1.325464   -1.241256   -0.584995
 H    0.414286   -3.435964   -1.085687
 H    3.442382   -0.771599    1.575444
 H    3.663366    0.970632    1.276848
 H    1.888380    3.628761   -0.779047
 H    2.245393    3.209243    0.889313
 H    3.201371    2.507007   -0.422720
 H   -1.720138    3.315665    0.237403
 H   -0.431850    3.929936   -0.797846
 H   -0.160066    3.772221    0.935068
 H    6.755152   -1.267254    1.316258
 H    3.653007    0.323148   -1.255656
 H   -3.985808   -3.194900    1.125970
 H   -5.684770   -2.956470    1.061966
