69 
4wzv_ligand_dft.xyz
 O   -3.179096   -2.560965   -1.907312
 S   -2.622182   -1.258962   -1.597041
 O   -2.916820   -0.111011   -2.455873
 C   -0.866272   -1.352623   -1.367555
 C   -0.358200   -2.350803   -0.538721
 C    1.001662   -2.378333   -0.275594
 C    1.862543   -1.422524   -0.832744
 C    3.304173   -1.419100   -0.499055
 C    4.273182   -1.130886   -1.470078
 C    5.614782   -1.060790   -1.142687
 C    6.028862   -1.279039    0.177494
 O    7.360318   -1.178820    0.399192
 C    7.836612   -1.400542    1.709388
 C    5.078038   -1.574032    1.156606
 C    3.730491   -1.642593    0.810033
 C    1.326730   -0.445454   -1.680948
 C   -0.036114   -0.400148   -1.947736
 N   -3.048454   -0.939111    0.044888
 O   -4.443342   -1.057492    0.126255
 C   -4.837882   -2.249888    0.838021
 C   -4.449059   -2.157232    2.303768
 C   -6.338323   -2.323887    0.617435
 C   -2.600287    0.397269    0.517361
 C   -3.779736    1.372659    0.597044
 O   -4.278341    1.742704    1.658707
 N   -4.209905    1.853265   -0.579094
 O   -5.387440    2.583494   -0.563511
 C   -1.886067    0.264957    1.858479
 C   -1.097403    1.515478    2.243150
 N    0.027221    1.784055    1.359735
 C   -0.030161    2.640804    0.256939
 O   -1.027254    3.194084   -0.146956
 C    1.313901    1.277606    1.566257
 O    1.624201    0.499856    2.440162
 C    2.167320    1.892822    0.506309
 C    1.355978    2.694327   -0.288825
 C    3.514283    1.738011    0.239259
 C    4.025765    2.404352   -0.877777
 C    3.207547    3.197892   -1.684063
 C    1.848646    3.359098   -1.395398
 H   -1.025004   -3.087127   -0.102798
 H    1.407771   -3.155513    0.364167
 H    3.970193   -0.967876   -2.500496
 H    6.367881   -0.846796   -1.893727
 H    7.424495   -0.669235    2.416345
 H    8.919013   -1.280435    1.657807
 H    7.599764   -2.414093    2.056168
 H    5.363697   -1.735898    2.189334
 H    2.997306   -1.811123    1.592618
 H    1.977071    0.318719   -2.096838
 H   -0.460003    0.376948   -2.575511
 H   -4.345912   -3.102612    0.358942
 H   -4.845232   -3.017539    2.852821
 H   -3.361653   -2.153404    2.419655
 H   -4.855532   -1.239545    2.742423
 H   -6.741995   -3.221414    1.095367
 H   -6.831069   -1.447102    1.049844
 H   -6.563685   -2.363466   -0.451339
 H   -1.900753    0.796555   -0.221318
 H   -4.048624    1.380652   -1.462248
 H   -5.552559    2.655766    0.398130
 H   -1.204432   -0.589922    1.804587
 H   -2.624118    0.071720    2.641014
 H   -1.744931    2.395426    2.233404
 H   -0.688438    1.392222    3.248580
 H    4.142786    1.106280    0.857399
 H    5.076176    2.290922   -1.126256
 H    3.635149    3.698626   -2.547239
 H    1.201647    3.975957   -2.010380
