130 
4x0z_ligand_dft.xyz
 C    0.273017    2.554463    2.402389
 C    0.580552    2.433228    0.889941
 C   -0.155447    3.400982   -0.016125
 C    0.399138    4.831715    0.012384
 C    1.940463    4.814129   -0.152091
 C    2.510907    3.831399    0.881289
 C    4.025758    3.578212    0.921906
 C    4.698507    3.213160   -0.420514
 C    5.875480    2.278421   -0.149172
 C    2.446461    7.232441   -0.614742
 C    3.491458    8.300944   -0.365731
 N    2.599529    6.097081    0.107264
 O    1.075944    2.312192    3.272777
 O   -0.998279    2.885673    2.644659
 O   -0.277601    5.487589   -1.019621
 O    1.955879    2.550798    0.697171
 O    4.723677    4.718437    1.430567
 O    3.833662    2.615941   -1.349074
 O    5.335708    1.079605    0.375904
 O    1.546529    7.415998   -1.431868
 C    2.658150   -1.614375   -0.055950
 C    1.619045   -0.572264   -0.429201
 C    1.170905    0.098072    0.870487
 C    0.579483   -0.926691    1.834816
 C    1.647211   -1.993930    2.081837
 C    1.197324   -3.177361    2.923748
 O    2.205898    0.348399   -1.318500
 O    0.239871    1.120090    0.509821
 O   -0.562101   -1.537291    1.270072
 O    2.080230   -2.544664    0.839716
 O    2.285056   -4.019978    3.227649
 C   -1.785085   -1.038366    1.683718
 C   -2.787525   -1.315720    0.560998
 C   -4.214621   -1.003273    1.014834
 C   -4.527408   -1.699410    2.333458
 C   -3.423270   -1.402211    3.355613
 C   -3.616385   -2.142243    4.680245
 C   -2.463652    0.718363   -0.816050
 C   -2.088917    1.199310   -2.201010
 N   -2.427124   -0.633963   -0.665340
 O   -5.122212   -1.500391    0.035168
 O   -4.622719   -3.098685    2.139501
 O   -2.148168   -1.738197    2.852600
 O   -3.435662   -3.527103    4.597117
 O   -2.768280    1.480892    0.095473
 C   -5.629477   -0.583537   -0.866624
 C   -5.708631   -1.201279   -2.255494
 C   -6.370942   -0.218098   -3.223614
 C   -7.735343    0.216850   -2.698864
 C   -7.589863    0.711064   -1.251529
 C   -8.927770    0.966860   -0.566391
 O   -4.411336   -1.513682   -2.721711
 O   -6.460811   -0.805880   -4.503438
 O   -8.578778   -0.907134   -2.842321
 O   -6.935286   -0.242765   -0.429661
 O   -9.651444   -0.244891   -0.408983
 C    5.247546   -5.323269   -1.022976
 C    3.940279   -4.551321   -1.032817
 C    4.253447   -3.058093   -1.022508
 C    5.194969   -2.704933   -2.180283
 C    5.660513   -1.258163   -2.138711
 C    6.122203   -4.876678   -2.193306
 O    7.362136   -5.495356   -2.166013
 O    5.055997   -6.713350   -1.159910
 O    3.181982   -4.972942    0.079741
 O    3.058889   -2.308984   -1.179545
 O    6.371051   -3.494534   -2.100897
 O    6.453874   -1.017445   -0.987853
 H   -0.018289    3.026349   -1.036156
 H   -1.226502    3.399598    0.190829
 H    0.188139    5.298536    0.993351
 H    2.178654    4.458030   -1.160958
 H    2.239534    4.206764    1.883384
 H    4.143436    2.732670    1.609367
 H    5.057959    4.145006   -0.871448
 H    6.403199    2.093702   -1.092922
 H    6.575573    2.744127    0.560178
 H    3.995549    8.191533    0.598178
 H    4.244247    8.246814   -1.158889
 H    3.013823    9.280310   -0.422410
 H    3.452333    6.020598    0.653466
 H   -1.110863    2.874683    3.609473
 H    0.243635    6.279427   -1.266143
 H    4.695464    4.683226    2.393896
 H    3.663566    1.708076   -1.038700
 H    5.860862    0.327855    0.050380
 H    3.519879   -1.116958    0.423903
 H    0.760467   -1.074485   -0.892837
 H    2.045158    0.551094    1.343672
 H    0.332970   -0.447620    2.790589
 H    2.506119   -1.518105    2.580785
 H    0.792240   -2.817820    3.873334
 H    0.389874   -3.702195    2.397006
 H    1.690117    1.166475   -1.262514
 H    2.668741   -4.323296    2.393074
 H   -1.729044    0.040984    1.890057
 H   -2.730452   -2.389286    0.363803
 H   -4.337489    0.076635    1.138145
 H   -5.478715   -1.305991    2.724853
 H   -3.476948   -0.317492    3.565106
 H   -4.615920   -1.872397    5.065647
 H   -2.876494   -1.769753    5.395502
 H   -1.025966    1.007547   -2.381734
 H   -2.666811    0.664512   -2.962623
 H   -2.275705    2.271102   -2.273924
 H   -2.454658   -1.189044   -1.507974
 H   -5.186699   -3.234963    1.365295
 H   -3.907085   -3.828522    3.806487
 H   -5.013799    0.328619   -0.888788
 H   -6.327944   -2.105921   -2.179881
 H   -5.716185    0.656309   -3.327435
 H   -8.109219    1.055003   -3.308373
 H   -7.013025    1.651177   -1.274978
 H   -8.756796    1.444351    0.406453
 H   -9.548691    1.629039   -1.175277
 H   -4.522180   -1.676078   -3.670838
 H   -7.247934   -1.372409   -4.471684
 H   -9.258034   -0.870409   -2.146024
 H   -9.062502   -0.839746    0.079142
 H    5.792391   -5.090844   -0.094495
 H    3.400106   -4.781220   -1.965783
 H    4.743330   -2.799185   -0.075419
 H    4.668809   -2.883793   -3.131667
 H    4.801234   -0.585703   -2.084158
 H    6.230197   -1.036791   -3.049939
 H    5.593536   -5.083054   -3.143358
 H    7.200627   -6.409549   -1.891856
 H    4.416356   -6.977499   -0.485005
 H    2.449226   -4.341284    0.179465
 H    7.129213   -1.709688   -0.956183
