130 
4x0z_ligand_xtb.xyz
 C    0.391021    2.169856    2.504430
 C    0.612351    2.137172    0.974853
 C   -0.211064    3.153746    0.200107
 C    0.278881    4.596323    0.385273
 C    1.812742    4.668234    0.168018
 C    2.501388    3.564918    0.984322
 C    4.027170    3.458535    0.795981
 C    4.505613    3.592966   -0.667115
 C    6.033554    3.331772   -0.738137
 C    2.152382    7.159309    0.155220
 C    3.089357    8.206153    0.713561
 N    2.404438    5.920265    0.620351
 O    1.144544    1.650712    3.286573
 O   -0.743346    2.749622    2.858881
 O   -0.430948    5.350732   -0.549823
 O    1.986805    2.288301    0.685044
 O    4.640902    4.434475    1.612860
 O    3.785901    2.765574   -1.537752
 O    6.475096    2.310965    0.119414
 O    1.252000    7.429382   -0.620044
 C    2.730404   -1.854817   -0.015823
 C    1.742628   -0.755150   -0.414594
 C    1.136547   -0.203414    0.881122
 C    0.420887   -1.343362    1.626541
 C    1.420843   -2.489044    1.866702
 C    0.740601   -3.742031    2.439573
 O    2.441114    0.221484   -1.134116
 O    0.237458    0.851270    0.547257
 O   -0.683248   -1.796527    0.866720
 O    2.072190   -2.895687    0.672804
 O    1.672361   -4.635240    2.981875
 C   -1.921880   -1.388059    1.341959
 C   -2.935120   -1.567779    0.198491
 C   -4.349067   -1.274633    0.729376
 C   -4.635076   -2.170806    1.941103
 C   -3.522667   -1.959470    2.989083
 C   -3.685469   -2.887065    4.205583
 C   -2.604713    0.631443   -0.869262
 C   -2.254813    1.275039   -2.189810
 N   -2.597319   -0.718622   -0.918324
 O   -5.302776   -1.569993   -0.286611
 O   -4.706291   -3.518092    1.546544
 O   -2.243463   -2.192400    2.451064
 O   -3.450592   -4.229251    3.921708
 O   -2.891950    1.261376    0.132506
 C   -5.852893   -0.487639   -0.951449
 C   -6.075150   -0.856009   -2.422938
 C   -6.838311    0.272794   -3.139201
 C   -8.130634    0.583027   -2.372202
 C   -7.778976    0.890672   -0.905806
 C   -9.032810    1.094567   -0.041885
 O   -4.824890   -1.049467   -3.035211
 O   -7.097379   -0.094779   -4.467152
 O   -8.969424   -0.535165   -2.523714
 O   -7.076049   -0.185140   -0.313913
 O   -9.778159   -0.093487    0.058933
 C    6.128074   -4.844788   -0.956895
 C    4.667728   -4.390116   -0.994951
 C    4.640230   -2.857162   -1.008368
 C    5.489920   -2.323903   -2.175014
 C    5.546353   -0.792385   -2.153457
 C    6.903213   -4.195749   -2.119543
 O    8.249232   -4.510010   -2.061700
 O    6.257234   -6.236999   -1.089235
 O    3.998404   -4.917424    0.123635
 O    3.315976   -2.378638   -1.151005
 O    6.815360   -2.798551   -2.061187
 O    6.189031   -0.316682   -0.993876
 H   -0.115667    2.909550   -0.858827
 H   -1.261668    3.072547    0.472998
 H    0.062669    4.943126    1.412492
 H    1.997641    4.516468   -0.903905
 H    2.336307    3.786440    2.052477
 H    4.294686    2.450873    1.146517
 H    4.327741    4.615122   -1.018355
 H    6.288650    3.121012   -1.782927
 H    6.565016    4.238271   -0.432588
 H    3.043704    8.207681    1.799829
 H    4.111187    7.991798    0.409066
 H    2.798997    9.182831    0.337942
 H    3.215231    5.802917    1.214333
 H   -0.890579    2.676089    3.818003
 H    0.031724    6.206851   -0.687790
 H    5.570637    4.192292    1.703203
 H    3.880124    1.842583   -1.264531
 H    6.280555    1.441140   -0.269374
 H    3.496241   -1.401648    0.647831
 H    0.942150   -1.195949   -1.024206
 H    1.938403    0.185245    1.517408
 H    0.077914   -0.986601    2.603629
 H    2.180074   -2.126023    2.579496
 H    0.067685   -3.459039    3.249677
 H    0.150751   -4.203065    1.640215
 H    2.005370    1.073923   -0.972990
 H    2.269175   -4.931480    2.283700
 H   -1.909949   -0.323247    1.640440
 H   -2.886566   -2.608825   -0.129706
 H   -4.413628   -0.223531    1.025791
 H   -5.597159   -1.866034    2.386517
 H   -3.600085   -0.909583    3.325686
 H   -4.701816   -2.736779    4.606592
 H   -2.959433   -2.599996    4.970892
 H   -1.242832    0.997491   -2.473309
 H   -2.942550    0.924048   -2.956375
 H   -2.322428    2.355275   -2.100230
 H   -2.452955   -1.163331   -1.809105
 H   -5.186143   -3.539887    0.707892
 H   -3.834592   -4.419999    3.054210
 H   -5.193153    0.395920   -0.907805
 H   -6.673289   -1.779175   -2.459746
 H   -6.197558    1.161638   -3.178839
 H   -8.609720    1.474735   -2.810932
 H   -7.159940    1.801859   -0.882899
 H   -8.725805    1.441793    0.951902
 H   -9.686477    1.841753   -0.496062
 H   -4.987007   -1.038439   -3.990025
 H   -7.884090   -0.658320   -4.453853
 H   -9.594958   -0.547091   -1.778600
 H   -9.182176   -0.769796    0.409579
 H    6.576548   -4.509178   -0.007333
 H    4.196070   -4.757936   -1.921371
 H    5.077763   -2.490908   -0.068807
 H    5.037083   -2.656653   -3.120697
 H    4.526566   -0.401977   -2.144485
 H    6.075131   -0.445632   -3.049578
 H    6.456974   -4.552907   -3.072829
 H    8.314568   -5.434764   -1.788924
 H    5.613317   -6.641198   -0.494072
 H    3.184712   -4.396952    0.244167
 H    7.030801   -0.788597   -0.928530
