143 
4x1n_ligand_dft.xyz
 N    0.613475    2.678134    0.492224
 C   -0.133304    3.845459    1.048894
 C    0.180216    4.981777    0.057292
 O    1.223190    5.597091    0.182197
 C    0.294394    4.193801    2.462240
 S   -0.137330    2.926493    3.708662
 N   -0.646232    5.115629   -1.009338
 C   -2.041549    4.709740   -1.111725
 C   -2.244542    3.198226   -1.212982
 O   -1.333914    2.407105   -1.483931
 C   -2.518288    5.389589   -2.423433
 C   -1.226486    5.541897   -3.231031
 C   -0.193587    5.897674   -2.167549
 N   -3.499922    2.781328   -0.964577
 C   -3.901820    1.435017   -1.329193
 C   -3.957557    1.344994   -2.869314
 O   -4.087541    2.362239   -3.533023
 C   -5.259185    1.101889   -0.714732
 N   -3.927788    0.110502   -3.430921
 C   -3.574067   -1.161079   -2.811998
 C   -2.368624   -1.706000   -3.601396
 O   -2.553918   -2.328466   -4.632890
 C   -4.737607   -2.172524   -2.835429
 C   -4.443914   -3.362769   -1.951356
 C   -3.752739   -4.472031   -2.438132
 C   -4.747774   -3.321338   -0.588088
 C   -3.332417   -5.487335   -1.583677
 C   -4.336178   -4.323562    0.281548
 C   -3.608254   -5.397444   -0.222676
 O   -3.169323   -6.339342    0.680408
 N   -1.097202   -1.377434   -3.210741
 C   -0.631450   -0.904154   -1.916015
 C    0.782935   -0.342975   -2.106449
 O    1.763939   -1.035448   -1.832909
 C   -0.563886   -2.010052   -0.871425
 O   -1.875673   -2.506827   -0.682309
 N    0.892780    0.892053   -2.627232
 C    2.178142    1.422589   -3.068658
 C    2.861096    2.196298   -1.933328
 O    2.329790    3.228973   -1.515308
 C    1.962114    2.375754   -4.242623
 N    4.059379    1.787030   -1.465115
 C    4.558858    0.412090   -1.330831
 C    4.465592    0.109890    0.183427
 O    5.424163    0.244472    0.925159
 C    5.982463    0.254416   -1.865823
 C    6.382564   -1.200878   -1.950469
 C    6.084309   -1.946905   -3.090411
 C    7.020938   -1.847653   -0.887339
 C    6.409461   -3.296165   -3.178711
 C    7.352187   -3.192773   -0.959697
 C    7.047202   -3.923982   -2.108645
 O    7.394258   -5.236268   -2.123979
 N    3.201382   -0.158454    0.612332
 C    2.880087   -0.364895    2.018318
 C    1.380676   -0.610446    2.104610
 O    0.584333    0.112592    1.482459
 C    3.221516    0.879162    2.867169
 C    2.898990    0.779968    4.364296
 C    3.247659    2.110772    5.036054
 C    3.651169   -0.364454    5.050114
 N    0.946394   -1.618672    2.873823
 C   -0.471790   -1.768911    3.150678
 C   -0.874992   -0.801796    4.275818
 O   -0.133884   -0.658078    5.230955
 C   -0.852275   -3.185976    3.612892
 C   -1.242597   -4.104046    2.475062
 O   -0.893376   -3.938632    1.319378
 O   -2.001907   -5.101990    2.879024
 N   -2.123040   -0.236756    4.249219
 C   -2.946735    0.140495    3.110845
 C   -3.162362   -1.048892    2.160249
 O   -3.489456   -2.144408    2.546722
 C   -2.424849    1.383603    2.372721
 S   -2.192264    2.815877    3.495530
 O   -2.912301   -0.731853    0.893440
 H    0.130221    2.394605   -0.378892
 H    0.672260    1.835524    1.102912
 H    1.557772    2.965424    0.181576
 H   -1.190536    3.572084    1.053814
 H   -0.161375    5.146363    2.741655
 H    1.379516    4.325609    2.521816
 H   -2.619764    5.075185   -0.254203
 H   -3.278793    4.797964   -2.939545
 H   -2.938745    6.370549   -2.183250
 H   -1.308272    6.304254   -4.007836
 H   -0.970423    4.590669   -3.709451
 H   -0.197941    6.967681   -1.930609
 H    0.829290    5.605133   -2.413133
 H   -4.228459    3.484360   -0.975311
 H   -3.151821    0.767391   -0.907465
 H   -5.526734    0.064881   -0.929491
 H   -6.045361    1.745688   -1.122730
 H   -5.225201    1.225197    0.371395
 H   -4.034692    0.110809   -4.439334
 H   -3.302250   -0.976964   -1.777096
 H   -5.637870   -1.653001   -2.490437
 H   -4.907896   -2.479645   -3.871047
 H   -3.508197   -4.528876   -3.494328
 H   -5.296655   -2.474182   -0.182108
 H   -2.780320   -6.336342   -1.979930
 H   -4.548706   -4.265166    1.342890
 H   -2.749485   -7.072919    0.213177
 H   -0.406700   -1.848145   -3.785339
 H   -1.283232   -0.094674   -1.573128
 H   -0.156632   -1.606523    0.058988
 H    0.097902   -2.805688   -1.222173
 H   -1.796393   -3.334335   -0.172526
 H    0.058013    1.451955   -2.760458
 H    2.787386    0.574873   -3.386843
 H    1.469486    1.851520   -5.065730
 H    2.920073    2.762678   -4.599779
 H    1.348613    3.225448   -3.929635
 H    4.460259    2.448505   -0.806200
 H    3.882080   -0.252847   -1.868354
 H    6.669669    0.809828   -1.220231
 H    6.015087    0.715325   -2.859022
 H    5.597753   -1.466892   -3.937278
 H    7.254800   -1.286250    0.012009
 H    6.175763   -3.854833   -4.082369
 H    7.854620   -3.692375   -0.138208
 H    7.175974   -5.618031   -2.982620
 H    2.539788   -0.482582   -0.087266
 H    3.433284   -1.230697    2.401355
 H    2.681273    1.731856    2.432026
 H    4.288659    1.073247    2.733880
 H    1.823878    0.608042    4.498869
 H    2.723140    2.950817    4.564530
 H    2.969311    2.098640    6.094052
 H    4.323625    2.311562    4.969610
 H    4.733488   -0.262571    4.907706
 H    3.445929   -0.365599    6.124522
 H    3.362473   -1.352071    4.671528
 H    1.606972   -2.085343    3.479612
 H   -0.969769   -1.544085    2.211749
 H   -0.034652   -3.643963    4.181755
 H   -1.705713   -3.135885    4.292514
 H   -2.300814   -5.626323    2.097493
 H   -2.291002    0.309778    5.085937
 H   -3.936040    0.359167    3.528742
 H   -1.473610    1.144514    1.893194
 H   -3.133922    1.691330    1.598829
 H   -2.740921   -1.548751    0.332726
