146 
4x1p_ligand_xtb.xyz
 N    7.025188   -1.192084    1.335068
 C    6.007541   -1.176586    0.264103
 C    6.329948   -2.493577   -0.500445
 O    7.443710   -2.965264   -0.252103
 C    6.249038    0.014993   -0.655517
 S    6.563527    1.562169    0.311975
 N    5.513927   -2.985254   -1.408832
 C    4.104929   -2.679204   -1.555611
 C    3.390618   -2.994898   -0.211064
 O    4.044564   -3.216149    0.784289
 C    3.669638   -3.577004   -2.718733
 C    4.550020   -4.811668   -2.538279
 C    5.883624   -4.207636   -2.123341
 N    2.050420   -3.006037   -0.314336
 C    1.124848   -2.940528    0.807341
 C    1.116739   -1.489378    1.320674
 O    2.107925   -0.791477    1.177504
 C    1.486970   -3.911714    1.928616
 N    0.008909   -1.030048    1.917822
 C   -1.265023   -1.686924    2.115211
 C   -1.855509   -2.179221    0.791137
 O   -1.763276   -1.507677   -0.228377
 C   -2.258933   -0.660504    2.692247
 C   -3.648800   -1.229219    2.774721
 C   -4.642170   -0.805216    1.900422
 C   -3.956697   -2.212999    3.706404
 C   -5.904793   -1.362160    1.938941
 C   -5.218461   -2.772877    3.758584
 C   -6.201780   -2.359661    2.865164
 O   -7.440861   -2.895169    2.845708
 N   -2.470285   -3.365446    0.834318
 C   -2.995713   -4.048630   -0.337868
 C   -3.464766   -3.046691   -1.411090
 O   -2.927939   -2.991957   -2.496386
 C   -4.125795   -4.997505    0.075344
 O   -5.080496   -4.272805    0.820724
 N   -4.481295   -2.262180   -1.006288
 C   -5.233085   -1.396029   -1.901147
 C   -6.123910   -2.201464   -2.845758
 C   -4.315650   -0.470791   -2.729253
 O   -5.113534    0.515448   -3.248094
 N   -3.282156    0.125584   -1.794618
 C   -2.098051    0.815387   -2.378491
 C   -2.599532    2.018072   -3.191404
 O   -3.026989    1.861825   -4.321056
 C   -1.267273   -0.127945   -3.258829
 C    0.184419    0.245481   -3.145352
 C    0.859685    0.893108   -4.168535
 C    0.855094   -0.012975   -1.955758
 C    2.180301    1.276208   -4.010188
 C    2.169318    0.368570   -1.783443
 C    2.837685    1.020522   -2.815059
 O    4.140332    1.387343   -2.607438
 N   -2.615107    3.224657   -2.612793
 C   -2.106880    3.708431   -1.346074
 C   -2.728052    2.987292   -0.147515
 O   -3.693303    2.241109   -0.247896
 C   -2.454742    5.207349   -1.262543
 C   -1.571974    6.089477   -2.158419
 C   -0.166967    6.245106   -1.579209
 C   -2.224535    7.460501   -2.320681
 N   -2.212125    3.263443    1.061006
 C   -0.916824    3.822602    1.376711
 C    0.166860    2.751814    1.082700
 O   -0.114990    1.710458    0.532930
 C   -0.898539    4.248771    2.849572
 C   -0.725415    3.075117    3.796273
 O   -0.802338    3.461698    5.050416
 O   -0.554134    1.933032    3.442193
 N    1.415957    3.140751    1.414221
 C    2.461486    2.202657    1.767687
 C    2.611793    2.271184    3.288050
 O    3.373727    1.308820    3.776726
 C    3.778059    2.558333    1.073797
 S    5.125161    1.509857    1.744337
 O    2.080883    3.120583    3.955290
 H    6.648619   -1.486515    2.236265
 H    7.485680   -0.274726    1.420792
 H    7.678540   -1.982177    0.919850
 H    5.000663   -1.159368    0.681349
 H    7.157593   -0.111265   -1.243752
 H    5.410414    0.195408   -1.322988
 H    3.947981   -1.618459   -1.774216
 H    3.899424   -3.085067   -3.664541
 H    2.609894   -3.817295   -2.703674
 H    4.154958   -5.440450   -1.740257
 H    4.631773   -5.404767   -3.444593
 H    6.492041   -3.935176   -2.989984
 H    6.475715   -4.851645   -1.472530
 H    1.666732   -2.644624   -1.176412
 H    0.142828   -3.198224    0.403017
 H    0.741801   -3.869713    2.717870
 H    2.458045   -3.663151    2.344504
 H    1.528510   -4.924611    1.536735
 H    0.023426   -0.042280    2.151988
 H   -1.152917   -2.530805    2.806854
 H   -2.250539    0.209189    2.033026
 H   -1.904497   -0.350777    3.676562
 H   -4.431758   -0.014434    1.194587
 H   -3.206213   -2.537359    4.413198
 H   -6.687223   -1.028372    1.276495
 H   -5.445021   -3.528900    4.497219
 H   -7.572629   -3.491897    3.593136
 H   -2.628222   -3.818648    1.722255
 H   -2.195332   -4.642882   -0.801527
 H   -3.707790   -5.812993    0.682201
 H   -4.565530   -5.430305   -0.830624
 H   -5.871570   -4.808478    0.943297
 H   -4.938351   -2.513811   -0.135548
 H   -5.856634   -0.747508   -1.277914
 H   -6.838333   -2.789107   -2.276269
 H   -5.517484   -2.868179   -3.453264
 H   -6.667848   -1.523981   -3.496212
 H   -3.774170   -1.045619   -3.488617
 H   -4.674353    0.962317   -3.993205
 H   -2.890629   -0.628228   -1.191044
 H   -3.756163    0.838944   -1.190401
 H   -1.488373    1.141335   -1.529985
 H   -1.409250   -1.153461   -2.912953
 H   -1.600506   -0.055474   -4.294908
 H    0.353498    1.105744   -5.097449
 H    0.331253   -0.496000   -1.145313
 H    2.698407    1.782149   -4.812619
 H    2.667509    0.181156   -0.844865
 H    4.478880    1.850834   -3.383806
 H   -3.027087    3.936294   -3.205848
 H   -1.019914    3.558083   -1.311519
 H   -3.501130    5.316855   -1.556579
 H   -2.384501    5.563028   -0.234284
 H   -1.487096    5.625194   -3.146669
 H    0.334924    5.284366   -1.470466
 H    0.437750    6.860669   -2.239069
 H   -0.207342    6.738327   -0.609502
 H   -1.610184    8.099455   -2.948295
 H   -3.204351    7.373575   -2.782924
 H   -2.342871    7.944460   -1.354126
 H   -2.634219    2.729635    1.812772
 H   -0.721803    4.695193    0.747652
 H   -0.091101    4.951674    3.060744
 H   -1.829417    4.760399    3.104145
 H   -0.641689    2.741876    5.681202
 H    1.508530    4.019462    1.909182
 H    2.160991    1.182812    1.486544
 H    3.488546    1.392318    4.738948
 H    4.043668    3.601695    1.252855
 H    3.703691    2.371813    0.003569
