156 
4x1q_ligand_dft.xyz
 N    0.825328    2.614620   -1.328327
 C   -0.227571    3.302439   -0.543433
 C   -0.970428    4.200497   -1.540824
 O   -0.352028    4.673220   -2.483358
 C    0.327055    4.053727    0.672870
 S    1.540007    5.395233    0.425420
 N   -2.277260    4.451097   -1.298691
 C   -3.108295    3.796235   -0.282853
 C   -3.203757    2.284217   -0.521699
 O   -2.867347    1.497014    0.363621
 C   -4.447253    4.554123   -0.376753
 C   -4.494485    5.078540   -1.816936
 C   -3.032315    5.369492   -2.164283
 N   -3.630961    1.869715   -1.730636
 C   -3.419860    0.495673   -2.154116
 C   -1.901800    0.250044   -2.192160
 O   -1.168172    1.223774   -2.382006
 C   -4.078714    0.282294   -3.515346
 N   -1.399326   -0.983242   -1.982528
 C   -2.098496   -2.246686   -2.111409
 C   -1.772142   -3.166124   -0.932079
 O   -0.684898   -3.114393   -0.371578
 C   -1.705806   -2.977843   -3.430509
 C   -0.233188   -3.295487   -3.535113
 C    0.269123   -4.530012   -3.118455
 C    0.675474   -2.340960   -4.000430
 C    1.632937   -4.798294   -3.137013
 C    2.040921   -2.590196   -4.019106
 C    2.523647   -3.816846   -3.571601
 O    3.876714   -3.984161   -3.542827
 N   -2.677218   -4.138734   -0.608679
 C   -4.133335   -3.964479   -0.653317
 C   -4.459377   -2.632454    0.054842
 O   -4.892411   -1.692712   -0.603616
 C   -4.783038   -5.206306   -0.052192
 O   -4.190213   -5.415746    1.213519
 N   -4.061321   -2.546386    1.342851
 C   -3.337670   -1.386253    1.855598
 C   -2.023483   -1.987506    2.388156
 O   -2.037597   -3.128102    2.836210
 C   -4.066182   -0.670847    3.008650
 C   -5.521475   -0.307220    2.705015
 C   -5.675832    0.694793    1.566366
 N   -7.067134    1.069432    1.388586
 C   -7.438630    1.835002    0.292146
 N   -6.760077    2.065447   -0.775342
 N   -8.697035    2.406920    0.442260
 N   -0.857199   -1.292467    2.384282
 C   -0.497093    0.074241    2.064461
 C    0.741580    0.076546    1.146270
 O    1.438825    1.101329    0.998162
 C   -0.151356    0.847410    3.364191
 C    0.866857    0.100478    4.196938
 C    0.450069   -0.813163    5.172767
 C    2.237560    0.207445    3.949835
 C    1.357450   -1.600736    5.866365
 C    3.161790   -0.571502    4.637218
 C    2.721832   -1.484281    5.596185
 O    3.565888   -2.281951    6.295103
 N    1.068607   -1.086543    0.595735
 C    2.340826   -1.292538   -0.053274
 C    2.401570   -0.476636   -1.345825
 O    1.378979   -0.143523   -1.943844
 C    2.564723   -2.781365   -0.352211
 C    2.997072   -3.642037    0.844904
 C    2.055979   -3.566341    2.053184
 C    3.145633   -5.088204    0.363996
 N    3.616302   -0.134170   -1.809237
 C    4.917310   -0.359823   -1.207440
 C    5.435043    0.880591   -0.454295
 O    6.615556    1.178106   -0.465591
 C    5.933513   -0.824082   -2.250538
 C    6.134549    0.198888   -3.343748
 O    7.302047    0.050489   -3.964868
 O    5.319497    1.042779   -3.659134
 N    4.497490    1.591877    0.234110
 C    4.927918    2.624376    1.139849
 C    5.435846    2.008478    2.446547
 O    5.341299    0.839900    2.733116
 C    3.795224    3.614205    1.437286
 S    3.247579    4.374704   -0.136338
 O    5.988770    2.933020    3.236047
 H    1.281083    3.290417   -1.950292
 H    1.497592    2.156488   -0.703711
 H    0.366903    1.869056   -1.898362
 H   -0.865883    2.510126   -0.154608
 H   -0.509762    4.542779    1.183118
 H    0.738549    3.312807    1.362099
 H   -2.673608    3.894409    0.715779
 H   -4.422525    5.386878    0.332426
 H   -5.306311    3.919875   -0.143119
 H   -5.119864    5.968563   -1.907505
 H   -4.924928    4.321321   -2.481170
 H   -2.778074    5.185016   -3.210624
 H   -2.750581    6.401940   -1.931430
 H   -3.695099    2.563365   -2.461860
 H   -3.886509   -0.158244   -1.417665
 H   -5.144105    0.516885   -3.442318
 H   -3.618411    0.918908   -4.279078
 H   -3.981753   -0.757258   -3.839411
 H   -0.375529   -1.004334   -1.966543
 H   -3.169302   -2.048363   -2.140819
 H   -2.301683   -3.894984   -3.499264
 H   -2.014567   -2.326644   -4.255778
 H   -0.414381   -5.294848   -2.758068
 H    0.316085   -1.372590   -4.337345
 H    2.002989   -5.761127   -2.792488
 H    2.742221   -1.838465   -4.365275
 H    4.084237   -4.895159   -3.300505
 H   -2.371256   -4.672055    0.202539
 H   -4.483010   -3.863165   -1.683787
 H   -4.602158   -6.058148   -0.721218
 H   -5.865307   -5.040383    0.022962
 H   -4.565180   -6.201071    1.627111
 H   -3.763907   -3.412526    1.789892
 H   -3.167608   -0.686263    1.032190
 H   -3.496543    0.233776    3.260902
 H   -4.041799   -1.325782    3.887411
 H   -6.082914   -1.215242    2.460015
 H   -5.962786    0.103745    3.622758
 H   -5.330285    0.223761    0.643575
 H   -5.039275    1.574613    1.750414
 H   -7.523427    1.363138    2.243413
 H   -5.838001    1.641757   -0.721777
 H   -9.022688    2.806026   -0.428302
 H   -9.389545    1.800645    0.863045
 H   -0.142920   -1.805181    2.893210
 H   -1.323623    0.567743    1.543114
 H   -1.082468    0.974704    3.925863
 H    0.210806    1.843288    3.095757
 H   -0.610748   -0.921019    5.386245
 H    2.600069    0.897731    3.194670
 H    1.027501   -2.309803    6.617694
 H    4.219990   -0.458106    4.415841
 H    4.475639   -2.100411    6.029624
 H    0.388256   -1.841804    0.577672
 H    3.109889   -0.937637    0.644703
 H    3.334825   -2.863344   -1.128018
 H    1.646639   -3.179707   -0.797708
 H    3.986293   -3.286710    1.171559
 H    2.069396   -2.572958    2.515921
 H    2.369922   -4.281172    2.820460
 H    1.024233   -3.811639    1.771048
 H    3.835150   -5.153262   -0.486523
 H    2.174674   -5.484826    0.043475
 H    3.529651   -5.734198    1.159552
 H    3.640462    0.427197   -2.656637
 H    4.835641   -1.158057   -0.464250
 H    6.892690   -1.027504   -1.772973
 H    5.574714   -1.752005   -2.712905
 H    7.347910    0.723756   -4.663976
 H    3.562911    1.221563    0.374131
 H    5.774585    3.145247    0.681483
 H    2.951591    3.085407    1.893627
 H    4.144331    4.390096    2.120024
 H    6.299347    2.489563    4.042268
