17 
4x2s_ligand_xtb.xyz
 N    0.702632    1.723756    0.134126
 C    0.665159    0.430530    0.864602
 C    1.390565   -0.648504    0.020632
 O    2.340728   -0.096712   -0.727238
 C   -0.777743   -0.008350    1.125827
 C   -1.604040    0.023609   -0.147386
 O   -1.352218    0.792851   -1.061261
 O   -2.591453   -0.815774   -0.146478
 O    1.120058   -1.804643    0.069156
 H   -0.096729    1.617322   -0.593560
 H    0.528021    2.530977    0.738330
 H    1.605841    1.829815   -0.344874
 H    1.211982    0.507603    1.811676
 H    2.835894   -0.762454   -1.234827
 H   -0.784933   -1.026051    1.520778
 H   -1.263003    0.636426    1.862352
 H   -3.136060   -0.789418   -0.954238
