91 
4x3r_ligand_dft.xyz
 C    9.398011   -3.462950   -0.731424
 C    8.479479   -3.219881   -1.749495
 C    7.216860   -2.722646   -1.459390
 C    9.031578   -3.198192    0.582156
 C    7.764350   -2.707053    0.886755
 C    6.837355   -2.465653   -0.132841
 N    5.545946   -1.929777    0.115232
 C    5.203627   -1.653986    1.507585
 C    3.867932   -0.927171    1.649361
 C    4.442282   -2.538226   -0.663557
 C    3.205587   -2.795378    0.180333
 N    2.798710   -1.567821    0.860142
 C    1.484716   -1.522755    1.357736
 C    1.059656   -0.463479    2.176452
 C   -0.287037   -0.368463    2.466879
 N    0.658702   -2.484408    0.944281
 C   -0.631460   -2.392832    1.268632
 C   -1.171293   -1.337899    1.990701
 C   -2.646740   -1.261366    2.255093
 O   -3.174320   -1.992788    3.083744
 N   -3.339795   -0.312369    1.549180
 C   -4.769986   -0.189066    1.825389
 C   -5.625372   -1.003575    0.879501
 C   -5.715453   -2.389977    1.034259
 C   -6.477406   -3.154319    0.159584
 C   -7.151118   -2.525210   -0.882683
Br   -8.196921   -3.564605   -2.076291
 C   -7.073386   -1.150889   -1.061623
 C   -6.308069   -0.398265   -0.174471
 C   -2.861637    0.274751    0.295312
 C   -2.997092    1.793987    0.215951
 C   -2.239614    2.530210    1.319252
 C   -2.470875    4.042548    1.307775
 C   -1.894474    4.749287    0.061601
 C   -2.278861    6.217239    0.076906
 O   -1.502463    7.132171    0.227200
 O   -3.599282    6.395858   -0.067586
 N   -0.453004    4.671742   -0.006021
 C    0.164839    3.790348   -0.856032
 O   -0.430198    2.918317   -1.475168
 N    1.535130    3.981559   -0.959006
 C    2.309959    2.876931   -1.490614
 C    2.272275    1.702789   -0.513671
 O    2.083677    1.845247    0.673392
 O    2.494707    0.532988   -1.111916
 C    3.746449    3.366494   -1.750860
 C    4.705358    2.302701   -2.282257
 C    5.196564    1.364528   -1.199261
 O    5.207335    1.635133   -0.015148
 O    5.632535    0.206874   -1.685097
 H   10.385633   -3.850053   -0.960285
 H    8.748330   -3.408042   -2.784667
 H    6.527190   -2.506155   -2.269228
 H    9.733919   -3.380962    1.390169
 H    7.510714   -2.526250    1.924527
 H    5.966565   -0.992684    1.926298
 H    5.198375   -2.579160    2.105176
 H    3.985526    0.116257    1.343139
 H    3.608139   -0.938240    2.714956
 H    4.772302   -3.493258   -1.085098
 H    4.179131   -1.876405   -1.497128
 H    2.391916   -3.114760   -0.469329
 H    3.374737   -3.609353    0.899863
 H    1.742281    0.312319    2.490676
 H   -0.657577    0.472268    3.045570
 H   -1.271762   -3.195848    0.909870
 H   -4.923708   -0.518521    2.853664
 H   -5.041402    0.869207    1.761810
 H   -5.179957   -2.865544    1.850687
 H   -6.553089   -4.228619    0.286558
 H   -7.601043   -0.675030   -1.880855
 H   -6.245370    0.678959   -0.309998
 H   -1.812287    0.010095    0.165654
 H   -3.413876   -0.183767   -0.535978
 H   -2.596615    2.086229   -0.759613
 H   -4.055980    2.087806    0.229846
 H   -2.558131    2.144438    2.296395
 H   -1.166960    2.317197    1.229621
 H   -3.546435    4.249869    1.360636
 H   -2.007489    4.494067    2.193429
 H   -2.314855    4.296448   -0.842384
 H   -3.758623    7.352370   -0.019607
 H    0.022566    5.534377    0.228221
 H    1.952597    4.374859   -0.123468
 H    1.849709    2.554607   -2.426795
 H    2.538956   -0.186918   -0.432355
 H    3.673009    4.188669   -2.468721
 H    4.160232    3.773033   -0.820928
 H    4.254343    1.707936   -3.081545
 H    5.590410    2.788220   -2.711122
 H    5.793011   -0.396828   -0.913691
