91 
4x3r_ligand_xtb.xyz
 C    8.981061   -3.825022   -0.972913
 C    8.025721   -3.452994   -1.904002
 C    6.821980   -2.913411   -1.498366
 C    8.713306   -3.646448    0.371604
 C    7.506744   -3.113882    0.789876
 C    6.536955   -2.739410   -0.139747
 N    5.317180   -2.148435    0.223475
 C    5.065944   -1.915348    1.634169
 C    3.835503   -1.034208    1.849234
 C    4.134102   -2.573278   -0.534433
 C    2.921503   -2.757253    0.369792
 N    2.682657   -1.539191    1.117650
 C    1.400409   -1.262394    1.535483
 C    1.108227   -0.244225    2.455928
 C   -0.212663    0.038344    2.721263
 N    0.437063   -1.978762    0.950871
 C   -0.822340   -1.692055    1.212278
 C   -1.218772   -0.674199    2.069687
 C   -2.661260   -0.436641    2.360623
 O   -3.130363   -0.670541    3.462416
 N   -3.421038    0.008966    1.329677
 C   -4.858355    0.096249    1.519580
 C   -5.565118   -0.957913    0.710971
 C   -5.266784   -2.299036    0.929676
 C   -5.881959   -3.290596    0.190055
 C   -6.806403   -2.931456   -0.776780
Br   -7.664440   -4.291013   -1.802201
 C   -7.120129   -1.605143   -1.012473
 C   -6.491521   -0.622923   -0.266823
 C   -2.904215    0.455466    0.054579
 C   -3.003422    1.973958   -0.138298
 C   -2.349943    2.739415    1.010025
 C   -2.593582    4.244963    0.925194
 C   -1.881636    4.888202   -0.283151
 C   -2.215281    6.366643   -0.318684
 O   -1.432618    7.245074   -0.070653
 O   -3.492904    6.592113   -0.624736
 N   -0.453722    4.725544   -0.198126
 C    0.222553    3.885447   -1.031665
 O   -0.330823    3.120387   -1.795696
 N    1.592958    4.006781   -0.944068
 C    2.407140    2.901120   -1.405326
 C    2.246803    1.731183   -0.434201
 O    1.843074    1.867507    0.690064
 O    2.567483    0.558815   -0.966729
 C    3.864278    3.369093   -1.508604
 C    4.809114    2.290635   -2.026028
 C    5.149294    1.281972   -0.951639
 O    5.084822    1.491904    0.234168
 O    5.554103    0.128922   -1.460947
 H    9.922039   -4.245715   -1.291905
 H    8.220995   -3.577511   -2.958881
 H    6.103377   -2.606501   -2.241688
 H    9.446472   -3.931618    1.111804
 H    7.332046   -3.006157    1.848101
 H    5.922668   -1.380621    2.051038
 H    4.948635   -2.859083    2.188836
 H    4.060777   -0.011613    1.524967
 H    3.629702   -1.011228    2.925560
 H    4.337450   -3.522003   -1.041981
 H    3.898168   -1.821220   -1.296580
 H    2.033990   -2.959070   -0.230757
 H    3.070406   -3.610535    1.045074
 H    1.887871    0.330664    2.922771
 H   -0.474580    0.818136    3.420007
 H   -1.549993   -2.313748    0.705014
 H   -5.037695   -0.069640    2.587075
 H   -5.214895    1.092830    1.249145
 H   -4.549736   -2.563578    1.692412
 H   -5.651259   -4.330477    0.362774
 H   -7.842817   -1.342778   -1.769733
 H   -6.732477    0.414253   -0.449307
 H   -1.856041    0.168251   -0.020687
 H   -3.459256   -0.049596   -0.744014
 H   -2.492164    2.209107   -1.071789
 H   -4.048495    2.276129   -0.233582
 H   -2.755324    2.384721    1.960418
 H   -1.276617    2.541652    1.009981
 H   -3.662850    4.446456    0.842122
 H   -2.221900    4.721697    1.834964
 H   -2.227180    4.414311   -1.207485
 H   -3.683700    7.544307   -0.618785
 H    0.037788    5.463182    0.284401
 H    1.937790    4.429857   -0.093364
 H    2.026619    2.586236   -2.382218
 H    2.460376   -0.168600   -0.312528
 H    3.885563    4.234755   -2.171271
 H    4.203012    3.679988   -0.517041
 H    4.390381    1.758975   -2.880076
 H    5.751199    2.746076   -2.341175
 H    5.713630   -0.541737   -0.755336
