51 
4x5p_ligand_xtb.xyz
 O    9.493270   -1.161135   -0.467738
 C    0.522845   -1.416723   -0.542192
 C   -0.844726   -1.582686   -0.472690
 O   -3.927472    1.066196    0.845222
 C    3.347840    0.669577    0.621079
 C    4.799254    0.432718    0.345604
 C    5.621442    1.550164    0.218023
 C    6.973342    1.405599   -0.019118
 O   -6.652098    0.888382   -1.622150
 C    7.523476    0.129760   -0.116156
 O   -7.188835   -1.336236    0.014914
 C    6.709604   -0.990799    0.038297
 C    5.356288   -0.842368    0.266131
 C    8.967956   -0.080551   -0.369083
 O   -5.901069   -0.575793    2.296323
 C   -3.811148   -0.282723    1.185662
 O   -5.086524    3.167426   -1.831234
 C   -4.571736    1.315273   -0.393169
 O    9.659779    1.062128   -0.484500
 O    2.968028    1.627232    1.260797
 N    2.527564   -0.273807    0.071665
 C    1.137590   -0.378939    0.158510
 C    0.352729    0.489170    0.909074
 C   -1.019009    0.317851    0.970127
Cl   -1.601050   -2.868078   -1.334614
 C   -1.639491   -0.723243    0.293066
 O   -2.982584   -0.990517    0.301225
 C   -5.154948   -1.025991    1.200785
 C   -5.901903   -0.780306   -0.113933
 C   -5.987967    0.726381   -0.392605
 C   -4.577103    2.837384   -0.554892
 H    1.106173   -2.100801   -1.139806
 H    5.176003    2.529078    0.309885
 H    7.609130    2.270075   -0.125381
 H   -6.375798    1.734687   -2.002556
 H   -7.706372   -1.011807   -0.732742
 H    7.161569   -1.969333   -0.020947
 H    4.746525   -1.721952    0.416432
 H   -6.811751   -0.864238    2.136896
 H   -3.397744   -0.278353    2.204303
 H   -5.025718    4.120120   -1.956383
 H   -4.003126    0.865679   -1.221889
 H   10.595479    0.864505   -0.645986
 H    2.965474   -0.982375   -0.500422
 H    0.817597    1.300411    1.443081
 H   -1.613280    1.011666    1.541540
 H   -4.944039   -2.102768    1.294117
 H   -5.354307   -1.260072   -0.938441
 H   -6.563318    1.201122    0.420872
 H   -3.548169    3.195540   -0.433780
 H   -5.195396    3.274026    0.239995
