54 
4x5z_ligand_dft.xyz
 C    4.952138    1.507983   -0.653872
 C    3.803323    0.711364   -0.626530
 C    2.585217    1.431329   -0.563434
 N    2.581383    2.764223   -0.548127
 N    4.972020    2.846606   -0.645131
 F    6.777852   -4.093630    0.608206
 C    6.149820   -2.909691    0.656850
 F    6.798599   -2.135635    1.536492
 F    4.913954   -3.126105    1.138990
 C    6.102375   -2.277467   -0.723598
 C    5.437072   -0.933441   -0.717520
 S    6.391148    0.531229   -0.713769
 C    4.102761   -0.689731   -0.666488
 C    3.768551    3.389568   -0.598519
 N    1.380291    0.791460   -0.533110
 C    0.132619    1.506539   -0.377644
 C   -1.037679    0.620223   -0.802951
 C   -2.365502    1.343360   -0.634707
 C   -0.083534    2.013001    1.056458
 C   -1.426276    2.715695    1.199092
 N   -2.542889    1.818008    0.775930
 C   -3.948532    2.404678    1.014912
 C   -4.933355    1.296339    0.953793
 C   -5.679459    1.073014   -0.198211
 C   -6.440072   -0.097695   -0.304688
 C   -7.277637   -0.664489   -1.285798
 C   -7.669003   -1.887700   -0.733704
 C   -8.527470   -2.832416   -1.388895
 N   -9.219136   -3.576323   -1.950368
 N   -7.165565   -2.151283    0.502285
 C   -6.415385   -1.067386    0.773972
 C   -5.664849   -0.811774    1.937394
 C   -4.935825    0.355777    2.022920
 H    5.559093   -2.967320   -1.375786
 H    7.129702   -2.219040   -1.092828
 H    3.369216   -1.488384   -0.657477
 H    3.727172    4.475741   -0.593107
 H    1.381300   -0.200710   -0.352556
 H    0.182014    2.378578   -1.039354
 H   -1.051293   -0.305289   -0.209134
 H   -0.934220    0.325303   -1.851302
 H   -3.219853    0.702657   -0.860520
 H   -2.419284    2.236209   -1.265932
 H    0.714611    2.712712    1.317342
 H   -0.027605    1.169223    1.757666
 H   -1.485705    3.606451    0.565760
 H   -1.620772    3.014849    2.231667
 H   -2.536854    0.978981    1.369090
 H   -4.091161    3.173890    0.250835
 H   -3.882419    2.879756    1.999462
 H   -5.659694    1.801477   -1.009371
 H   -7.562892   -0.262488   -2.248420
 H   -5.679993   -1.529491    2.752380
 H   -4.381892    0.584230    2.935369
