54 
4x60_ligand_xtb.xyz
 C   -1.408471   -3.561027    0.954155
 C   -0.325956   -1.998160   -0.258840
 C   -1.504283   -1.339193   -0.524814
 C   -2.673730   -1.914376    0.026555
 C    3.114096    2.248411   -1.014699
 C    1.707227    2.722004   -1.353408
 C    0.783438    2.635344   -0.168725
 C   -0.430356    3.312105   -0.179669
 C   -1.303363    3.216691    0.887427
 C   -0.975049    2.426206    1.977770
 C    0.226692    1.744231    1.995383
 C    1.111953    1.849051    0.929250
 C    2.435017    1.134625    1.004433
 N    3.025076    0.938241   -0.335624
 C    4.313936    0.229069   -0.289897
 C    4.239986   -1.269724    0.055716
 O    3.806294   -1.411992    1.385412
 C    3.354132   -2.098127   -0.926475
 N    2.005094   -2.287527   -0.458762
 C    0.974881   -1.498448   -0.767077
 O    1.098410   -0.438564   -1.393024
 N   -0.259053   -3.117288    0.481050
 N   -2.593138   -3.025273    0.771119
 N   -3.899172   -1.403771   -0.148145
 C   -4.199925   -0.224064   -0.906199
 C   -5.584654    0.382919   -0.652006
 O   -5.006893    1.597215   -0.171788
 C   -3.679121    1.108158   -0.331374
 H   -1.371944   -4.458874    1.556554
 H   -1.517862   -0.441198   -1.117006
 H    3.615740    2.957643   -0.351273
 H    3.703511    2.146393   -1.927616
 H    1.747831    3.747593   -1.722131
 H    1.298093    2.099963   -2.155115
 H   -0.683252    3.924444   -1.032127
 H   -2.238296    3.754234    0.870476
 H   -1.652274    2.346062    2.813486
 H    0.490699    1.130863    2.844046
 H    3.138512    1.717308    1.610607
 H    2.313171    0.162827    1.485067
 H    2.298710    0.360038   -0.893449
 H    4.792979    0.319227   -1.267045
 H    4.949860    0.712569    0.457236
 H    5.273594   -1.633101   -0.047498
 H    4.006963   -2.295855    1.711581
 H    3.323521   -1.601905   -1.900917
 H    3.801322   -3.084681   -1.058356
 H    1.749471   -3.106594    0.085566
 H   -4.648639   -1.887922    0.325691
 H   -3.960157   -0.377930   -1.963486
 H   -6.170905   -0.120063    0.122509
 H   -6.203831    0.546335   -1.536285
 H   -3.157124    1.016127    0.625945
 H   -3.092534    1.728380   -1.013755
