54 
4x63_ligand_xtb.xyz
 C   -1.409959   -3.561210    0.953586
 C   -0.326853   -1.997989   -0.258272
 C   -1.504931   -1.338169   -0.523738
 C   -2.674536   -1.913619    0.027119
 C    3.116354    2.246921   -1.015648
 C    1.709750    2.721468   -1.354154
 C    0.785934    2.635518   -0.169387
 C   -0.427681    3.312435   -0.180849
 C   -1.300605    3.218034    0.886463
 C   -0.972180    2.428500    1.977469
 C    0.229243    1.746193    1.995437
 C    1.114396    1.849841    0.929024
 C    2.437076    1.134754    1.004303
 N    3.026447    0.937168   -0.335886
 C    4.314708    0.226813   -0.290308
 C    4.239522   -1.271837    0.055643
 O    3.805563   -1.413402    1.385338
 C    3.353011   -2.099735   -0.926485
 N    2.003910   -2.288329   -0.458572
 C    0.974209   -1.498511   -0.766406
 O    1.098249   -0.438582   -1.391994
 N   -0.260348   -3.117617    0.480755
 N   -2.594429   -3.024974    0.770899
 N   -3.899917   -1.402556   -0.147697
 C   -4.199971   -0.222270   -0.905179
 C   -5.586628    0.382025   -0.655047
 O   -5.012651    1.596872   -0.171715
 C   -3.683511    1.110266   -0.327034
 H   -1.373794   -4.459384    1.555469
 H   -1.518068   -0.439523   -1.114957
 H    3.618784    2.956092   -0.352779
 H    3.705470    2.143937   -1.928655
 H    1.751076    3.747044   -1.722900
 H    1.300074    2.099711   -2.155872
 H   -0.680593    3.924007   -1.033827
 H   -2.235408    3.755754    0.869123
 H   -1.649207    2.349530    2.813510
 H    0.493263    1.133517    2.844607
 H    3.141241    1.717372    1.609799
 H    2.314980    0.163366    1.485631
 H    2.299299    0.359372   -0.893104
 H    4.793725    0.316317   -1.267558
 H    4.951182    0.709891    0.456646
 H    5.272821   -1.636131   -0.047463
 H    4.005667   -2.297313    1.711758
 H    3.322598   -1.603381   -1.900879
 H    3.799547   -3.086571   -1.058679
 H    1.747958   -3.107452    0.085608
 H   -4.649477   -1.886093    0.326323
 H   -3.956210   -0.374272   -1.961785
 H   -6.174521   -0.122679    0.117046
 H   -6.203191    0.545145   -1.541229
 H   -3.164771    1.018077    0.632035
 H   -3.095457    1.732146   -1.006619
