41 
4x68_ligand_xtb.xyz
 C    1.038469    1.519136   -0.108297
 O    1.766943    2.071266    0.777017
 N    0.087925    0.696658    0.242330
 C   -0.702480   -0.055170   -0.713209
 C   -2.186414   -0.092263   -0.316924
 N   -2.714402    1.085181    0.055793
 O   -2.866513   -1.101413   -0.402961
 C    0.119863    0.126471    1.583394
 C    0.882829   -1.210036    1.505606
 C    0.152515   -2.131333    0.515156
 C   -0.118961   -1.476053   -0.841914
 N    2.300773   -0.952378    1.263338
 S    3.862704    0.152358   -0.533778
 O    2.544874   -0.632071   -0.127300
 O    4.933220   -0.898109   -0.171534
 O    4.027853    1.323982    0.284896
 O    3.660089    0.356381   -1.912406
 N   -5.552508   -1.169627   -0.470511
 C   -6.086277    0.158504   -0.062474
 C   -5.071225    1.258192   -0.359660
 O   -3.994119    1.114054    0.582463
 H    1.156219    1.749188   -1.170215
 H   -0.649285    0.433837   -1.693624
 H   -2.192295    1.945422    0.166892
 H   -0.897031   -0.049208    1.934848
 H    0.629874    0.814883    2.256247
 H    0.867407   -1.662069    2.502216
 H    0.736945   -3.036624    0.351546
 H   -0.792089   -2.430061    0.972642
 H   -0.824984   -2.091622   -1.400116
 H    0.805651   -1.409211   -1.413686
 H    2.857355   -1.783480    1.454808
 H    2.779600    2.103778    0.574487
 H    5.837733   -0.581984   -0.219880
 H   -5.718676   -1.350041   -1.466495
 H   -5.987939   -1.927508    0.064464
 H   -4.490501   -1.195499   -0.314513
 H   -7.026440    0.364886   -0.574183
 H   -6.263661    0.152621    1.014473
 H   -4.697179    1.202272   -1.385607
 H   -5.535171    2.236452   -0.201976
