38 
4x69_ligand_xtb.xyz
 C   -0.160510    2.321595   -0.507127
 O    0.858238    2.709190    0.033218
 N   -0.833802    1.215492   -0.138538
 C   -1.529619    0.407253   -1.121843
 C   -2.746028   -0.303037   -0.480252
 N   -3.625282    0.572868    0.037468
 O   -2.872891   -1.502515   -0.466755
 C   -0.359026    0.455868    1.007447
 C    0.694555   -0.562953    0.564645
 C    0.130423   -1.429465   -0.570540
 C   -0.523382   -0.608617   -1.686865
 N    1.924677    0.132747    0.125881
 S    4.319124   -0.439059    0.271065
 O    3.021677   -0.132504    1.056314
 O    4.811828    0.930456   -0.237797
 O    5.274624   -1.122628    1.019461
 O    3.837572   -1.128142   -0.991515
 C   -6.938861   -0.639591    0.955439
 C   -5.797727   -0.362147   -0.005163
 O   -4.724821    0.172830    0.781133
 H   -0.627850    2.862452   -1.341309
 H   -1.891069    1.057002   -1.925815
 H   -3.495101    1.574794    0.001431
 H   -1.209479   -0.061822    1.455027
 H    0.054542    1.156031    1.736888
 H    0.963768   -1.202053    1.410176
 H   -0.633292   -2.080874   -0.143122
 H    0.913649   -2.062903   -0.989958
 H   -1.047158   -1.287082   -2.359438
 H    0.232877   -0.062970   -2.255650
 H    1.763354    1.160468    0.173651
 H    2.915258   -0.819699   -1.173690
 H    5.633693    1.294515    0.109785
 H   -6.617096   -1.343781    1.716557
 H   -7.253297    0.279770    1.440902
 H   -7.777559   -1.061245    0.410407
 H   -5.466085   -1.282972   -0.496403
 H   -6.093068    0.370636   -0.767069
