38 
4x69_ligand_dft.xyz
 C    0.295714    2.580645    0.477818
 O   -0.700334    3.054206   -0.064702
 N    0.893900    1.424210    0.083212
 C    1.415804    0.521139    1.122816
 C    2.602720   -0.298769    0.576295
 N    3.600826    0.466809    0.066010
 O    2.631087   -1.510769    0.649596
 C    0.394697    0.747222   -1.112584
 C   -0.768197   -0.191186   -0.773761
 C   -0.428857   -1.086013    0.420928
 C    0.263250   -0.376171    1.591702
 N   -1.979870    0.722794   -0.555538
 S   -4.078036   -0.752747   -0.196983
 O   -3.980132   -0.586138   -1.620493
 O   -5.341825    0.025971    0.324133
 O   -3.917947   -1.993156    0.496369
 O   -2.893240    0.301284    0.421707
 C    6.683872   -1.168074   -0.866130
 C    5.693928   -0.540320    0.089606
 O    4.563461   -0.132072   -0.708447
 H    0.776218    3.070558    1.335621
 H    1.772967    1.138737    1.954636
 H    3.460035    1.442022   -0.163416
 H    1.204192    0.143831   -1.533305
 H    0.126370    1.500426   -1.857608
 H   -1.035026   -0.809897   -1.634318
 H    0.259819   -1.838444    0.023181
 H   -1.313690   -1.625287    0.765580
 H    0.645558   -1.133679    2.278627
 H   -0.450160    0.245310    2.146820
 H   -2.499643    0.817493   -1.441942
 H   -1.668574    1.694769   -0.271065
 H   -5.715401   -0.404835    1.116195
 H    6.242471   -2.037078   -1.360942
 H    7.000314   -0.449960   -1.627421
 H    7.567994   -1.497418   -0.313167
 H    5.351953   -1.255800    0.843702
 H    6.113024    0.341066    0.589309
