69 
4x7h_ligand_dft.xyz
 N    6.528245    0.595704   -2.627973
 N   -1.539887   -0.246176   -0.004301
 C    6.973874    0.234241   -1.393337
 C    6.113515   -0.084825   -0.317503
 C    6.655347   -0.452774    0.943051
 C    5.226435    0.640578   -2.800676
 C    4.266277    0.346345   -1.811206
 C   11.127424    0.039201   -0.688471
 C    1.905078    0.992830    0.526349
 C   -0.152822   -0.150479    0.131994
 C   -2.466348    0.755096    0.090109
 C   -4.243610   -1.100812   -0.380278
 C   -7.247501    0.612166   -0.976454
 C   -6.467753   -2.207719   -0.199514
 C   -7.060935   -4.477915   -0.707499
 C   -8.282711   -3.263317    0.974450
 C   -5.224666    2.455667    0.208935
 O   10.206951   -0.262342    0.336458
 C    8.894192   -0.178734    0.036351
 C    8.378267    0.177383   -1.181827
 C    8.011694   -0.501558    1.125032
 O    8.637545   -0.837034    2.274439
 C    7.828410   -1.166832    3.379876
 C    4.719866   -0.017017   -0.564585
 O    3.917785   -0.335023    0.491590
 C    2.551358   -0.223061    0.341055
 C    0.524185    1.043133    0.421984
 C    1.794123   -1.350730    0.059502
 N    0.468171   -1.319624   -0.042176
 O   -2.202986    1.927388    0.325094
 C   -3.855453    0.283486   -0.129604
 O   -3.557607   -2.110068   -0.491368
 N   -5.635996   -1.082522   -0.435695
 C   -6.257735   -3.367975   -0.942888
 C   -8.078753   -4.428688    0.241386
 C   -7.471899   -2.152932    0.767166
 N   -6.110534    0.198529   -0.147700
 C   -5.005636    1.015563   -0.022800
 C   -4.573006    3.429005   -0.544776
 C   -4.865873    4.764482   -0.293402
 N   -5.734087    5.177604    0.632997
 C   -6.344371    4.237246    1.355355
 C   -6.131932    2.873730    1.184027
 H   -1.886790   -1.188258   -0.198412
 H    5.971405   -0.691636    1.747117
 H    4.882181    0.929275   -3.792507
 H    3.209139    0.406126   -2.039602
 H   11.015071   -0.643981   -1.539861
 H   11.011448    1.072872   -1.038250
 H   12.117060   -0.087205   -0.248516
 H    2.482253    1.884336    0.750467
 H   -6.970525    0.618374   -2.036530
 H   -8.071762   -0.084195   -0.818691
 H   -7.558960    1.608677   -0.667076
 H   -6.892751   -5.385319   -1.278936
 H   -9.066940   -3.219012    1.723836
 H    9.008622    0.427511   -2.025940
 H    7.190235   -0.323778    3.674901
 H    7.196711   -2.039191    3.167813
 H    8.514381   -1.404681    4.193461
 H   -0.028699    1.960992    0.559880
 H    2.281829   -2.311952   -0.083994
 H   -5.463707   -3.397722   -1.678611
 H   -8.708101   -5.296439    0.411516
 H   -7.602988   -1.251403    1.357185
 H   -3.842968    3.153695   -1.295332
 H   -4.373569    5.545416   -0.867706
 H   -7.040764    4.590564    2.112365
 H   -6.650948    2.150278    1.804834
