43 
4x7i_ligand_xtb.xyz
 O   -1.909096   -1.306501   -0.377394
 C    0.240819    0.605049   -0.173994
 C    1.532874    1.108460   -0.180569
 C    2.350512   -2.232157    0.097950
 N    5.130032   -0.606905    2.309730
 C    2.763314    0.240116   -0.391635
 C    3.725107    0.840491   -1.473082
 C    3.620985   -1.360648   -1.963923
 C    2.471795   -1.161165   -0.965738
 F   -8.110476   -0.501784    0.249090
 C   -6.773999   -0.512265    0.144704
 C   -6.062925    0.669006    0.316972
 N   -4.750082    0.706812    0.222954
 C   -6.108654   -1.695535   -0.133506
 C   -4.729328   -1.643062   -0.229135
 C   -4.091623   -0.419766   -0.043717
 C   -2.597895   -0.334380   -0.141494
 N   -2.157495    0.933313    0.064351
 C   -0.858906    1.428814    0.059353
 C   -0.669308    2.788074    0.299954
 C    0.609727    3.304397    0.325105
 C    1.683728    2.465766    0.096604
 F    2.926095    3.006720    0.166887
 N    3.413670    0.183421    0.914053
 O    3.816298   -0.085439   -2.526867
 S    3.919517   -2.460474    1.000591
 C    4.224509   -0.784983    1.448731
 H    0.053429   -0.440719   -0.342622
 H    2.125267   -3.199771   -0.346921
 H    1.575622   -1.977218    0.821525
 H    5.314232    0.359596    2.560766
 H    4.713441    1.007439   -1.019447
 H    3.367406    1.778921   -1.897623
 H    4.528929   -1.705017   -1.448138
 H    3.378085   -2.052042   -2.769975
 H    1.544058   -1.118905   -1.541822
 H   -6.567795    1.599608    0.534840
 H   -6.659597   -2.613356   -0.267392
 H   -4.136245   -2.518163   -0.442109
 H   -2.905264    1.597232    0.246944
 H   -1.517912    3.431254    0.476138
 H    0.790520    4.348579    0.523953
 H    3.648091    1.107488    1.259641
