61 
4x8g_ligand_dft.xyz
 C    7.829117   -0.480177   -0.278293
 C    6.938466    0.561039   -0.460686
 C    4.358502    1.015392   -0.328303
 C   -1.480337   -0.292385   -0.535562
 C   -2.319857    1.926385    0.064106
 C    7.355450   -1.753175    0.097558
 C    5.579061    0.288104   -0.259781
 C   -2.541722    0.594505   -0.353277
 C   -0.195419    0.169982   -0.268757
 C    0.017935    1.493731    0.171634
 C   -1.048980    2.392129    0.338375
 C    3.347299    0.132288   -0.014113
 C    5.237764   -1.033716    0.107399
 C    1.912802    0.382875   -0.015544
 C   -3.922221    0.195110   -0.654757
 C   -5.110972   -1.721924    1.672590
 C   -6.457246   -2.120452    1.051298
 C   -3.957361   -1.893532    0.677407
 C   -5.475003   -1.597347   -1.211333
 C   -6.711745   -1.477382   -0.315338
 C    2.899566   -3.218651   -0.616393
 C    2.066005    2.751518    0.925126
 C   -0.666217    4.616706   -0.275057
 C    3.191421   -2.358028    0.606446
 N    6.077315   -2.052608    0.294168
 N    1.002898   -0.491618   -0.380480
 N    1.373549    1.609400    0.344492
 N    3.877260   -1.118133    0.256131
 N   -4.264010   -1.138053   -0.543430
 N   -7.037094    0.002781   -0.186404
 O   -4.772443    1.027649   -1.029473
 O   -0.849054    3.671811    0.775204
 H    8.893825   -0.331902   -0.420146
 H    7.280601    1.550966   -0.747715
 H    4.233663    2.047064   -0.623430
 H   -1.631771   -1.300806   -0.905266
 H   -3.159127    2.603871    0.175998
 H    8.062175   -2.566712    0.242528
 H   -5.129339   -0.675702    2.008002
 H   -4.930818   -2.329743    2.563933
 H   -7.287713   -1.910034    1.735779
 H   -6.470149   -3.204075    0.885716
 H   -3.023737   -1.530152    1.104607
 H   -3.818492   -2.947495    0.411354
 H   -5.600265   -1.049003   -2.147819
 H   -5.340438   -2.654824   -1.462377
 H   -7.575768   -1.945963   -0.792313
 H    3.830255   -3.473398   -1.130958
 H    2.236573   -2.685281   -1.301877
 H    2.412316   -4.149141   -0.307419
 H    2.386029    3.451667    0.147670
 H    1.387258    3.261671    1.606677
 H    2.943270    2.396660    1.466350
 H    0.219601    4.372815   -0.875296
 H   -0.528733    5.586591    0.203523
 H   -1.544726    4.647313   -0.930046
 H    2.269245   -2.098758    1.128218
 H    3.849993   -2.886776    1.299412
 H   -6.167904    0.569821   -0.497123
 H   -7.308224    0.264313    0.763765
 H   -7.802902    0.270995   -0.807405
