20 
4x8t_ligand_xtb.xyz
 C    2.098135   -1.547250   -0.276408
 C    1.576947    1.279072   -0.095287
 C    0.446828    0.307512   -0.076193
 N    2.796149    0.736429    0.137845
 C    0.681400   -1.065819   -0.159039
 C   -0.849475    0.798534    0.010436
 O    1.433773    2.464875   -0.317853
 C   -0.400104   -1.933347   -0.151528
 C   -1.912491   -0.086189    0.021523
 C    3.005625   -0.634022    0.543277
 C   -1.695122   -1.453679   -0.058837
Cl   -3.528240    0.514856    0.134985
 H    2.401480   -1.510120   -1.327291
 H    2.188585   -2.577817    0.067317
 H    3.565759    1.386038    0.200039
 H   -0.999959    1.865626    0.064429
 H   -0.230881   -2.998191   -0.216972
 H    4.055009   -0.890599    0.384022
 H    2.778425   -0.756224    1.612765
 H   -2.532020   -2.134157   -0.048811
