19 
4x8u_ligand_dft.xyz
 C    9.462362   34.773431   29.146503
 C    9.334807   34.406431   27.783263
 N    9.152492   36.100396   29.246994
 C    9.845922   33.851845   30.128786
 C    8.933276   35.576795   27.070420
 C    9.598692   33.080937   27.395999
 C    8.834149   36.582469   27.997219
 C   10.100290   32.556396   29.728754
 C    9.974552   32.186564   28.373357
 C    8.467240   37.994277   27.876816
Cl   10.312204   30.524167   27.933698
 O    8.177448   38.355319   26.617253
 O    8.428890   38.759281   28.817605
 H    9.143074   36.673420   30.076469
 H    9.941558   34.140278   31.170563
 H    8.740825   35.672480   26.012065
 H    9.509839   32.769529   26.361044
 H   10.400009   31.808944   30.454691
 H    7.950374   39.298043   26.649503
