25 
4xaq_ligand_dft.xyz
 O   -2.762196    0.553872   -1.145690
 C   -1.065546    1.316184    1.064472
 O    3.683030   -0.422586    0.675063
 C   -0.245664    2.152642    0.061527
 C   -1.090255   -0.100623    0.454386
 C    0.696090    1.160092   -0.600302
 C    2.714611   -0.359975   -0.243269
 C    1.467611    0.242385    0.317584
 C    0.184776   -0.226330   -0.354647
 O    2.821572   -0.738729   -1.383783
 N   -1.132474   -1.169399    1.540296
 C   -2.290324   -0.314739   -0.473037
 O   -2.690559   -1.598574   -0.457571
 H   -2.071492    1.713114    1.215294
 H   -0.569286    1.284598    2.041534
 H    4.473454   -0.792901    0.246304
 H   -0.909621    2.571336   -0.698357
 H    0.277013    2.976702    0.553267
 H    1.147230    1.394872   -1.557749
 H    1.496306    0.470899    1.380133
 H    0.270996   -1.002042   -1.109898
 H   -0.237580   -1.191308    2.040355
 H   -1.881231   -1.003521    2.220797
 H   -1.297620   -2.092555    1.121650
 H   -3.413425   -1.713082   -1.099831
