29 
4xas_ligand_dft.xyz
 O    2.761789   -1.577154   -1.071087
 C    0.370747    3.197804   -0.707247
 O   -3.227917   -1.349520    0.648032
 C    0.521577    2.764378    0.725482
 C   -1.201358   -0.206110    0.155368
 C    0.058475    1.782968   -0.340201
 C    0.922537    0.611229   -0.763579
 C    1.423119   -0.266038    0.355331
 C    0.157015   -0.630805   -0.404815
 O   -2.408789   -1.508581   -1.452625
 C   -2.332812   -1.111475   -0.327355
 N   -1.196397   -0.207136    1.681125
 C    2.625315   -1.139405    0.189499
 O    3.371058   -1.412501    1.093429
 C   -1.371639    1.251314   -0.330648
 H    3.560088   -2.130106   -1.107716
 H   -0.455808    3.854560   -0.960546
 H    1.277835    3.378024   -1.274973
 H   -3.950953   -1.891753    0.285783
 H   -0.205986    3.146286    1.438855
 H    1.528900    2.655955    1.117540
 H    1.486882    0.652682   -1.688789
 H    1.374270    0.136025    1.363397
 H    0.176491   -1.510696   -1.037561
 H   -0.667659    0.600741    2.028096
 H   -2.156925   -0.163541    2.040270
 H   -0.760893   -1.056956    2.054577
 H   -2.076921    1.835216    0.272836
 H   -1.761528    1.202406   -1.352657
