29 
4xas_ligand_xtb.xyz
 O    2.824748   -1.412263   -1.162193
 C    0.338544    3.205845   -0.651920
 O   -3.275231   -1.346147    0.488146
 C    0.685951    2.804555    0.750927
 C   -1.185055   -0.244183    0.221401
 C    0.094845    1.800922   -0.199464
 C    0.909134    0.642769   -0.708353
 C    1.397557   -0.310045    0.352667
 C    0.138186   -0.610729   -0.431834
 O   -2.450009   -1.194072   -1.593550
 C   -2.362427   -0.992215   -0.426355
 N   -1.172598   -0.549102    1.703518
 C    2.596868   -1.176906    0.125041
 O    3.252215   -1.617011    1.028409
 C   -1.327436    1.273925   -0.007712
 H    3.614258   -1.964686   -1.283981
 H   -0.517003    3.844544   -0.804749
 H    1.142536    3.384097   -1.347228
 H   -4.041972   -1.777678    0.073778
 H    0.072362    3.187565    1.552844
 H    1.729812    2.710957    1.007066
 H    1.487395    0.758615   -1.610975
 H    1.338504    0.003059    1.387328
 H    0.142970   -1.443899   -1.118072
 H   -0.788949    0.245970    2.228467
 H   -2.145906   -0.734948    1.997964
 H   -0.600618   -1.382643    1.895763
 H   -1.869426    1.771217    0.797249
 H   -1.886553    1.433853   -0.932964
