63 
4xbb_ligand_xtb.xyz
 C    0.655541    0.404568    0.258310
 C    1.817417    1.289369    0.738833
 C    1.552329    2.788352    0.561290
 C    1.398636    3.170250   -0.911702
 C    1.192099    4.674743   -1.066259
 C    2.346175    5.450689   -0.441636
 C    2.485069    5.083375    1.031415
 C    2.704118    3.581663    1.183713
 C    0.980490   -1.064124    0.535734
 C    3.513606   -3.120744   -1.287379
 C    4.779040   -2.414163   -0.977015
 C    6.845017   -1.693013   -0.435963
 C    4.938360   -0.895816   -1.053251
 C    2.994370   -3.266805    1.207371
 O   -1.735120    1.275734   -0.951306
 C   -1.692272    1.051790    0.233406
 O   -2.754600    1.124116    1.071625
 C   -4.013835    1.372158    0.469303
 C   -4.803239    0.110920    0.219450
 C   -4.237076   -1.148393    0.350716
 C   -4.991480   -2.282177    0.099621
 C   -6.315737   -2.177257   -0.283760
 C   -6.875586   -0.915825   -0.412488
Cl   -8.531186   -0.762438   -0.886700
 C   -6.134076    0.224903   -0.165209
 N   -0.574383    0.747780    0.927702
 N    1.928409   -1.568428   -0.267396
 C    2.442967   -2.927312   -0.196741
 C    5.979193   -2.871966   -0.599753
 N    6.263542   -0.581900   -0.684133
 O    4.097491   -0.101305   -1.373361
 O    2.022593   -3.800573    2.047676
 O    0.418520   -1.690498    1.419599
 H    0.484800    0.547537   -0.812914
 H    2.720365    1.023054    0.185453
 H    1.993980    1.081760    1.797837
 H    0.625407    3.043462    1.085958
 H    0.540711    2.654184   -1.344325
 H    2.295570    2.866185   -1.456610
 H    1.103615    4.924656   -2.125351
 H    0.257616    4.960575   -0.577779
 H    2.175000    6.524223   -0.545173
 H    3.273564    5.206494   -0.964574
 H    1.576698    5.373887    1.564513
 H    3.322262    5.625393    1.476471
 H    2.797772    3.328290    2.242527
 H    3.637175    3.301332    0.689119
 H    3.109904   -2.744375   -2.231503
 H    3.712149   -4.188260   -1.392425
 H    7.878309   -1.727846   -0.134338
 H    3.449369   -2.358157    1.636181
 H    3.771446   -4.031511    1.121136
 H   -3.853666    1.894263   -0.483776
 H   -4.558190    2.029272    1.153807
 H   -3.206403   -1.247339    0.654555
 H   -4.542227   -3.257940    0.205100
 H   -6.908984   -3.056267   -0.479551
 H   -6.587444    1.198478   -0.271567
 H   -0.683066    0.417063    1.875816
 H    2.378491   -0.940032   -0.921939
 H    1.614690   -3.622257   -0.395064
 H    6.300493   -3.882180   -0.436235
 H    1.269960   -3.175565    2.063444
