57 
4xbd_ligand_dft.xyz
 O    2.500270   -0.601890    2.044218
 C    2.569207   -1.592649    1.340901
 O    3.249986   -2.709355    1.674724
 C    3.915187   -2.646253    2.930776
 N    2.019157   -1.729653    0.104913
 C    1.003706   -0.813008   -0.365308
 C    1.394638   -0.108744   -1.682583
 C    2.303806    1.121509   -1.554290
 C    3.675780    0.840894   -0.926361
 C    4.557506    2.093614   -0.956235
 C    3.874558    3.265941   -0.245045
 C    2.488493    3.540615   -0.835720
 C    1.617827    2.280904   -0.816750
 C   -0.286088   -1.608666   -0.590153
 N   -1.415197   -0.884357   -0.527957
 C   -2.758727   -1.447925   -0.642110
 C   -3.793844   -0.358088   -0.335708
 C   -3.567324    0.378985    1.007167
 C   -4.848085    0.836521    1.732298
 C   -5.007916    2.326146    1.373394
 N   -3.643208    2.715786    1.067262
 C   -2.811261    1.690124    0.774365
 O   -1.668230    1.807930    0.348458
 O   -2.627499   -3.427099   -2.101339
 O   -0.242694   -2.815514   -0.843643
 C   -3.028688   -2.089824   -2.018471
 H    3.201610   -2.470553    3.739759
 H    4.398011   -3.615765    3.054285
 H    4.660598   -1.846875    2.935457
 H    1.951060   -2.669390   -0.266054
 H    0.840654   -0.072243    0.422097
 H    0.473025    0.210843   -2.186097
 H    1.863757   -0.858125   -2.332527
 H    2.483331    1.459708   -2.587808
 H    4.167839    0.010017   -1.447106
 H    3.540065    0.532591    0.117011
 H    4.761804    2.371597   -2.000582
 H    5.527026    1.882438   -0.490029
 H    4.499158    4.165371   -0.305196
 H    3.766544    3.022894    0.821159
 H    2.600611    3.888054   -1.873150
 H    1.993432    4.348826   -0.284370
 H    1.433454    1.997714    0.228405
 H    0.636115    2.486826   -1.260396
 H   -1.329803    0.102934   -0.276144
 H   -2.862232   -2.248092    0.104043
 H   -3.826248    0.359970   -1.166576
 H   -4.772859   -0.846898   -0.308720
 H   -2.960301   -0.259022    1.657384
 H   -5.728507    0.253321    1.452584
 H   -4.712863    0.737801    2.812974
 H   -5.661628    2.471235    0.503723
 H   -5.408269    2.913798    2.203786
 H   -3.367782    3.662727    0.851831
 H   -1.716551   -3.462131   -1.754629
 H   -4.108796   -2.080109   -2.207849
 H   -2.554841   -1.455033   -2.787130
