47 
4xbo_ligand_xtb.xyz
 N    2.885463    0.214618   -1.135913
 C    3.029035   -0.700362    0.021898
 C    2.432427   -2.082592   -0.271329
 C    0.920421   -2.154638   -0.107298
 S    0.010961   -1.077011   -1.292250
 C    4.543113   -0.831526    0.241623
 O    4.853336   -1.466123    1.343728
 O    5.313770   -0.388633   -0.569216
 C   -1.532208   -2.007585   -1.503584
 C   -2.592881   -1.687663   -0.450319
 O   -2.027351   -1.586722    0.850097
 C   -3.364490   -0.382863   -0.714855
 O   -4.560956   -0.700253   -1.365140
 C   -3.603071    0.179033    0.708313
 O   -4.792709   -0.294111    1.256367
 C   -2.400777   -0.383893    1.480285
 N   -1.250799    0.503305    1.465807
 C   -0.094209    0.212245    2.135166
 N    0.942143    0.888814    1.743012
 C    0.463436    1.710393    0.753027
 C    1.059515    2.597166   -0.140796
 N    2.452427    2.723921   -0.230618
 N    0.316005    3.221342   -1.036423
 C   -0.986668    2.976028   -1.070372
 N   -1.658363    2.113048   -0.334848
 C   -0.919050    1.480129    0.569095
 H    3.778460    0.144952   -1.661787
 H    2.769714    1.248658   -0.822460
 H    2.082527   -0.055154   -1.717592
 H    2.550440   -0.266148    0.910274
 H    2.713655   -2.390344   -1.281019
 H    2.866464   -2.796477    0.431591
 H    0.587484   -3.172280   -0.303690
 H    0.621207   -1.873457    0.900387
 H    5.814325   -1.557873    1.466865
 H   -1.264638   -3.063084   -1.478562
 H   -1.912344   -1.755728   -2.493170
 H   -3.320611   -2.512715   -0.451317
 H   -2.755487    0.322709   -1.294553
 H   -5.002751    0.108934   -1.650183
 H   -3.598213    1.274665    0.723777
 H   -5.260170   -0.811039    0.579661
 H   -2.659749   -0.604439    2.521585
 H   -0.069445   -0.525283    2.914005
 H    2.903580    2.766483    0.677101
 H    2.711119    3.509069   -0.820599
 H   -1.555327    3.528899   -1.803232
