76 
4xcb_ligand_dft.xyz
 C   -2.341003   -2.203960    0.674159
 C   -2.615180   -2.202400   -0.838245
 C   -4.015943   -1.612754   -1.169984
 C   -4.604883   -0.849202    0.024305
 C   -3.551331    0.064947    0.639672
 C   -2.386571   -0.767507    1.229630
 N   -1.505034   -1.473201   -1.545599
 O   -3.349096   -3.018783    1.211991
 N   -5.772155    0.021398   -0.349473
 C   -7.048352   -0.689835   -0.676351
 O   -4.205731    0.875268    1.580561
 C    0.727150    1.183472    1.076750
 C   -0.714070    0.929847    1.530112
 O   -1.539017    2.047014    1.261624
 C   -1.155827    2.960188    0.225504
 C   -0.465806    2.259402   -0.956501
 C    0.812049    1.614654   -0.405035
 O   -1.138156   -0.217020    0.861390
 C   -2.375293    3.778401   -0.167838
 O   -3.271780    2.996508   -0.968818
 O   -1.304870    1.312766   -1.596079
 O    1.152395    0.397828   -1.059733
 C    1.982263   -0.249856   -0.170584
 C    2.121135   -1.734061   -0.483867
 C    3.108543   -2.372303    0.493540
 C    4.460104   -1.649515    0.437178
 C    4.248383   -0.138942    0.602725
 O    3.266510    0.332529   -0.307060
 O    1.481106   -0.018825    1.114934
 O    0.881565   -2.414847   -0.417719
 O    3.240337   -3.710489    0.054210
 O    5.073144   -1.875708   -0.818462
 C    5.523650    0.677387    0.344001
 C    5.471609    2.141450    0.789115
 O    4.642144    2.833669   -0.120926
 N    5.799403    0.670143   -1.135140
 H   -1.336403   -2.599281    0.864196
 H   -2.564817   -3.234277   -1.189202
 H   -4.677467   -2.431757   -1.458895
 H   -3.935946   -0.942542   -2.037200
 H   -4.987984   -1.544302    0.772984
 H   -3.132507    0.685043   -0.160239
 H   -2.501848   -0.802380    2.321779
 H   -1.459078   -0.444722   -1.363148
 H   -0.575231   -1.836781   -1.232416
 H   -1.569083   -1.601435   -2.558488
 H   -3.078094   -3.370215    2.069865
 H   -5.893991    0.641710    0.467904
 H   -5.511820    0.644084   -1.120845
 H   -6.905150   -1.290468   -1.574110
 H   -7.316666   -1.324746    0.168100
 H   -7.827706    0.053337   -0.846104
 H   -3.620639    1.624479    1.776829
 H    1.179705    1.928654    1.736270
 H   -0.781240    0.771713    2.612553
 H   -0.436462    3.678965    0.646366
 H   -0.183812    3.025870   -1.688131
 H    1.635912    2.326773   -0.518109
 H   -2.879257    4.130529    0.739022
 H   -2.030343    4.652220   -0.732082
 H   -3.873081    3.607936   -1.414601
 H   -2.128068    1.803419   -1.784982
 H    2.533884   -1.797988   -1.497254
 H    2.691592   -2.316391    1.506883
 H    5.107902   -2.011380    1.248579
 H    3.934235    0.051520    1.636953
 H    1.111422   -3.358599   -0.463989
 H    3.486177   -4.287648    0.789910
 H    5.028212   -2.823577   -1.020543
 H    6.361979    0.177621    0.837008
 H    6.491110    2.549437    0.793408
 H    5.091699    2.186465    1.817433
 H    4.836945    3.778192   -0.069236
 H    5.133264    1.318387   -1.575474
 H    5.666707   -0.291746   -1.496692
 H    6.748292    0.989749   -1.349835
