59 
4xcu_ligand_xtb.xyz
 O    7.777480    1.978510   -0.130597
 C    6.748160    1.938188    0.503229
 C    6.412562    2.936291    1.601876
 C    6.590526    2.302915    2.981813
 N    5.777857    0.993084    0.349920
 C    5.717202   -0.072033   -0.554175
 C    6.581148   -0.192470   -1.634232
 C    6.427165   -1.247255   -2.514727
 C    5.425087   -2.180216   -2.327114
 C    4.559583   -2.093993   -1.243124
 C    3.495103   -3.123480   -1.034957
 C    4.712114   -1.032329   -0.354071
 N    3.891011   -0.906546    0.792525
 C    2.546710   -0.763322    0.800995
 N    2.004884   -0.729380    2.049420
 C    0.716429   -0.569936    2.127217
 C   -0.108629   -0.429745    0.989382
 C   -1.500664   -0.256467    1.034852
 N    1.896916   -0.634406   -0.333851
 C    0.564671   -0.468640   -0.262777
 C   -0.192812   -0.332160   -1.444375
 C   -1.545423   -0.161110   -1.371649
 C   -2.214576   -0.120802   -0.129530
 C   -3.678440    0.070182   -0.098070
 C   -4.516154   -0.896799    0.447343
Cl   -3.861187   -2.364471    1.076691
 C   -4.253954    1.225997   -0.615095
Cl   -3.257711    2.477979   -1.263781
 C   -5.637554    1.424719   -0.594901
 O   -6.085185    2.589325   -1.120454
 C   -7.468498    2.846155   -1.131952
 C   -6.451748    0.438747   -0.047363
 C   -5.903594   -0.727191    0.476993
 O   -6.620771   -1.735933    1.026076
 C   -8.022139   -1.623829    1.084728
 H    5.387888    3.293459    1.479339
 H    7.092604    3.782264    1.499224
 H    5.901481    1.473450    3.129501
 H    7.606107    1.930851    3.093942
 H    6.406642    3.041020    3.758974
 H    4.962679    1.067699    0.944838
 H    7.357660    0.539702   -1.775260
 H    7.096516   -1.337123   -3.356738
 H    5.314787   -2.999007   -3.022616
 H    2.527128   -2.707779   -1.314001
 H    3.688612   -4.003629   -1.642350
 H    3.438474   -3.418695    0.011703
 H    4.317774   -0.990940    1.704583
 H    0.291904   -0.546879    3.124621
 H   -1.996246   -0.220201    1.994130
 H    0.325069   -0.365923   -2.389783
 H   -2.129244   -0.064066   -2.274736
 H   -8.010968    2.102649   -1.724509
 H   -7.880073    2.880178   -0.118191
 H   -7.578257    3.824504   -1.596532
 H   -7.518407    0.580192   -0.028016
 H   -8.332339   -0.766922    1.691117
 H   -8.461838   -1.545837    0.085366
 H   -8.367207   -2.541593    1.557723
