64 
4xg4_ligand_dft.xyz
 C    3.386517   -0.086928   -0.292447
 C    4.743624   -0.034722    0.000328
 C    5.259202    1.203574    0.366623
 N    4.520803    2.309866    0.452979
 N    2.659336    1.011094   -0.231181
 O   -2.130516   -3.740880    1.513853
 C   -2.391149   -2.377384    1.787354
 C   -1.240412   -1.599634    1.180957
 C   -3.585508   -1.848908    0.989043
 C   -3.057168   -1.810864   -0.442822
 N   -1.562344   -1.565044   -0.298637
 C   -0.732949   -2.533956   -1.129229
 C    0.723398   -2.308800   -0.916881
 C    1.346472   -1.102959   -1.059358
 C    1.681250   -3.237714   -0.374736
 C    1.431654   -4.678562   -0.048980
 C    2.848982   -2.542735   -0.216758
 N    2.643576   -1.232593   -0.625647
 F    5.525541   -1.120578   -0.051783
 C    3.228914    2.151811    0.141268
 N    2.374885    3.230289    0.227399
 C    0.975372    2.954061    0.195769
 C    0.232454    2.855788    1.369068
 C   -1.073062    2.364068    1.348171
 C   -1.887404    2.258156    2.612105
 C    0.396267    2.603115   -1.018951
 C   -0.887811    2.065918   -1.079122
 C   -1.467217    1.625635   -2.403190
 C   -1.598786    1.938045    0.121911
 O   -2.837581    1.317051    0.108702
 C   -3.923543    2.184579   -0.215231
 C   -5.128766    1.350623   -0.577800
 O   -4.817529    0.588664   -1.731770
 H    6.316780    1.289071    0.603166
 H   -2.814596   -4.284108    1.924284
 H   -2.474617   -2.185510    2.863117
 H   -1.216964   -0.568197    1.536433
 H   -0.267528   -2.065003    1.330301
 H   -3.834340   -0.838435    1.326080
 H   -4.473352   -2.479733    1.079366
 H   -3.496248   -1.017382   -1.049620
 H   -3.171759   -2.775526   -0.938110
 H   -1.363396   -0.617418   -0.630537
 H   -1.057617   -2.379590   -2.162622
 H   -1.036882   -3.531117   -0.805268
 H    0.977337   -0.134668   -1.360734
 H    1.210807   -5.262759   -0.949299
 H    0.581810   -4.789155    0.635491
 H    2.305238   -5.127615    0.429953
 H    3.808563   -2.861326    0.159589
 H    2.722002    4.018662    0.755242
 H    0.691678    3.118216    2.318517
 H   -2.467969    1.330803    2.640967
 H   -1.246914    2.295588    3.496989
 H   -2.602208    3.085451    2.690019
 H    0.989240    2.687256   -1.924818
 H   -0.743045    1.029608   -2.970028
 H   -2.387420    1.048183   -2.282375
 H   -1.713326    2.493576   -3.025068
 H   -3.649329    2.821810   -1.063858
 H   -4.158438    2.826119    0.643997
 H   -5.402141    0.698441    0.264677
 H   -5.967342    2.034359   -0.762609
 H   -5.638677    0.278392   -2.130414
