52 
4xg7_ligand_dft.xyz
 C   -3.093477   -0.166235   -0.038910
 C   -4.462047   -0.156500    0.165321
 C   -4.992080    1.117200    0.385835
 N   -4.271340    2.234885    0.418391
 N   -2.336198    0.915130   -0.023069
 C    4.135789    1.862177   -1.489041
 N    3.149336    1.887323   -0.429230
 N    3.488180    1.475110    0.814703
 C    2.446558    1.699394    1.594172
 C    1.373494    2.267770    0.855031
 C    0.036351    2.607302    1.125186
 C    1.881070    2.388677   -0.455343
 C    1.103419    2.904957   -1.507819
 C   -0.206100    3.215944   -1.217997
 C   -0.747957    3.046607    0.081461
 N   -2.154161    3.178425    0.271307
 C   -2.954666    2.075421    0.216961
 N   -2.348079   -1.346715   -0.278463
 C   -1.044650   -1.359294   -0.629625
 N   -2.845646   -2.583983   -0.068721
 C   -1.832934   -3.408350   -0.277472
 C   -2.004492   -4.888286   -0.149058
 C   -0.657845   -2.680400   -0.636274
 C    0.718731   -3.186834   -0.875421
 N    1.594659   -2.850068    0.304340
 C    1.922587   -1.392499    0.570660
 C    3.078863   -3.160576    0.278386
 C    3.375101   -1.799105    0.931248
 O    4.400655   -1.123464    0.306135
 H   -5.063659   -1.054440    0.150761
 H   -6.060270    1.239286    0.546822
 H    4.666263    0.908559   -1.459937
 H    3.624865    1.952815   -2.448829
 H    4.847751    2.684198   -1.378944
 H    2.492996    1.444847    2.644610
 H   -0.396212    2.473862    2.111217
 H    1.500514    3.035598   -2.508627
 H   -0.863811    3.573770   -2.003695
 H   -2.604005    4.073696    0.392648
 H   -0.527759   -0.432805   -0.830681
 H   -1.319202   -5.314197    0.592702
 H   -3.025051   -5.112735    0.165873
 H   -1.822340   -5.393651   -1.103454
 H    1.202716   -2.731693   -1.744198
 H    0.749464   -4.273751   -0.990880
 H    1.157249   -3.254069    1.135585
 H    1.269469   -0.931176    1.309500
 H    1.891628   -0.842212   -0.371712
 H    3.418237   -3.179926   -0.758887
 H    3.336200   -4.084416    0.795435
 H    3.512646   -1.880888    2.017305
 H    4.415529   -0.207942    0.659707
