52 
4xg8_ligand_xtb.xyz
 C   -1.332416    2.638469   -0.051864
 C   -1.559335    3.972303    0.249453
 C   -0.422407    4.688023    0.617548
 N    0.771992    4.146223    0.662919
 N   -0.138250    2.067225   -0.030208
 C   -4.714376   -3.516264    0.027029
 C   -5.658588   -3.226850    1.226925
 O   -5.127164   -3.599442    2.453260
 C   -5.369158   -1.736232    0.962350
 N   -4.225704   -2.108089    0.080377
 C   -4.041298   -1.352401   -1.186079
 C   -3.605316    0.039562   -0.893556
 C   -2.320186    0.463904   -0.612277
 C   -4.399581    1.215747   -0.814106
 C   -5.860720    1.371457   -1.030792
 N   -3.638654    2.243143   -0.509473
 N   -2.393486    1.789681   -0.389017
 C    0.886953    2.852879    0.319738
 N    2.142318    2.372888    0.383437
 C    2.675204    1.132700    0.027916
 C    3.937695    0.817868    0.497376
 C    4.492274   -0.400805    0.118176
 C    5.714645   -1.085965    0.362608
Cl    7.004389   -0.551667    1.326115
 N    5.739893   -2.237748   -0.264934
 N    4.583402   -2.365462   -0.926859
 C    4.338020   -3.525195   -1.732226
 C    3.784274   -1.285937   -0.734106
 C    2.514216   -0.957456   -1.206828
 C    1.978629    0.246518   -0.818683
 H   -2.544117    4.398769    0.206525
 H   -0.477716    5.732576    0.890707
 H   -5.237231   -3.710501   -0.907400
 H   -3.941539   -4.263860    0.195075
 H   -6.695858   -3.542389    1.098246
 H   -5.465836   -4.451013    2.749900
 H   -5.091842   -1.159245    1.841932
 H   -6.146758   -1.226692    0.398472
 H   -3.351777   -2.049862    0.610191
 H   -4.991964   -1.358417   -1.723079
 H   -3.289843   -1.878902   -1.779898
 H   -1.383610   -0.052663   -0.562303
 H   -6.213594    0.716994   -1.825014
 H   -6.414790    1.156146   -0.117098
 H   -6.065984    2.401882   -1.304152
 H    2.800081    3.044380    0.759438
 H    4.487493    1.492936    1.134299
 H    4.179717   -3.243416   -2.775160
 H    5.215598   -4.163255   -1.660471
 H    3.463489   -4.069885   -1.369891
 H    1.977448   -1.619074   -1.869188
 H    1.009579    0.550395   -1.176473
