56 
4xg9_ligand_dft.xyz
 C   -3.460046    0.412349    0.040646
 C   -4.793814    0.771570    0.125869
 C   -5.003990    2.153478    0.153272
 N   -4.036757    3.067251    0.100663
 N   -2.472606    1.285235   -0.014301
 C    2.216526   -3.142866    0.066889
 C    2.353819   -2.596162    1.510272
 O    3.487266   -1.839353    1.787893
 C    1.116373   -1.728119    1.233994
 N    0.860165   -2.485570   -0.059386
 C   -0.325863   -3.395044   -0.074744
 C   -1.581991   -2.590354   -0.024209
 C   -1.668889   -1.225877   -0.106169
 C   -2.928985   -3.036329    0.137523
 C   -3.422495   -4.439934    0.271322
 N   -3.760741   -2.007093    0.154953
 N   -2.983368   -0.917292    0.008420
 C   -2.791388    2.576105    0.013590
 N   -1.751171    3.464911   -0.043615
 C   -0.393312    3.064327    0.027046
 C    0.088158    2.088833   -0.834522
 C    1.389438    1.615767   -0.650637
 C    2.182870    0.598563   -1.266138
Cl    1.643064   -0.442370   -2.558258
 C    3.428026    0.582004   -0.687832
 C    4.612566   -0.266268   -1.001653
 N    3.448212    1.550732    0.292838
 C    4.529501    1.799195    1.224072
 C    2.219554    2.181220    0.340317
 C    1.756137    3.205165    1.171160
 C    0.445922    3.623788    1.012390
 H   -5.596996    0.049187    0.168144
 H   -6.016278    2.543678    0.222940
 H    2.170453   -4.220921   -0.094097
 H    2.914402   -2.670576   -0.625819
 H    2.172558   -3.363949    2.268631
 H    4.114630   -2.363752    2.299150
 H    1.374149   -0.691719    1.008016
 H    0.268858   -1.782250    1.916642
 H    0.814079   -1.864563   -0.879844
 H   -0.228425   -4.066840    0.785942
 H   -0.239400   -4.000477   -0.983681
 H   -0.942402   -0.434029   -0.215185
 H   -3.207106   -5.024979   -0.629602
 H   -2.953333   -4.948059    1.121537
 H   -4.502655   -4.438221    0.427527
 H   -1.997045    4.428265    0.132859
 H   -0.543048    1.685251   -1.616659
 H    4.387726   -0.920013   -1.848025
 H    5.475472    0.344830   -1.286679
 H    4.895319   -0.884168   -0.143110
 H    4.344412    1.303519    2.182631
 H    5.467306    1.429819    0.808526
 H    4.632069    2.874722    1.385877
 H    2.385037    3.648732    1.935966
 H    0.045161    4.385956    1.673807
