31 
4xhl_ligand_xtb.xyz
 C    0.309649    1.780549    0.189977
 N    0.984075    2.892780    0.180888
 C    2.318680    2.841689    0.095125
 C    3.024818    1.667471    0.022514
 C    2.952542   -0.829500   -0.046806
Cl    4.657838   -0.927915   -0.145104
 C    2.207043   -1.986276   -0.040949
 C    0.811565   -1.924033    0.033012
 C    0.183460   -0.709841    0.104177
 C    0.904131    0.500724    0.108514
 C    2.324402    0.445554    0.026522
 S   -1.582280   -0.707419    0.182520
 O   -2.110725   -2.038599    0.141459
 O   -2.098233    0.108003    1.282361
 N   -2.084607    0.112344   -1.206445
 C   -3.322226    0.864975   -1.158777
 C   -4.531764    0.068241   -0.634234
 N   -4.618015    0.161589    0.847022
 H   -0.762970    1.867068    0.276346
 H    2.815183    3.801250    0.090982
 H    4.100738    1.668712   -0.037277
 H    2.697296   -2.945066   -0.093965
 H    0.219740   -2.825791    0.038258
 H   -2.014465   -0.496899   -2.007110
 H   -3.524202    1.224270   -2.168405
 H   -3.151995    1.735975   -0.519823
 H   -4.410022   -0.982381   -0.905519
 H   -5.455632    0.444647   -1.076527
 H   -5.165614   -0.603223    1.248212
 H   -3.587996    0.110158    1.222444
 H   -5.019135    1.054988    1.143565
