80 
4xii_ligand_xtb.xyz
 C    3.574067    0.485786    0.337413
 C    2.485530    2.633417   -0.433190
 C    3.687194    1.724037   -0.561764
 C   -3.745413   -0.598315   -1.492631
 C   -0.488090   -3.689146    0.522042
 C   -2.617772   -2.340126    0.705173
 C   -0.813556   -1.560136   -0.697592
 C   -2.774482   -0.082795   -0.413290
 C    1.520998   -2.559566   -0.693484
 C    4.763832   -2.843888   -0.502255
 C   -7.584296   -0.192111   -0.919433
 C   -7.460360    1.042559   -0.025665
 C    0.444779    4.434436   -0.308897
 C    0.623543    3.555130    0.745464
 C   -6.333298   -0.400921   -1.776427
 C   -6.217616    0.976117    0.865289
 C    3.244580    0.965754    1.758523
 C    1.328601    4.361215   -1.374332
 C    1.659338    2.629897    0.691669
 C   -5.129640   -0.487503   -0.851353
 C   -5.001260    0.795176   -0.028226
 C    1.880980    1.650791    1.811039
 C    2.487322   -0.415166   -0.221606
 C   -3.637863    0.630393    0.646702
 C   -1.663796   -3.295468    1.417870
 C    0.198873   -2.398196    0.085469
 C    6.360235   -1.891565   -1.946855
 C    3.687015   -2.458769    0.517563
 N    2.320040    3.491682   -1.425832
 N   -1.910321   -1.141599    0.201754
 N    2.582391   -1.753396   -0.096246
 N    0.801691    0.635019    1.839104
 O    1.055861   -0.450448    2.313529
 O    1.499326    0.088147   -0.748941
 O   -0.309840    0.917408    1.436680
 O    4.853793    2.417091   -0.170149
 O    5.357205   -1.664256   -0.984831
 H    4.546499   -0.003527    0.321619
 H    3.764973    1.410145   -1.612263
 H   -3.697890    0.060299   -2.360138
 H   -3.514373   -1.603259   -1.838286
 H    0.198208   -4.321709    1.083711
 H   -0.837263   -4.253861   -0.344158
 H   -3.071459   -2.847646   -0.147272
 H   -3.410890   -2.032859    1.387309
 H   -0.312804   -0.671056   -1.086134
 H   -1.230535   -2.135329   -1.526050
 H   -2.068319    0.631084   -0.843886
 H    1.381593   -2.243924   -1.731086
 H    1.841597   -3.599990   -0.686048
 H    5.514893   -3.482767   -0.013722
 H    4.318174   -3.412933   -1.333557
 H   -7.740875   -1.074688   -0.295045
 H   -8.456215   -0.084859   -1.564925
 H   -8.352380    1.130850    0.595026
 H   -7.401201    1.935068   -0.651561
 H   -0.350407    5.162215   -0.297122
 H   -0.033541    3.589519    1.602625
 H   -6.211627    0.436825   -2.465387
 H   -6.434392   -1.312756   -2.367436
 H   -6.131739    1.890229    1.454400
 H   -6.302730    0.134587    1.556766
 H    4.008944    1.691711    2.038120
 H    3.268657    0.140099    2.471134
 H    1.248895    5.026750   -2.222716
 H   -5.284198   -1.330597   -0.169078
 H   -4.948623    1.643279   -0.717800
 H    1.770749    2.174465    2.771900
 H   -3.196003    1.579504    0.941854
 H   -3.748423    0.023649    1.546125
 H   -1.278126   -2.823627    2.324142
 H   -2.225477   -4.179808    1.718881
 H    0.460476   -1.864245    1.003108
 H    5.953526   -2.397180   -2.830035
 H    7.174330   -2.496966   -1.533787
 H    6.740527   -0.912726   -2.228548
 H    3.297883   -3.362966    0.990599
 H    4.138552   -1.839561    1.290750
 H   -1.449066   -0.647919    0.988452
 H    4.976046    3.164788   -0.765541
