56 
4xir_ligand_dft.xyz
 N    4.493223   -3.263272    0.512343
 C    0.152376    2.496079   -1.075544
 C   -1.066567    1.689031   -0.779290
 C   -2.401489    1.983761   -0.793209
 C   -3.085647    0.769158   -0.449208
 C   -2.147958   -0.218262   -0.236970
 C    0.607934   -1.527399   -0.825223
 C    2.596002   -0.190961    0.553903
 C    4.290473   -1.937524    0.314023
 C   -3.809041   -1.685466    0.910623
 C   -4.222407   -3.153875    1.053511
 C   -3.708063   -1.053203    2.307133
 C   -3.049921    3.297228   -1.097183
 O   -5.374178    1.363788   -0.395369
 C   -4.510561    0.511726   -0.267822
 C   -4.860379   -0.937675    0.063870
 C   -2.437441   -1.617074    0.197242
 N   -0.914917    0.338332   -0.442372
 C    0.342216   -0.276081   -0.283315
 C    1.353042    0.403824    0.414356
 C    2.874370   -1.466599    0.053799
 O    5.191423   -1.120678    0.410227
 C    1.853066   -2.120104   -0.642147
Cl    2.071469   -3.689511   -1.400708
 O    1.094507    1.596653    1.013366
 C    1.019849    2.760187    0.164883
 C    2.418982    3.243996   -0.199647
 C    3.258648    3.655244    1.009251
 C    4.700351    3.988749    0.632068
 H    3.779846   -3.957555    0.364712
 H    5.445989   -3.564884    0.648628
 H    0.760327    1.990157   -1.838829
 H   -0.138371    3.459305   -1.504299
 H   -0.150995   -2.036029   -1.407716
 H    3.382984    0.340478    1.077139
 H   -4.325148   -3.636507    0.074477
 H   -5.183858   -3.237508    1.572137
 H   -3.478937   -3.714784    1.632224
 H   -4.682504   -1.074554    2.807225
 H   -2.997288   -1.607216    2.931062
 H   -3.376104   -0.011404    2.259720
 H   -2.313069    4.051529   -1.390278
 H   -3.597400    3.670597   -0.226309
 H   -3.782647    3.194901   -1.902676
 H   -5.836239   -0.942146    0.559812
 H   -4.988287   -1.459464   -0.896735
 H   -2.456980   -2.289162   -0.673811
 H   -1.650855   -1.993377    0.863348
 H    0.517033    3.492018    0.804284
 H    2.930682    2.443506   -0.753402
 H    2.325030    4.088150   -0.896304
 H    2.789988    4.520665    1.496060
 H    3.245539    2.843924    1.745602
 H    5.201044    3.116719    0.196440
 H    5.276614    4.302779    1.507992
 H    4.739469    4.799476   -0.104670
