58 
4xit_ligand_dft.xyz
 N    0.541067    1.917795   -0.432294
 C   -2.601007   -1.267388   -0.927678
 C   -3.782707   -1.978019   -0.453225
 C   -3.509709   -3.026695    0.623992
 C   -2.340483   -2.697546    1.576147
 C   -1.063261   -2.444616    0.740394
 C   -2.097044   -3.886360    2.511545
 C    3.056424   -1.451486   -0.261438
 C    2.756061    0.911430   -0.102276
 C   -0.019298    2.367095   -1.705706
 C   -0.388205    3.724522    0.907621
 C   -0.822087    5.002991    0.752103
 C   -2.106441    5.072392    1.382081
 C    5.027149    0.156751    0.392271
Cl    3.963997   -2.950658   -0.127225
 C    1.716751   -1.586126   -0.611496
 C    3.606704   -0.194564   -0.003361
 N    6.031074   -0.636735   -0.054496
 O    5.243901    1.170115    1.037559
 C    1.406935    0.813445   -0.429473
 C    0.849045    3.006407    0.485042
 O   -1.313825    2.998862    1.586394
 C   -2.347072    3.827777    1.864287
 C   -0.405281    1.207636   -2.628211
 C   -1.166061    0.153523   -1.899247
 C    0.889660   -0.474721   -0.678709
 N   -0.481346   -0.632687   -0.969534
 C   -1.359756   -1.493556   -0.371338
 C   -2.672823   -1.455964    2.418488
 O   -4.908925   -1.784211   -0.881786
 C   -2.481112   -0.218715   -1.901082
 C   -3.595005    0.345982   -2.724793
 H   -3.292757   -3.970266    0.100359
 H   -4.438219   -3.181120    1.183164
 H   -0.705647   -3.404726    0.339171
 H   -0.263375   -2.058614    1.384386
 H   -1.253474   -3.688064    3.183361
 H   -2.980428   -4.080816    3.129988
 H   -1.873538   -4.799171    1.946896
 H    3.195609    1.878257    0.115608
 H    0.688927    3.034410   -2.229536
 H   -0.913784    2.954003   -1.474989
 H   -0.291458    5.798451    0.248078
 H   -2.757031    5.931179    1.458892
 H    1.308886   -2.569138   -0.815509
 H    6.964655   -0.403169    0.247033
 H    5.875577   -1.510701   -0.528389
 H    1.540298    3.748303    0.049904
 H    1.338432    2.577211    1.365047
 H   -3.170581    3.385704    2.403044
 H    0.495406    0.777957   -3.085614
 H   -1.009968    1.603946   -3.448187
 H   -3.596160   -1.615974    2.986311
 H   -1.868347   -1.249901    3.133914
 H   -2.806261   -0.564007    1.798312
 H   -4.073466   -0.433840   -3.324684
 H   -4.375784    0.767355   -2.084440
 H   -3.238494    1.132010   -3.397992
