53 
4xj0_ligand_dft.xyz
 C    5.868698   -0.234275   -0.424172
 C    4.987119    0.230562    0.541743
 C    3.778779   -0.429673    0.748675
 C    2.770180    0.002161    1.797191
 C    0.434172    1.903682   -0.387912
 C   -0.863795    0.384433    0.962423
 C   -3.452075    3.417950   -1.719233
 C   -4.257252    1.378544   -1.173809
 C   -6.352658   -1.697369   -1.150564
 C    3.473220   -1.548388   -0.032863
 C    4.356401   -2.003771   -1.000390
 C    5.567429   -1.346399   -1.200536
 C    3.260895    0.991045    2.847711
 O    3.563915    2.235353    2.245404
 N    1.527245    0.475660    1.170357
 C    1.562915    1.438390    0.202856
 C   -0.823466    1.352956    0.003538
 C    0.322887   -0.103125    1.625418
 O    0.337018   -0.951398    2.513609
 C   -2.088755    1.823613   -0.625979
 C   -2.208720    3.096418   -1.179531
 N   -4.482536    2.585916   -1.734968
 N   -3.112090    0.966430   -0.612881
 N   -5.292614    0.504006   -1.207848
 C   -5.286659   -0.784704   -0.544166
 C   -6.381417   -3.028879   -0.399798
 O   -6.606395   -2.849440    0.980169
 C   -5.585745   -2.078488    1.581279
 C   -5.502911   -0.681089    0.971378
 F    7.022392    0.410827   -0.608563
Cl    6.693294   -1.900146   -2.401009
 H    5.249411    1.118685    1.105140
 H    2.458066   -0.887061    2.353047
 H    0.511258    2.646326   -1.171384
 H   -1.803001   -0.060091    1.266673
 H   -3.624522    4.398250   -2.159950
 H   -7.339399   -1.222660   -1.061428
 H   -6.153534   -1.866115   -2.214900
 H    2.531675   -2.067827    0.121296
 H    4.119596   -2.873861   -1.602916
 H    4.143547    0.560365    3.343190
 H    2.464553    1.095625    3.595974
 H    3.641249    2.899359    2.938708
 H    2.549738    1.796244   -0.060289
 H   -1.401364    3.817215   -1.166086
 H   -6.166929    0.886773   -1.535660
 H   -4.299474   -1.228519   -0.718992
 H   -5.428290   -3.562288   -0.560821
 H   -7.190909   -3.665845   -0.765007
 H   -5.823210   -2.030739    2.646691
 H   -4.614175   -2.591047    1.471967
 H   -4.683684   -0.114861    1.426974
 H   -6.439928   -0.144667    1.166376
