45 
4xjt_ligand_xtb.xyz
 C   -3.633442    0.696545   -2.475713
 C   -5.163757   -0.952742    1.166571
 C   -3.269666   -0.041508    2.513115
 C    0.951214   -1.849178   -0.107310
 C    3.623977   -1.019209   -0.083468
 C    5.096332   -0.721489   -0.081346
 C    2.592251   -0.042009   -0.012323
 C    2.406604    3.604218    0.232207
 C    1.969874    2.173506    0.146373
 C    0.611093    1.857041    0.134803
 C    0.212614    0.532310    0.040989
 N   -1.094020    0.186291    0.030652
 C   -2.200864    1.120801    0.064961
 C   -3.491823    0.345143    0.026699
 C   -4.159052    0.140811   -1.183912
 C   -5.335682   -0.596935   -1.191094
 C   -5.840597   -1.137181   -0.023968
 C   -3.986420   -0.218466    1.206802
 C    1.235054   -0.474771   -0.028851
 C    1.960055   -2.773954   -0.170450
 C    3.287762   -2.352990   -0.159356
 O    5.922389   -1.618292   -0.111334
 N    5.428396    0.578753   -0.054046
 N    2.915183    1.266622    0.072587
 H   -3.671238    1.785886   -2.472799
 H   -2.601684    0.392406   -2.645074
 H   -4.235032    0.342203   -3.308735
 H   -5.550592   -1.385697    2.077461
 H   -3.323052    0.996645    2.841940
 H   -3.726280   -0.661126    3.280578
 H   -2.219175   -0.313768    2.428752
 H   -0.072326   -2.198556   -0.114081
 H    2.132831    4.131665   -0.680711
 H    1.918019    4.100688    1.068251
 H    3.483725    3.659839    0.359958
 H   -0.113551    2.652491    0.194578
 H   -1.339459   -0.776637   -0.123659
 H   -2.137069    1.811116   -0.783483
 H   -2.145306    1.717007    0.983367
 H   -5.857975   -0.752274   -2.123767
 H   -6.756741   -1.708164   -0.043547
 H    1.729211   -3.827112   -0.228454
 H    4.093517   -3.070471   -0.209483
 H    6.402359    0.829724   -0.040970
 H    4.670635    1.259151   -0.002175
