48 
4xmo_ligand_dft.xyz
 C   -5.149162    4.587931    0.217967
 C   -4.323622    3.344866    0.288600
 C   -4.221927    2.292801   -0.665751
 N   -3.564110    3.114580    1.331351
 O   -2.943368    1.904822    1.089566
 C   -3.341545    1.424719   -0.098731
 C   -2.788992    0.140417   -0.520271
 C   -3.218826   -0.445739   -1.760299
 C   -2.719560   -1.641042   -2.152454
 F   -3.091614   -2.217723   -3.287575
 C   -1.882879   -0.503463    0.264874
 N   -1.388654   -1.713466   -0.164126
 C   -1.763107   -2.325262   -1.346900
 N   -1.127105   -3.468649   -1.504562
 N   -0.327328   -3.617396   -0.414130
 C   -0.480516   -2.586477    0.381527
 C    0.275873   -2.306253    1.645871
 C    0.980719   -3.548800    2.166018
 F   -0.680839   -1.924730    2.603543
 C    1.239977   -1.140371    1.456354
 C    1.989943   -1.048898    0.310965
 C    2.925463    0.003690    0.141778
 C    3.719997    0.144075   -1.015222
 C    4.599486    1.196805   -1.101014
 O    5.345998    1.299568   -2.225518
 C    6.264985    2.367640   -2.331542
 C    4.671683    2.108916   -0.011165
 N    3.945554    2.005172    1.076311
 C    3.072461    0.968644    1.173932
 C    2.284411    0.850733    2.347140
 C    1.392306   -0.177859    2.488592
 H   -5.026634    5.168345    1.134592
 H   -6.208696    4.343554    0.094201
 H   -4.846028    5.206191   -0.632956
 H   -4.729192    2.213105   -1.614980
 H   -3.945370    0.056326   -2.387878
 H   -1.523147   -0.132785    1.213684
 H    1.709799   -3.901767    1.434148
 H    0.253711   -4.343303    2.348596
 H    1.496211   -3.298534    3.096726
 H    1.878219   -1.785842   -0.481532
 H    3.647963   -0.566999   -1.832759
 H    5.759634    3.340797   -2.299118
 H    7.026167    2.325557   -1.542724
 H    6.747772    2.247097   -3.301570
 H    5.357822    2.951458   -0.044784
 H    2.411952    1.602044    3.119472
 H    0.789355   -0.262417    3.385263
