78 
4xpj_ligand_dft.xyz
 P    1.199067   -0.176029   -0.285471
 O    5.856795   -0.825411    2.805450
 O    3.245482   -0.573638    2.092377
 O    2.682449   -0.613928   -0.752551
 O    1.034903    1.268148   -0.054513
 O    0.877432   -1.150709    0.949136
 O   -4.450192   -2.740059   -1.965687
 O   -1.938735   -0.706631    0.449745
 O   -3.007797   -3.219685   -0.305081
 O    0.366071   -0.843353   -1.461543
 O    5.137148   -1.305798   -1.702415
 O    7.266446    0.379790   -1.670153
 O    7.827501    0.289492    1.130581
 C   -2.010067   -1.092203   -0.902227
 C   -0.967463   -0.383218   -1.757866
 C    6.648301   -0.248061    0.573762
 C    6.251166    0.504506   -0.698485
 C    5.556862   -0.119845    1.619915
 C   -0.329394    4.307374   -1.337458
 C   -1.854518    4.228790   -1.284635
 C   -2.399769    4.317150    0.142378
 C   -3.930370    4.278941    0.239222
 C   -4.583751    3.040128   -0.391090
 C   -4.010073    1.706203    0.096207
 C   -4.206936    1.412808    1.587036
 C   -5.654888    1.122279    2.006390
 C   -6.331492   -0.015001    1.228844
 C   -5.527569   -1.316226    1.200643
 C   -6.236945   -2.433929    0.431149
 C   -5.312070   -3.619223    0.105718
 C    4.253351   -0.703812    1.096552
 C   -4.237047   -3.161647   -0.851340
 C    3.817116    0.034113   -0.164249
 C    4.908306    0.012323   -1.237717
 C   -1.959462   -2.610887   -1.061846
 H    6.726953   -0.524982    3.100788
 H    3.657682   -0.832378    2.930723
 H    1.589348   -1.049450    1.624406
 H   -1.161329   -1.111760    0.864140
 H    4.297656   -1.642142   -2.044166
 H    7.123088   -0.481659   -2.091199
 H    8.469177    0.345085    0.408531
 H   -2.983508   -0.741713   -1.259650
 H   -1.028621    0.696214   -1.590567
 H   -1.120734   -0.597071   -2.818125
 H    6.784811   -1.313246    0.332454
 H    6.177714    1.571700   -0.459905
 H    5.404411    0.949085    1.842974
 H    0.029960    5.239291   -0.884431
 H    0.126109    3.470334   -0.797257
 H    0.034346    4.278203   -2.370812
 H   -2.180596    3.287536   -1.746739
 H   -2.294754    5.033606   -1.890043
 H   -2.041914    5.249474    0.599900
 H   -1.965893    3.504446    0.740069
 H   -4.217156    4.348727    1.296498
 H   -4.343545    5.174146   -0.245068
 H   -5.664705    3.073823   -0.199828
 H   -4.473324    3.091751   -1.481813
 H   -4.455452    0.895699   -0.495852
 H   -2.935311    1.668077   -0.115084
 H   -3.831647    2.257111    2.179573
 H   -3.572419    0.559704    1.846425
 H   -6.264966    2.029311    1.902127
 H   -5.660099    0.875696    3.076859
 H   -6.516261    0.304728    0.194223
 H   -7.321434   -0.205131    1.665382
 H   -4.545908   -1.126941    0.750186
 H   -5.319177   -1.649434    2.227100
 H   -7.098798   -2.797764    1.002870
 H   -6.626807   -2.040661   -0.515537
 H   -5.883061   -4.412416   -0.387917
 H   -4.857069   -4.026648    1.012363
 H    4.405370   -1.763481    0.854490
 H    3.557754    1.070225    0.083901
 H    4.590776    0.659288   -2.066504
 H   -1.032655   -3.013151   -0.646537
 H   -2.043783   -2.891933   -2.115064
