88 
4xqu_ligand_dft.xyz
 C   -4.071804   -0.402086    2.431909
 C   -3.063945   -0.658297    1.279543
 C   -3.025528   -2.096958    0.772191
 C   -4.302899   -2.454736    0.024994
 C   -4.565496   -1.396364   -1.054361
 C   -4.577522    0.008430   -0.437436
 C   -4.829466    1.107529   -1.471231
 C   -4.374000    2.485839   -0.996161
 C   -2.909008    2.778919   -1.296326
 C   -7.032898   -1.639387   -1.298482
 C   -8.152415   -1.650411   -2.321866
 N   -5.769174   -1.678285   -1.828009
 O   -4.253311   -1.477736    3.205630
 O   -4.599921    0.662269    2.627898
 O   -4.114441   -3.728698   -0.550956
 O   -3.335835    0.233668    0.229984
 O   -4.243053    0.748191   -2.716703
 O   -5.193291    3.433886   -1.667505
 O   -2.592209    3.949040   -0.567591
 O   -7.249648   -1.592889   -0.097637
 C    1.635518   -0.160071    0.541088
 C    0.465021   -0.703129    1.364457
 C   -0.784636    0.080985    1.002051
 C   -0.557090    1.586074    1.157300
 C    0.700563    2.014190    0.412213
 C    1.078097    3.466451    0.706401
 O    0.247514   -2.055206    1.054435
 O   -1.849680   -0.275264    1.873088
 O   -0.422073    1.946828    2.516048
 O    1.820891    1.225283    0.795322
 O   -0.035193    4.329123    0.581417
 C    6.788506   -1.274007    0.228867
 C    6.147581   -0.027726   -0.439352
 C    4.824872    0.277306    0.257415
 C    3.860846   -0.884934    0.001764
 C    4.590983   -2.232456    0.159025
 C    4.744654   -2.957503   -1.189683
 C    8.186611    1.220111   -0.996407
 C    8.850823    2.577735   -1.035598
 N    6.989991    1.152225   -0.366217
 O    7.493451   -2.060733   -0.689560
 O    4.353714    1.507687   -0.240794
 O    2.764352   -0.856781    0.917333
 O    5.823750   -2.068088    0.848925
 O    5.542815   -4.095805   -1.091404
 O    8.727060    0.236606   -1.501692
 H   -2.170571   -2.192940    0.095112
 H   -2.860469   -2.782557    1.604471
 H   -5.151012   -2.466761    0.721212
 H   -3.733399   -1.441517   -1.761658
 H   -5.384753    0.081404    0.300200
 H   -5.920954    1.167415   -1.589469
 H   -4.516208    2.550338    0.091652
 H   -2.788104    2.940305   -2.377006
 H   -2.290083    1.922362   -1.012197
 H   -9.033017   -2.112334   -1.873923
 H   -8.406485   -0.616596   -2.581401
 H   -7.884148   -2.181227   -3.239849
 H   -5.684148   -1.487425   -2.816172
 H   -4.875508   -1.217899    3.905022
 H   -4.929292   -3.942301   -1.023405
 H   -4.453742    1.465613   -3.328602
 H   -4.838465    4.303662   -1.437805
 H   -1.634023    4.105371   -0.579528
 H    1.431030   -0.302935   -0.536420
 H    0.697874   -0.549732    2.426481
 H   -1.047900   -0.140012   -0.037751
 H   -1.416369    2.106092    0.722411
 H    0.511422    1.887019   -0.667023
 H    1.829557    3.808578   -0.009943
 H    1.507041    3.513571    1.712635
 H    1.051220   -2.533123    1.296952
 H   -1.183722    1.551542    2.965445
 H   -0.575828    4.206638    1.375315
 H    7.446270   -0.936939    1.041028
 H    5.952215   -0.258583   -1.496253
 H    4.994174    0.334335    1.342889
 H    3.467838   -0.777827   -1.021423
 H    4.004959   -2.865617    0.828350
 H    3.745397   -3.274830   -1.511466
 H    5.123900   -2.260840   -1.954238
 H    9.841030    2.494204   -0.580690
 H    8.992511    2.865750   -2.080737
 H    8.283559    3.356595   -0.519969
 H    6.493421    2.009575   -0.161498
 H    8.078215   -1.443124   -1.176272
 H    3.498979    1.676934    0.195135
 H    6.438513   -3.763828   -0.913818
