58 
4xs2_ligand_xtb.xyz
 C    0.158582   -0.315038    0.065146
 N    1.461568   -0.431648   -0.214717
 C    1.916805   -1.624756   -0.580685
 N    1.164353   -2.724334   -0.724438
 C   -0.122024   -2.603943   -0.495451
 C   -0.750936   -1.425859   -0.091436
 N   -0.272104    0.857650    0.520099
 N    3.220627   -1.779030   -0.851398
Cl   -0.996042   -4.067032   -0.733787
 C   -2.157633   -1.252169    0.118588
 C    0.566289    2.027627    0.531302
 C    0.876865    2.509564   -0.909932
 C    0.679960    4.032867   -0.878554
 C   -0.423264    4.248651    0.166912
 C   -0.108934    3.203388    1.247068
 O    2.185263    2.189322   -1.314851
 O    1.849268    4.685275   -0.455860
 C   -1.833791    4.089537   -0.402032
 O   -2.039362    2.767249   -0.851285
 C    4.242149   -0.783261   -0.651504
 C    5.439303   -1.374235    0.090783
 C    6.524908   -0.314889    0.320779
 O    7.742467   -0.842710    0.785778
 C    7.724480   -1.279153    2.122815
 S   -3.345823   -2.546122   -0.146698
 C   -4.604067   -1.427918    0.282636
 C   -4.037249   -0.174426    0.595446
 N   -2.684715   -0.128588    0.492955
 C   -5.971952   -1.631200    0.342288
 C   -6.774154   -0.570810    0.715777
 C   -6.224428    0.672068    1.026519
 C   -4.863920    0.882655    0.970780
 H   -1.289315    0.973313    0.541488
 H    3.496609   -2.703635   -1.143297
 H    1.510443    1.756449    1.016186
 H    0.141900    2.066518   -1.594148
 H    0.383599    4.410891   -1.868408
 H   -0.336914    5.263124    0.560724
 H   -1.008984    2.877666    1.765262
 H    0.575624    3.635405    1.974535
 H    2.278596    1.234874   -1.169522
 H    2.587913    4.148221   -0.775533
 H   -2.555885    4.337601    0.389319
 H   -1.974383    4.800829   -1.228592
 H   -2.959106    2.660822   -1.115019
 H    4.570184   -0.381052   -1.618448
 H    3.800038    0.028114   -0.070456
 H    5.872197   -2.189250   -0.493627
 H    5.101681   -1.779670    1.046255
 H    6.772436    0.164184   -0.630458
 H    6.152210    0.454096    1.014497
 H    7.112256   -2.177785    2.254713
 H    8.755771   -1.511829    2.380831
 H    7.351261   -0.492944    2.790179
 H   -6.393405   -2.594827    0.102091
 H   -7.843741   -0.706780    0.768966
 H   -6.878486    1.480889    1.317089
 H   -4.427731    1.838636    1.215686
