47 
4xsy_ligand_dft.xyz
 C    6.047503    0.764198   -2.567562
 C    6.758504    0.620106   -1.378783
 C    6.311869   -0.252615   -0.392944
 C    5.131851   -0.978289   -0.578002
 C    4.428935   -0.846221   -1.780234
 C    4.886030    0.022260   -2.764706
 N    4.718693   -1.861571    0.435411
 C    3.539513   -1.837788    0.936426
 C    2.451178   -0.841401    0.738879
 C    2.735895    0.524506    0.731947
 C    1.692976    1.422449    0.564279
 C    0.375898    0.999483    0.401699
 C    0.095371   -0.367538    0.409420
 C    1.140568   -1.281422    0.581477
 C    1.967124    2.904461    0.611071
 F    1.701347    3.408064    1.829163
 F    1.207371    3.576382   -0.267425
 F    3.250095    3.185474    0.336652
 N    3.192665   -2.883709    1.773000
 O    4.242599   -3.740768    2.095000
 N   -1.191485   -0.893357    0.225702
 C   -2.378736   -0.190885    0.143689
 O   -2.493640    1.007430    0.277846
 N   -3.459345   -1.046304   -0.098642
 C   -4.752957   -0.509421   -0.236322
 C   -5.442398    0.018135    0.863508
Cl   -4.712743   -0.010694    2.440641
 C   -6.720958    0.544760    0.728932
 C   -7.350466    0.521073   -0.509268
 C   -6.707202   -0.023468   -1.613223
 C   -5.419406   -0.520547   -1.467582
Cl   -4.609428   -1.186534   -2.866851
 H    6.399763    1.443945   -3.337053
 H    7.669968    1.188163   -1.217363
 H    6.863097   -0.376730    0.534184
 H    3.525551   -1.428465   -1.935627
 H    4.329086    0.118818   -3.692093
 H    3.754991    0.874203    0.842764
 H   -0.424796    1.714489    0.273870
 H    0.942009   -2.350178    0.574795
 H    2.726338   -2.600644    2.629085
 H    4.992960   -3.338863    1.600877
 H   -1.264978   -1.896295    0.312689
 H   -3.269164   -1.841030   -0.694900
 H   -7.219608    0.955673    1.599141
 H   -8.351956    0.924579   -0.613277
 H   -7.187581   -0.053811   -2.584314
