30 
4xta_ligand_dft.xyz
 C   -3.527382    1.211307    0.544978
 C   -2.145476    1.240985    0.406560
Cl   -1.272740    2.628745    1.002680
 C   -1.430077    0.191471   -0.193761
 C   -2.187214   -0.900504   -0.653632
Cl   -1.391509   -2.215423   -1.475555
 C   -3.565633   -0.958406   -0.494980
 C   -4.235919    0.102292    0.102099
 N   -0.045783    0.250374   -0.374173
 C    2.176054   -0.682549   -0.137077
 C    0.835301   -0.623916    0.287062
 C    0.418402   -1.442563    1.340179
 C    1.312649   -2.301271    1.965753
 C    2.642899   -2.351134    1.562760
 C    3.060846   -1.537279    0.516050
 C    2.639188    0.170854   -1.298401
 C    2.828886    1.615406   -0.854105
 O    4.063619    1.975579   -0.464515
 O    1.924494    2.413079   -0.798153
 H   -4.033743    2.048864    1.011172
 H   -4.105773   -1.824442   -0.860430
 H   -5.314019    0.066326    0.216564
 H    0.329037    1.184744   -0.525578
 H   -0.613264   -1.396457    1.674111
 H    0.965472   -2.927828    2.781744
 H    3.344777   -3.019517    2.050532
 H    4.094412   -1.584843    0.178616
 H    1.877187    0.172679   -2.083898
 H    3.563041   -0.238471   -1.721883
 H    4.665540    1.222432   -0.522437
