30 
4xtm_ligand_xtb.xyz
 O   -1.162876   -1.313783   -0.032323
 C    0.209350   -1.163835    0.229447
 O    0.508374   -1.386579    1.575620
 C    0.691514    0.251228   -0.145406
 N    2.099094    0.415095    0.117143
 C   -0.110912    1.281102    0.660983
 O    0.290897    2.591611    0.382049
 C   -1.600984    1.070497    0.338076
 O   -1.780120    1.422944   -1.012307
 C   -1.989553   -0.383293    0.656660
 C   -3.426790   -0.707409    0.226419
 O   -3.567065   -0.653624   -1.172236
 C    3.052904   -0.318261   -0.498271
 O    2.794830   -1.172338   -1.320783
 C    4.459114    0.032928   -0.061381
 H    0.700345   -1.897583   -0.422904
 H    0.355397   -2.315249    1.783994
 H    0.495370    0.391226   -1.217211
 H    2.348262    1.120536    0.791723
 H    0.069969    1.116992    1.728383
 H   -0.064440    2.815148   -0.489351
 H   -2.206111    1.734433    0.979351
 H   -2.563368    0.954070   -1.346924
 H   -1.888152   -0.529077    1.742064
 H   -3.694272   -1.703836    0.599448
 H   -4.119315    0.027233    0.642213
 H   -2.908118   -1.255896   -1.544597
 H    4.568014   -0.136336    1.007284
 H    4.665179    1.079275   -0.273827
 H    5.167402   -0.590199   -0.598976
