42 
4xtp_ligand_xtb.xyz
 O   -4.467859   -0.628130    0.913687
 C   -3.894777    0.224374    0.095849
 O   -4.442378    1.103097   -0.513118
 C   -2.380683    0.021460   -0.007441
 N   -1.900714    0.887510   -1.100966
 C   -1.718194    0.443867    1.331222
 O   -0.380920    0.838276    1.164450
 C    0.514028   -0.164843    0.796086
 C    1.949736    0.416749    0.781822
 N    1.995037    1.850131    0.558595
 C    1.279447    2.582996   -0.314014
 C    1.634079    4.046238   -0.308452
 O    0.414462    2.131381   -1.054918
 C    2.772860   -0.345785   -0.295695
 O    4.136201   -0.376699    0.031970
 C    2.297703   -1.811979   -0.366820
 O    2.383173   -2.419635    0.895787
 C    0.842069   -1.824680   -0.862739
 O    0.172887   -0.633784   -0.487530
 C    0.065316   -3.060599   -0.386963
 O   -1.280614   -2.902515   -0.798641
 H   -5.427917   -0.484819    0.986191
 H   -2.144867   -1.026434   -0.225882
 H   -1.801055    0.359238   -1.969662
 H   -0.921708    1.302655   -0.906523
 H   -2.601371    1.636228   -1.238221
 H   -2.210247    1.331803    1.736881
 H   -1.809986   -0.380560    2.048028
 H    0.478864   -1.000244    1.515965
 H    2.409286    0.227427    1.754823
 H    2.641113    2.356501    1.144435
 H    2.704919    4.192538   -0.425817
 H    1.325001    4.491874    0.635101
 H    1.113201    4.547087   -1.119382
 H    2.599211    0.125895   -1.272057
 H    4.551842    0.471546   -0.152537
 H    2.934376   -2.344954   -1.085578
 H    3.309114   -2.388228    1.170541
 H    0.823531   -1.800859   -1.956621
 H    0.126473   -3.148339    0.703246
 H    0.522808   -3.946718   -0.835418
 H   -1.731974   -3.747852   -0.701538
