42 
4xtp_ligand_dft.xyz
 O   -4.486444   -0.613258    0.877804
 C   -3.915750    0.245058    0.042245
 O   -4.485589    1.115740   -0.571059
 C   -2.414771    0.030440   -0.024877
 N   -1.895523    0.932212   -1.093216
 C   -1.748321    0.367099    1.338062
 O   -0.419543    0.800763    1.192120
 C    0.502863   -0.184224    0.850596
 C    1.923294    0.417709    0.774426
 N    1.986063    1.865473    0.626437
 C    1.330073    2.603896   -0.299732
 C    1.548713    4.096820   -0.233763
 O    0.589451    2.108478   -1.153060
 C    2.720129   -0.305190   -0.340470
 O    4.102683   -0.273722   -0.069228
 C    2.319144   -1.780665   -0.394053
 O    2.490422   -2.384257    0.873799
 C    0.845938   -1.869644   -0.808896
 O    0.132422   -0.703499   -0.404152
 C    0.120191   -3.115053   -0.325988
 O   -1.216318   -3.002859   -0.792812
 H   -5.439847   -0.422553    0.915485
 H   -2.179522   -0.999349   -0.306582
 H   -1.855596    0.438042   -1.986466
 H   -0.917087    1.275008   -0.913527
 H   -2.540603    1.724112   -1.210778
 H   -2.267340    1.197058    1.824154
 H   -1.824627   -0.518297    1.980025
 H    0.491884   -0.988395    1.600452
 H    2.427897    0.191723    1.715391
 H    2.488077    2.368944    1.341693
 H    2.397481    4.391679    0.387951
 H    0.643758    4.566608    0.164164
 H    1.696137    4.473413   -1.247957
 H    2.484575    0.163922   -1.304404
 H    4.445103    0.607712   -0.257488
 H    2.937726   -2.287242   -1.145710
 H    3.429876   -2.321984    1.095474
 H    0.793281   -1.843124   -1.901305
 H    0.159350   -3.185217    0.767556
 H    0.622104   -4.000600   -0.736866
 H   -1.672087   -3.831824   -0.606401
