68 
4xtw_ligand_xtb.xyz
 N    4.936866    3.527957    1.511510
 C    1.180820    2.386852   -0.744455
 C   -0.963238    3.377706   -0.997318
 C   -3.992461    0.406738   -0.871836
 N   -2.893928   -0.480343   -1.127011
 C   -3.228137   -1.766573   -0.883984
 O   -2.481333   -2.729747   -0.818293
 N   -4.581027   -1.822412   -0.667565
 C   -5.216672   -0.544961   -0.876441
 C   -6.182782   -0.156666    0.246875
 S   -5.677809    1.495662    0.825164
 C   -3.925222    1.105147    0.503149
 C   -3.349465    0.249739    1.632205
 C   -1.827638    0.341160    1.769418
 C   -1.314080   -0.619795    2.844529
 C   -1.221563   -2.073162    2.354095
 C    0.076372   -2.307402    1.609658
 O    1.152158   -2.263855    2.177665
 N   -0.022544   -2.523213    0.275901
 S    1.236489   -3.200500   -0.613130
 O    1.417403   -4.556416   -0.209737
 O    0.977347   -2.920221   -1.984819
 N    2.499027   -2.243966   -0.119943
 C    3.701613   -2.332682   -0.918018
 C    4.444813   -0.988732   -0.927223
 O    3.681672   -0.008349   -1.615870
 C    4.716598   -0.434599    0.478944
 O    5.935875    0.257223    0.455341
 C    3.500392    0.504476    0.700795
 C    3.180827    0.957586   -0.747871
 N    1.771885    1.172794   -0.947335
 C    0.778563    0.325142   -1.340205
 N   -0.389391    0.900385   -1.411795
 C   -0.177997    2.213623   -1.053496
 N    1.749332    3.519696   -0.339626
 C    0.889337    4.517116   -0.260747
 N   -0.395595    4.506610   -0.573021
 N   -2.277564    3.414267   -1.326202
 N    4.385757    2.554517    1.434595
 N    3.740526    1.568064    1.605709
 H   -4.087262    1.165190   -1.654048
 H   -1.941780   -0.133372   -1.271113
 H   -5.077758   -2.691360   -0.759041
 H   -5.736773   -0.513767   -1.843395
 H   -7.214988   -0.092206   -0.086786
 H   -6.115382   -0.855121    1.080728
 H   -3.391965    2.054205    0.437638
 H   -3.795396    0.590529    2.570136
 H   -3.643681   -0.790256    1.488711
 H   -1.337963    0.113493    0.823206
 H   -1.563448    1.365565    2.042577
 H   -0.320152   -0.311492    3.173835
 H   -1.977892   -0.572269    3.710176
 H   -2.070710   -2.340327    1.729304
 H   -1.198296   -2.735872    3.221434
 H   -0.949842   -2.610077   -0.182736
 H    2.619073   -2.389748    0.877215
 H    3.377494   -2.547738   -1.938277
 H    4.374365   -3.128700   -0.579331
 H    5.392214   -1.100164   -1.466216
 H    4.736952   -1.234989    1.227428
 H    6.170074    0.542475    1.346783
 H    2.664257   -0.077106    1.099851
 H    3.659505    1.933816   -0.947188
 H    0.956682   -0.705804   -1.578254
 H    1.286277    5.463114    0.079258
 H   -2.617213    2.692932   -1.938727
 H   -2.684135    4.332585   -1.404966
