67 
4xtx_ligand_xtb.xyz
 C    6.285793   -0.747684    0.830417
 N    4.958533   -1.087710    0.397878
 C    4.934797   -1.523547   -0.880332
 O    3.948882   -1.703624   -1.582847
 N    6.224420   -1.678070   -1.298008
 C    7.179303   -1.418026   -0.247610
 C    8.287009   -0.454412   -0.684315
 S    8.365660    0.857995    0.573356
 C    6.561590    0.772736    0.819549
 C    5.812375    1.542770   -0.270606
 C    4.487126    2.123417    0.229389
 C    3.615864    2.657477   -0.912267
 C    2.833275    1.548958   -1.628974
 C    1.851687    0.941768   -0.651348
 O    1.123779    1.619051    0.044392
 N    1.808589   -0.421346   -0.595917
 S    1.501398   -1.145638    0.883604
 O    2.487593   -0.648693    1.789703
 O    1.445710   -2.543366    0.644889
 O    0.108010   -0.616329    1.374201
 C   -1.046603   -1.129983    0.732537
 C   -1.550484   -0.134733   -0.319466
 O   -2.705353   -0.662085   -0.951139
 C   -1.937421    1.221951    0.325342
 O   -1.511688    2.316985   -0.426123
 C   -3.470224    1.175485    0.333301
 C   -3.752813    0.271382   -0.895232
 N   -5.008458   -0.410831   -0.800397
 C   -5.276019   -1.754723   -0.818447
 N   -6.532827   -2.038354   -0.685261
 C   -7.165074   -0.825173   -0.565344
 C   -6.217380    0.207438   -0.635880
 N   -6.480185    1.510413   -0.528528
 C   -7.768048    1.748099   -0.352568
 N   -8.760766    0.880220   -0.271505
 C   -8.499557   -0.426146   -0.369889
 N   -9.520734   -1.296956   -0.305203
 N   -5.934715    0.285089    2.583986
 N   -5.006586    0.488353    1.987095
 N   -3.904571    0.575961    1.550656
 H    6.489932   -1.142515    1.829105
 H    4.132767   -0.907172    0.955149
 H    6.448461   -2.219275   -2.114125
 H    7.619350   -2.350913    0.127190
 H    9.263761   -0.927660   -0.737301
 H    8.050403   -0.001069   -1.647067
 H    6.357505    1.214205    1.795299
 H    5.637306    0.890977   -1.127175
 H    6.445278    2.366663   -0.609341
 H    4.709785    2.941904    0.917130
 H    3.924594    1.374185    0.789877
 H    4.237988    3.190776   -1.633334
 H    2.890433    3.361501   -0.502088
 H    3.488810    0.780229   -2.033470
 H    2.264360    1.988127   -2.451700
 H    2.527335   -0.970073   -1.115796
 H   -1.808511   -1.267417    1.505320
 H   -0.803724   -2.092205    0.273370
 H   -0.774063    0.022455   -1.078538
 H   -1.545766    1.267540    1.348085
 H   -0.551108    2.392890   -0.302001
 H   -3.903441    2.170757    0.190451
 H   -3.756852    0.907644   -1.798122
 H   -4.491407   -2.473676   -0.937500
 H   -8.045633    2.788992   -0.257190
 H  -10.430590   -0.951102   -0.057104
 H   -9.315448   -2.278698   -0.258194
