66 
4xty_ligand_dft.xyz
 C    2.923219    1.008161   -0.583309
 N    3.206227    4.511013   -1.502283
 C    3.459698    2.289116   -0.603121
 N    3.710975    0.303416    0.299962
 C    4.660623    1.199820    0.745850
 C   -1.787832    2.329318    1.800066
 N   -1.386475    1.124489    2.502402
 C   -1.072873    0.132282    1.600352
 O   -0.995687   -1.071728    1.861557
 N   -0.865544    0.729101    0.401009
 C   -1.043804    2.167410    0.448689
 C   -1.890808    2.744801   -0.698856
 S   -3.343763    3.568249    0.055453
 C   -3.314269    2.492014    1.534823
 C   -4.162922    1.204443    1.448144
 C   -4.238691    0.461689    0.108450
 C   -4.943375   -0.901343    0.234283
 C   -3.971796   -2.058846    0.512231
 C   -3.145018   -2.328336   -0.739186
 O   -3.641504   -2.442350   -1.837243
 N   -1.766113   -2.402580   -0.533324
 S   -0.735281   -2.095660   -1.836899
 O   -0.947696   -0.712917   -2.263960
 O   -0.803117   -3.185395   -2.779014
 N    0.687675   -2.057165   -1.014080
 C    1.500431   -3.260665   -0.895826
 C    2.538676   -3.045041    0.193461
 O    3.397886   -1.955016   -0.202631
 C    1.959234   -2.672474    1.564928
 O    2.750140   -3.302081    2.550184
 C    2.181316   -1.166292    1.608596
 C    3.491475   -1.019384    0.836315
 N    4.552569    2.393055    0.234713
 N    1.866402    0.591576   -1.293338
 C    1.341261    1.563904   -2.038584
 N    1.734414    2.837939   -2.133512
 C    2.805855    3.227903   -1.424966
 F    2.313470   -0.702169    2.902727
 H    4.067359    4.793556   -1.062569
 H    2.773546    5.112272   -2.185170
 H    5.410836    0.893397    1.463238
 H   -1.435541    3.221005    2.322679
 H   -1.828769    0.838004    3.362549
 H   -0.628626    0.227502   -0.446360
 H   -0.066799    2.664001    0.481890
 H   -2.205682    1.953398   -1.383275
 H   -1.330027    3.487135   -1.269845
 H   -3.725007    3.099213    2.347916
 H   -3.816452    0.514145    2.229620
 H   -5.188364    1.472747    1.729795
 H   -4.774423    1.093864   -0.606269
 H   -3.239239    0.309052   -0.310819
 H   -5.697173   -0.862619    1.030161
 H   -5.471289   -1.133561   -0.694664
 H   -4.533964   -2.973735    0.731353
 H   -3.330405   -1.848113    1.374291
 H   -1.392510   -2.043941    0.357802
 H    1.205110   -1.195056   -1.252747
 H    1.999678   -3.509958   -1.838974
 H    0.860669   -4.103454   -0.617704
 H    3.147104   -3.948509    0.302392
 H    0.898812   -2.929757    1.660726
 H    2.556288   -2.861972    3.388498
 H    1.371964   -0.627262    1.117027
 H    4.333970   -1.233967    1.507486
 H    0.478923    1.279817   -2.636458
