67 
4xu1_ligand_xtb.xyz
 C    4.599813   -0.949794   -0.049249
 C    5.623771   -0.628081    0.851069
 C    6.415629   -1.704318    1.303330
 C    4.662250    1.199996    0.364880
 N    6.125025   -2.928129    0.847417
 N    4.312919   -2.174431   -0.496567
 C   -4.130965   -1.175880   -0.468719
 N   -2.707918   -1.082466   -0.718051
 C   -2.282762   -1.974368   -1.623893
 O   -1.122636   -2.136540   -2.035167
 N   -3.337352   -2.673327   -2.077865
 C   -4.562950   -2.355389   -1.385381
 C   -5.060891   -3.517119   -0.518198
 S   -4.222195   -3.352686    1.082235
 C   -4.476828   -1.541051    0.986705
 C   -3.675880   -0.817230    2.057058
 C   -4.004816    0.675377    2.108972
 C   -3.262017    1.402161    3.232457
 C   -1.730940    1.319473    3.091790
 C   -1.338829    1.643593    1.677641
 O   -0.956189    0.818742    0.873374
 N   -1.503765    2.941325    1.301513
 S   -1.388117    3.393873   -0.304599
 O   -1.819309    4.737574   -0.378923
 O   -2.022963    2.419902   -1.126471
 O    0.192308    3.288149   -0.442824
 C    0.755997    3.303700   -1.743104
 C    1.341498    1.926306   -2.088485
 O    2.377523    1.676508   -1.161276
 C    0.250714    0.851982   -2.007118
 N    0.812709   -0.505160   -2.111915
 C    1.863718   -0.692033   -1.103307
 C    2.934586    0.393349   -1.310083
 N    3.985646    0.238779   -0.352034
 N    5.623189    0.725184    1.085016
 C    5.126355   -3.093318    0.004765
 N    7.429228   -1.558828    2.161554
 H    4.384452    2.232370    0.311596
 H   -4.619874   -0.234917   -0.743740
 H   -2.127315   -0.384877   -0.277514
 H   -3.238030   -3.477126   -2.672957
 H   -5.336175   -2.068892   -2.106431
 H   -4.816861   -4.485404   -0.948105
 H   -6.137232   -3.453580   -0.357332
 H   -5.546926   -1.367396    1.139738
 H   -3.915522   -1.270804    3.021077
 H   -2.614243   -0.975003    1.870489
 H   -3.763154    1.145155    1.151648
 H   -5.077624    0.795637    2.273624
 H   -3.573039    2.448288    3.233383
 H   -3.540663    0.970335    4.194550
 H   -1.383870    0.313147    3.324907
 H   -1.260985    2.020137    3.782166
 H   -1.767184    3.652865    1.962595
 H   -0.007992    3.583302   -2.472438
 H    1.557775    4.046222   -1.732028
 H    1.765961    1.970052   -3.107639
 H   -0.494358    1.012397   -2.786085
 H   -0.236036    0.935263   -1.032695
 H   -0.042123   -1.243450   -1.979886
 H    1.202708   -0.668834   -3.043975
 H    2.332212   -1.677899   -1.179937
 H    1.421143   -0.568884   -0.112284
 H    3.356390    0.289848   -2.334771
 H    4.945708   -4.108451   -0.320354
 H    7.968361   -2.365857    2.421954
 H    7.677129   -0.642091    2.488289
