61 
4xu3_ligand_dft.xyz
 C   -3.640291   -2.774568   -0.971988
 C   -1.551099   -2.422155   -0.371667
 C   -1.882102   -2.369587    0.978304
 C   -3.245449   -2.528850    1.282772
 N   -4.113209   -2.741106    0.282859
 N   -2.389792   -2.616134   -1.396432
 C    0.218285   -2.097839    0.895859
 C   -2.944284    1.471410    0.513547
 N   -3.393725    2.839742    0.318844
 C   -4.655636    2.861104   -0.266201
 O   -5.388617    3.820650   -0.371837
 N   -4.905873    1.567086   -0.696627
 C   -3.695274    0.771487   -0.634761
 C   -2.829842    0.858465   -1.912682
 S   -1.080584    0.995495   -1.411779
 C   -1.437182    1.243279    0.382098
 C   -0.604709    2.377164    0.983267
 C    0.876172    2.040615    1.191064
 C    1.133816    1.185583    2.434930
 C    2.626408    1.024834    2.758661
 C    3.365213    0.285117    1.663999
 O    3.172571   -0.894707    1.418408
 N    4.248689    1.036794    0.922945
 S    5.261039    0.369371   -0.289970
 O    5.744101    1.540065   -0.985912
 O    6.135427   -0.589342    0.332534
 N    4.223482   -0.448770   -1.262795
 C    3.261474    0.343460   -2.034363
 C    2.166432   -0.587711   -2.510476
 O    1.549624   -1.100955   -1.348122
 C    0.604456   -2.098510   -1.602892
 N   -0.190997   -2.249378   -0.409598
 N   -0.762916   -2.160251    1.761062
 N   -3.715758   -2.436307    2.549274
 H   -4.387393   -2.948442   -1.742820
 H    1.257458   -1.911233    1.139916
 H   -3.277039    1.076618    1.485244
 H   -3.224378    3.543217    1.022081
 H   -5.577211    1.448218   -1.440360
 H   -3.917896   -0.266842   -0.387035
 H   -3.109732    1.741923   -2.492091
 H   -2.951482   -0.034768   -2.529676
 H   -1.206639    0.305335    0.896714
 H   -1.037193    2.644504    1.959446
 H   -0.706258    3.255302    0.337840
 H    1.437723    2.979904    1.284332
 H    1.267605    1.529896    0.300462
 H    0.657101    1.657826    3.302567
 H    0.677927    0.195701    2.329021
 H    2.744536    0.430881    3.670133
 H    3.077915    2.006800    2.941843
 H    4.405997    2.016900    1.117432
 H    3.766131   -1.169834   -0.701301
 H    2.808036    1.142240   -1.431716
 H    3.772993    0.798724   -2.884703
 H    1.438292   -0.033798   -3.117965
 H    2.593356   -1.400852   -3.116186
 H   -0.084591   -1.821162   -2.409607
 H    1.103934   -3.044724   -1.854983
 H   -3.055939   -2.488167    3.309715
 H   -4.663012   -2.739215    2.715584
