61 
4xu3_ligand_xtb.xyz
 C   -3.581060   -1.985798   -1.233327
 C   -1.412465   -2.329609   -1.007565
 C   -1.611782   -3.058439    0.176651
 C   -2.941728   -3.190622    0.611751
 N   -3.906017   -2.633127   -0.128119
 N   -2.380108   -1.777973   -1.743002
 C    0.479842   -3.033535   -0.176033
 C   -3.069853    1.160339    0.482850
 N   -3.599164    2.246560    1.258327
 C   -3.957895    3.336560    0.509900
 O   -4.329693    4.404386    0.925682
 N   -3.837115    2.955552   -0.794976
 C   -3.396773    1.598373   -0.969475
 C   -2.133204    1.491884   -1.819291
 S   -0.758986    1.915506   -0.717241
 C   -1.541159    0.953421    0.627929
 C   -0.990077    1.361994    1.986320
 C    0.490200    1.013443    2.160877
 C    0.721169   -0.480376    2.374675
 C    2.186858   -0.826560    2.671209
 C    3.040662   -0.635059    1.437493
 O    3.204563   -1.501857    0.606026
 N    3.589909    0.596768    1.278374
 S    4.742371    0.897606    0.035164
 O    4.870792    2.314523    0.015042
 O    5.881068    0.091231    0.295993
 N    3.998792    0.374377   -1.324772
 C    2.887371    1.194906   -1.772293
 C    1.902677    0.342286   -2.559581
 O    1.321651   -0.565550   -1.648338
 C    0.629648   -1.626576   -2.251273
 N   -0.064386   -2.334632   -1.224053
 N   -0.399436   -3.479950    0.665413
 N   -3.279841   -3.814717    1.753290
 H   -4.409748   -1.571693   -1.792354
 H    1.540003   -3.156293   -0.072364
 H   -3.573575    0.221850    0.748497
 H   -3.505283    2.303066    2.255309
 H   -4.138618    3.536754   -1.554719
 H   -4.187532    0.978426   -1.414455
 H   -2.140461    2.186725   -2.655717
 H   -2.003504    0.467915   -2.175810
 H   -1.315343   -0.096396    0.424557
 H   -1.572957    0.865686    2.768101
 H   -1.110689    2.441995    2.094841
 H    0.869569    1.559015    3.028788
 H    1.034660    1.355186    1.278569
 H    0.113181   -0.819911    3.216683
 H    0.411494   -1.039968    1.493058
 H    2.246275   -1.880041    2.947786
 H    2.560421   -0.215453    3.493829
 H    3.471777    1.313253    1.974355
 H    3.729790   -0.590870   -1.155947
 H    2.358675    1.640990   -0.923321
 H    3.287550    1.996740   -2.395031
 H    1.126110    0.977568   -3.006825
 H    2.431170   -0.200965   -3.354716
 H   -0.121072   -1.261432   -2.969874
 H    1.333298   -2.302909   -2.768088
 H   -2.575525   -4.339986    2.240074
 H   -4.253907   -3.970717    1.944482
