45 
4xua_ligand_xtb.xyz
 C   -4.103220    0.651496    1.606033
 C   -3.109520   -0.421198    1.354554
 C   -3.055271   -1.368583    0.353254
 N   -2.052634   -0.640013    2.168273
 N   -1.377701   -1.636241    1.741278
 N   -1.956197   -2.107456    0.642761
 C   -1.428046   -3.238158   -0.062649
 C   -0.662301   -2.821767   -1.332522
 N    0.608890   -2.230569   -1.023113
 C    1.750167   -2.931458   -0.795564
 N    2.728364   -2.176141   -0.401360
 C    2.230104   -0.906784   -0.337819
 C    3.083299    0.210725    0.037340
 C    4.182740   -0.029212    0.860132
 C    5.013309    1.007663    1.237730
 C    4.762937    2.296692    0.795760
 C    3.683951    2.539999   -0.038044
 C    2.850201    1.506064   -0.420223
 C    0.896099   -0.917590   -0.713418
 C   -0.074593    0.165151   -0.750826
 C   -0.210487    0.995686    0.364794
 C   -1.132350    2.018501    0.368585
 C   -1.941269    2.229714   -0.750398
 C   -2.917410    3.250250   -0.744053
 N   -3.727166    4.062581   -0.744617
 C   -1.794737    1.422619   -1.879038
 C   -0.864883    0.403968   -1.877041
 H   -4.325607    1.199559    0.692451
 H   -5.032203    0.223165    1.981507
 H   -3.710840    1.335518    2.352671
 H   -3.684205   -1.566713   -0.488755
 H   -2.249986   -3.904484   -0.340089
 H   -0.753076   -3.755589    0.623888
 H   -1.272585   -2.119093   -1.904310
 H   -0.483865   -3.712454   -1.941512
 H    1.815769   -3.991032   -0.946690
 H    4.366441   -1.038887    1.192505
 H    5.859776    0.812317    1.879929
 H    5.410286    3.108510    1.093372
 H    3.493670    3.541126   -0.397339
 H    2.024596    1.701801   -1.088704
 H    0.403002    0.813964    1.232896
 H   -1.244138    2.649395    1.236870
 H   -2.407792    1.604214   -2.750111
 H   -0.726453   -0.189109   -2.770654
