35 
4xuc_ligand_xtb.xyz
 C    3.301738   -1.131433   -0.667296
 C    2.069423   -0.621096   -0.622176
 N    1.781629    0.603182   -0.026780
 C    2.808845    1.251937    0.608021
 C    4.066596    0.804223    0.623805
 C    4.497155   -0.459046   -0.049774
 O    5.088237   -1.404716    0.858247
 O    3.530628   -2.328632   -1.286554
 C    0.486829    1.130448   -0.044597
 C   -0.622810    0.292273    0.036740
 C   -1.913096    0.807208    0.009335
 C   -2.093329    2.185466   -0.082653
 C   -0.995559    3.023030   -0.151489
 C    0.286770    2.508336   -0.142582
 C   -3.071947   -0.096791    0.082460
 C   -4.178039    0.106938   -0.739012
 C   -5.265017   -0.745194   -0.679985
 C   -5.267360   -1.810504    0.204769
 C   -4.174976   -2.019088    1.029879
 C   -3.084462   -1.171475    0.968005
 H    1.256565   -1.129120   -1.111426
 H    2.535995    2.154194    1.133436
 H    4.825242    1.354422    1.159600
 H    5.259462   -0.248815   -0.830317
 H    5.634854   -0.924051    1.486933
 H    4.361600   -2.676654   -0.938585
 H   -0.484429   -0.774441    0.122348
 H   -3.090832    2.597637   -0.080464
 H   -1.138313    4.091245   -0.224555
 H    1.132445    3.172567   -0.234639
 H   -4.173826    0.926825   -1.442583
 H   -6.113279   -0.579188   -1.328188
 H   -6.117033   -2.475620    0.250806
 H   -4.173376   -2.845873    1.725346
 H   -2.241955   -1.330003    1.625509
