37 
4xue_ligand_dft.xyz
 C   -0.206969    2.593259   -0.274665
 C    3.176052   -0.030214   -0.112174
 C    3.137538   -1.277788   -0.745000
 C    4.338899    0.330102    0.577666
 C    5.429483   -0.530986    0.634307
 C    5.377154   -1.770849    0.003023
 C    1.072308    3.094539   -0.430708
 C    2.011131    0.889529   -0.169558
 C   -4.260458   -0.359567   -0.142336
 C   -0.416414    1.217695   -0.050161
 C   -1.775725    0.736230    0.115860
 N   -2.834777    1.494771    0.176486
 C   -4.070582    1.008746    0.186788
 C   -3.191536   -1.199154   -0.186458
 N   -1.933167   -0.738595    0.395106
 O   -3.189255   -2.480131   -0.690485
 O   -5.494802   -0.779485   -0.515146
 C   -1.797699   -1.029079    1.862716
 C    0.715533    0.389030    0.003419
 C    2.186292    2.255454   -0.384362
 C    4.226636   -2.141024   -0.687694
 H   -1.072777    3.244040   -0.321762
 H    2.253935   -1.559916   -1.311456
 H    4.377240    1.287116    1.090536
 H    6.320789   -0.235169    1.180012
 H    6.228747   -2.443214    0.046985
 H    1.208911    4.157848   -0.606611
 H   -4.911112    1.690825    0.219415
 H   -1.192560   -1.241939   -0.101140
 H   -3.339903   -3.114390    0.025692
 H   -5.405800   -1.675119   -0.869540
 H   -0.825282   -0.672113    2.206104
 H   -2.600065   -0.486222    2.362331
 H   -1.899193   -2.104691    2.031088
 H    0.631708   -0.674169    0.223238
 H    3.183164    2.656309   -0.541122
 H    4.180401   -3.101039   -1.193837
