55 
4xv2_ligand_dft.xyz
 C   -2.087516    4.205110    0.161743
 C   -1.705297    1.958000    0.313500
 N   -2.577376    2.959087    0.145660
 C   -0.338973    2.205642    0.480645
 N   -0.805558    4.557542    0.358355
 C    0.037744    3.541269    0.509377
 N   -2.972477    5.213675   -0.064223
 C   -2.294087    0.613797    0.276946
 S   -3.896666    0.412886   -0.353232
 C   -3.763476   -1.299964   -0.106941
 N   -2.631539   -1.681019    0.416122
 C   -1.801331   -0.615345    0.642802
 C   -4.864704   -2.284530   -0.452554
 C   -5.285021   -3.001331    0.843264
 C   -4.289284   -3.307636   -1.448168
 C   -6.078814   -1.583971   -1.073673
 C   -0.487752   -0.866589    1.279668
 C    1.779127   -1.752222    1.111148
 C    0.513636   -1.518064    0.575142
 C    2.041281   -1.327100    2.412312
 C   -0.199321   -0.438518    2.577257
 C    1.053322   -0.666089    3.135170
 F    0.280791   -1.921423   -0.685744
 N    2.764562   -2.385923    0.312421
 S    4.146534   -1.518833   -0.089140
 C    3.490512    0.011347   -0.763498
 C    3.199464    2.426030   -0.778931
 C    3.752639    1.276311   -0.230228
 C    2.349944    2.319954   -1.872272
 C    2.642100   -0.043914   -1.873937
 C    2.060702    1.079609   -2.431229
 F    2.366962   -1.235681   -2.409686
 F    4.549297    1.417364    0.820831
 O    4.840909   -1.203934    1.138092
 O    4.776297   -2.263344   -1.157424
 H    0.394177    1.417971    0.581967
 H    1.081463    3.807998    0.662282
 H   -3.953139    4.995230    0.004715
 H   -2.672199    6.148752    0.158738
 H   -4.425686   -3.496123    1.303567
 H   -5.702056   -2.291713    1.566253
 H   -6.049365   -3.754726    0.622108
 H   -3.990036   -2.819819   -2.382195
 H   -3.412379   -3.803969   -1.024347
 H   -5.045358   -4.065144   -1.683131
 H   -6.522315   -0.854928   -0.385772
 H   -5.816859   -1.068687   -2.004735
 H   -6.848395   -2.325883   -1.310348
 H    3.022583   -1.508460    2.834275
 H   -0.969085    0.081314    3.138411
 H    1.263978   -0.333478    4.145915
 H    2.394311   -2.838553   -0.517920
 H    3.447079    3.383860   -0.336137
 H    1.902578    3.214710   -2.291650
 H    1.399072    0.968375   -3.281588
