61 
4xx4_ligand_dft.xyz
 C    3.096237   -0.945183   -0.976582
 C    3.041995   -2.061692   -1.804843
 C    3.223361   -3.338352   -1.277561
 C    3.468294   -3.488702    0.083027
 C   -0.939583   -2.495499   -1.859785
 C    3.522144   -2.369230    0.909813
 C    3.333172   -1.085871    0.395631
 C    1.916135    0.742894    1.408532
 C    3.322611    0.108567    1.329197
 C    3.237404    2.199178    0.101784
 C   -3.605248    0.198516   -0.673730
 C   -2.715040   -2.088824   -0.021056
 C   -3.705584   -1.295372   -0.875461
 C   -3.117007   -3.564186   -0.010592
 C   -0.456974    3.899274   -1.501114
 C    0.751304    3.381375   -1.056481
 C    0.755712    2.432300   -0.023352
 C   -0.459133    2.047298    0.551063
 C   -0.219914   -2.375322    0.536340
 N   -2.919043   -1.568425    1.333188
 N   -3.151099    0.640129    0.567476
 C   -2.742157   -0.228690    1.603261
 N   -2.264000    0.103814    2.744825
 O   -3.922404    0.989498   -1.539745
 C   -2.972849    2.088387    0.691038
 C   -1.240117   -1.874758   -0.491790
 C   -1.668969    2.565234    0.087131
 C   -1.667906    3.491315   -0.948978
 N    1.947976    1.832551    0.437327
 C    4.189020    1.281895    0.854118
 O    3.571402    3.090637   -0.653166
 H    2.946005    0.040081   -1.408999
 H    2.858233   -1.931632   -2.867358
 H    3.178631   -4.208272   -1.925760
 H    3.615316   -4.477924    0.506238
 H   -1.639587   -2.169890   -2.635575
 H    0.066801   -2.206512   -2.179499
 H   -0.964267   -3.590297   -1.813872
 H    3.705027   -2.497267    1.973983
 H    1.698019    1.129246    2.412829
 H    1.142626    0.017969    1.146487
 H    3.625504   -0.228677    2.323879
 H   -4.726452   -1.589201   -0.601393
 H   -3.588198   -1.481512   -1.944132
 H   -2.417909   -4.169875    0.575555
 H   -4.111719   -3.673620    0.431601
 H   -3.144601   -3.968843   -1.025986
 H   -0.450786    4.625300   -2.308535
 H    1.685357    3.698885   -1.496462
 H   -0.482559    1.325463    1.359267
 H    0.793536   -2.199337    0.165526
 H   -0.311715   -3.454077    0.709895
 H   -0.318978   -1.861937    1.498836
 H   -2.518863   -2.120115    2.081382
 H   -2.265063    1.106213    2.901418
 H   -3.052438    2.361311    1.745514
 H   -3.812505    2.556658    0.177370
 H   -1.094805   -0.788060   -0.585222
 H   -2.607173    3.874462   -1.335814
 H    5.018603    0.992161    0.206222
 H    4.603690    1.844420    1.698530
