50 
4xxh_ligand_xtb.xyz
 C    1.107060   -0.721925   -0.906943
 C    1.040259   -1.825532    0.160900
 C    2.155510   -1.588338    1.178090
 C    3.501055   -1.523498    0.445404
 C    3.423238   -0.451724   -0.655137
 C    4.713075   -0.399845   -1.482667
 O    0.866687    0.501983   -0.266247
 O   -0.225342   -1.815982    0.780536
 O    2.116125   -2.636833    2.115859
 O    4.492358   -1.241492    1.400814
 O    2.351576   -0.730403   -1.547163
 O    5.805550    0.047931   -0.714455
 C    0.442249    1.535105   -1.114956
 C    0.529390    2.848546   -0.324941
 C   -0.426225    2.761095    0.868150
 C   -1.840155    2.413160    0.376292
 C   -1.768870    1.145290   -0.483461
 C   -3.135048    0.736739   -1.038849
 O    1.853021    3.063699    0.078517
 O   -0.398436    3.996095    1.542470
 O   -2.661362    2.249729    1.507628
 O   -0.866470    1.317902   -1.566291
 O   -3.838018    0.025183   -0.039188
 P   -3.828407   -1.585864   -0.062819
 O   -2.468869   -2.018016   -0.752279
 O   -4.140949   -2.156462    1.241098
 O   -4.867879   -1.926808   -1.222150
 H    0.362632   -0.901296   -1.693988
 H    1.209634   -2.794212   -0.333130
 H    1.982385   -0.622969    1.677453
 H    3.690924   -2.503405   -0.026756
 H    3.255114    0.527094   -0.177788
 H    4.973176   -1.402228   -1.829768
 H    4.545021    0.238014   -2.356919
 H   -0.131335   -2.310468    1.608119
 H    2.938152   -2.595848    2.619816
 H    5.294890   -0.970357    0.926764
 H    5.666049    0.974706   -0.484290
 H    1.069081    1.581896   -2.014929
 H    0.191722    3.663447   -0.985835
 H   -0.083555    1.956462    1.536629
 H   -2.212873    3.249418   -0.240782
 H   -1.410724    0.327118    0.159784
 H   -3.734432    1.612530   -1.301977
 H   -2.985149    0.123633   -1.929209
 H    1.820031    3.735568    0.773200
 H   -1.141849    3.996122    2.158002
 H   -3.328237    1.574444    1.326296
 H   -1.705034   -2.021064   -0.148573
 H   -5.432677   -2.637284   -0.924311
