43 
4xxs_ligand_xtb.xyz
 C   -2.260760   -0.295651   -0.344512
 C   -3.038960    0.707569   -0.914375
 C   -4.416986    0.616581   -0.978063
 C   -5.037396   -0.506546   -0.464087
 C   -4.309790   -1.533979    0.106599
 C   -2.934810   -1.406823    0.154506
 F   -2.249412   -2.424771    0.722409
 C   -0.051721   -1.312142   -1.041635
 O    1.333303   -1.117994   -1.049213
 C    1.900482   -1.179147    0.254225
 C    1.286899   -0.115405    1.181790
 C    3.371019   -0.970931    0.116471
 F   -6.375618   -0.610353   -0.517340
 C   -0.746425   -0.162856   -0.273130
 C   -0.238623   -0.221826    1.185947
 C   -0.913094    0.845889    2.029055
 S   -0.765953    2.526473    1.323298
 C   -0.114011    2.269762   -0.338263
 N   -0.307465    1.058376   -0.906560
 N    0.457788    3.183311   -0.989760
 C    4.418399   -1.778169    0.586121
 N    5.589099   -1.258436    0.272569
 N    5.332178   -0.139449   -0.392747
 C    4.010405    0.080823   -0.510829
 C    6.402283    0.675094   -0.890785
 H   -2.551720    1.582714   -1.313840
 H   -5.006823    1.404094   -1.417791
 H   -4.793099   -2.410672    0.505442
 H   -0.369840   -1.311138   -2.087727
 H   -0.306252   -2.279227   -0.588830
 H    1.703850   -2.178148    0.680095
 H    1.673684   -0.262978    2.191479
 H    1.600572    0.872758    0.839882
 H   -0.512764   -1.193043    1.610392
 H   -1.979347    0.637862    2.134397
 H   -0.460643    0.903909    3.019269
 H    0.197190    0.947457   -1.775700
 H    0.534751    4.076721   -0.523596
 H    4.358960   -2.698269    1.132103
 H    3.616178    0.933783   -1.024777
 H    7.337453    0.174316   -0.649572
 H    6.387553    1.661069   -0.422258
 H    6.321731    0.795215   -1.972385
