57 
4xy2_ligand_xtb.xyz
 C   -5.711162   -1.257282   -0.432159
 C   -6.410740   -3.553599   -1.110751
 C   -4.327608    0.690112    0.411552
 C   -3.970984    3.490414    0.102851
 C    0.688635   -0.353122   -0.875975
 C    2.021616   -0.113472   -0.632004
 C    0.537775   -1.635853    1.147098
 C    4.053466   -0.338714    0.785277
 C    5.890361    0.003264    2.361427
 C    6.344740    0.112604    0.056927
 C    4.550242   -0.252295    2.080659
 C    1.877108   -1.386536    1.386114
 C    6.818825    0.186860    1.357252
 C    6.007278    0.071571   -2.097212
 C    2.641064   -0.615649    0.514470
 C   -4.538623   -0.703241    0.058558
 C    4.985468   -0.137916   -0.244612
 C   -0.072936   -1.112792    0.013964
 C   -3.654472   -1.809380    0.138321
 C   -5.304399    1.515079    0.789965
 C   -4.972295    2.934544    1.108385
 C   -2.945163    1.282834    0.321369
 C    8.367275    0.508488   -1.367758
 C   -1.961924    2.996954   -1.159441
 C   -2.248245   -1.884040    0.633308
 N    4.828231   -0.154649   -1.608729
 N   -4.260355   -2.914253   -0.265984
 N   -5.492444   -2.571413   -0.612308
 N    6.974563    0.244341   -1.156481
 N   -2.998410    2.621202   -0.230060
 O   -4.052621    4.616974   -0.348725
 O   -1.386731   -1.276995   -0.314198
 H   -6.649784   -0.801553   -0.673183
 H   -7.301090   -3.601825   -0.481311
 H   -6.710741   -3.316695   -2.133248
 H   -5.903467   -4.515717   -1.096978
 H    0.208057    0.036993   -1.760026
 H    2.601962    0.466514   -1.330529
 H   -0.014217   -2.248343    1.843211
 H    6.206648    0.060261    3.392648
 H    3.869141   -0.366980    2.910447
 H    2.335325   -1.825266    2.260074
 H    7.858244    0.381450    1.573964
 H    6.221488    0.124174   -3.148095
 H   -6.331077    1.195960    0.872640
 H   -5.854592    3.573565    1.112468
 H   -4.502945    2.997641    2.097554
 H   -2.313383    0.676436   -0.326939
 H   -2.486045    1.311413    1.323084
 H    8.653628    1.448103   -0.888849
 H    8.977086   -0.296342   -0.949395
 H    8.561069    0.581522   -2.436679
 H   -0.978522    2.913175   -0.690854
 H   -1.990791    2.357070   -2.044484
 H   -2.139843    4.030110   -1.453669
 H   -1.990670   -2.942774    0.759870
 H   -2.163572   -1.368322    1.601075
