36 
4xyc_ligand_dft.xyz
 O    5.056139    1.272598    0.025821
 C    3.962798    0.747601    0.022198
 C    3.718297   -0.705864    0.075041
 N    4.616468   -1.666839    0.134511
 C    3.898356   -2.822600    0.165526
 C    2.544367   -2.575338    0.125130
 N    2.430858   -1.214229    0.066660
 C    1.328115   -0.377432    0.009001
 N    2.790256    1.503958   -0.035078
 C    1.527661    0.955309   -0.043076
 C    0.233718    1.633192   -0.095481
 C   -0.091281    2.982462   -0.114386
 C   -1.440796    3.330798   -0.116457
 C   -2.428861    2.351626   -0.098090
 C   -2.108684    0.985129   -0.087321
 C   -0.761844    0.639088   -0.090001
 C   -0.123708   -0.735776   -0.020138
 C   -3.185062   -0.039705   -0.043086
 C   -4.154921    0.006481    0.963100
 C   -5.168832   -0.944494    1.014778
 C   -5.229298   -1.954185    0.058348
 C   -4.273082   -2.004852   -0.952330
 C   -3.258771   -1.054325   -1.002484
 H    4.387143   -3.785564    0.215984
 H    1.680626   -3.222074    0.133912
 H    2.927198    2.504301   -0.074185
 H    0.675685    3.751745   -0.119198
 H   -1.725738    4.378185   -0.131801
 H   -3.475346    2.642444   -0.106119
 H   -0.449279   -1.281946    0.874469
 H   -0.374710   -1.360547   -0.885234
 H   -4.101699    0.787622    1.716544
 H   -5.911057   -0.898476    1.806106
 H   -6.020542   -2.696667    0.098052
 H   -4.321448   -2.781627   -1.709690
 H   -2.532051   -1.081083   -1.809707
