55 
4xyf_ligand_dft.xyz
 C    5.344099   -4.800976   -0.889626
 C    4.712650   -3.479814   -0.593665
 C    4.400249   -2.423057   -1.496217
 N    4.369402   -3.173573    0.633418
 O    3.822940   -1.906501    0.569538
 C    3.845183   -1.470135   -0.699989
 C    3.302710   -0.138526   -0.954660
 C    3.426631    0.446447   -2.262659
 C    2.918546    1.678253   -2.501802
 F    3.008217    2.251822   -3.694700
 C    2.681784    0.545492    0.045010
 N    2.190260    1.800963   -0.223441
 C    2.266938    2.408986   -1.465293
 N    1.700212    3.595470   -1.437484
 N    1.243903    3.775906   -0.165326
 C    1.533018    2.720937    0.559309
 C    1.192072    2.484389    1.997938
 C    0.624446    3.757174    2.639697
 C    0.230366    1.310793    2.142102
 C   -0.868908    1.204460    1.320964
 C   -1.782881    0.134401    1.461470
 C   -2.930081   -0.006323    0.634292
 C    0.451479    0.332060    3.141316
 C   -0.415393   -0.720266    3.297103
 C   -1.549828   -0.842924    2.462412
 N   -2.386575   -1.908206    2.651938
 C   -3.429300   -2.009196    1.877394
 C   -3.754985   -1.079706    0.843850
 O   -4.883222   -1.371148    0.160508
 C   -5.287913   -0.478018   -0.859366
 C   -6.577914   -1.029667   -1.437041
 O   -6.993084   -0.141369   -2.438638
 C   -8.187901   -0.548111   -3.054736
 H    5.481944   -5.362417    0.036698
 H    6.318735   -4.665851   -1.368609
 H    4.715384   -5.388627   -1.565931
 H    4.562726   -2.397502   -2.562845
 H    3.926176   -0.086432   -3.062978
 H    2.532593    0.155103    1.042656
 H    2.122491    2.223119    2.522016
 H    1.339409    4.580757    2.567149
 H    0.401267    3.566217    3.693018
 H   -0.295622    4.061942    2.135203
 H   -1.043119    1.950449    0.547589
 H   -3.125036    0.733489   -0.135133
 H    1.321076    0.419683    3.788516
 H   -0.257799   -1.482304    4.053189
 H   -4.097999   -2.855110    2.027809
 H   -4.522517   -0.410184   -1.643255
 H   -5.458371    0.525792   -0.449111
 H   -6.401916   -2.038565   -1.843512
 H   -7.333312   -1.117558   -0.639804
 H   -9.013643   -0.611830   -2.329446
 H   -8.076689   -1.528854   -3.542464
 H   -8.433633    0.200486   -3.810269
