24 
4y0a_ligand_dft.xyz
 O    2.513223   -1.021235   -0.673591
 C    1.614149   -0.515933    0.295398
 C    0.446740   -1.498486    0.379627
 O   -0.123833   -1.674572   -0.901919
 C   -0.633923   -0.986715    1.324880
 C   -1.100239    0.439064    0.971377
 C   -1.947576    0.483296   -0.289602
 O   -1.796791    1.246844   -1.215136
 O   -2.966788   -0.391629   -0.239473
 C    0.090795    1.400071    0.872620
 C    1.139094    0.874295   -0.103871
 O    2.311901    1.680983   -0.140497
 H    3.092688   -0.279977   -0.901210
 H    2.104112   -0.448093    1.280445
 H    0.833485   -2.458109    0.756198
 H    0.627651   -1.724503   -1.512090
 H   -0.227848   -0.975240    2.343556
 H   -1.478918   -1.679538    1.314253
 H   -1.769434    0.775847    1.774033
 H   -3.437759   -0.306107   -1.083204
 H    0.553096    1.510414    1.861342
 H   -0.249909    2.389417    0.550990
 H    0.696951    0.807429   -1.104871
 H    2.099951    2.491793   -0.617088
