75 
4y24_ligand_xtb.xyz
 C   -0.737593   -3.634302   -0.739987
 C   -1.821860   -2.563331   -0.523711
 C   -2.119459   -1.877584   -1.865744
 C   -0.800512   -1.352167   -2.469621
 C    0.156692   -2.545119   -2.661674
 C    1.537045   -2.115929   -3.192770
 N   -4.785768    0.336754   -2.124986
 C    5.203888    2.025997   -0.244980
 C    6.424406    1.667371    0.321663
 C    7.571869    2.292574   -0.122747
 C    0.385751   -2.860319    1.788944
 S   -0.131451   -4.332178    0.836604
 O    0.403620   -3.189887   -1.422204
 O   -0.765105   -2.257479    2.310600
 C   -0.478730   -1.157511    3.152525
 C   -1.809386   -0.613523    3.669778
 O    2.198315   -1.220119   -2.339745
 O   -1.521449    0.281712    4.715759
 C    0.300717   -0.072026    2.384938
 O   -0.283459   -0.390298   -1.593229
 O   -0.512823    0.381772    1.342717
 C    1.612731   -0.703652    1.872069
 C    1.228617   -1.879112    0.961867
 O    2.391809   -2.478246    0.446766
 O   -2.997397   -3.159432   -0.051606
 N    2.399531    0.242364    1.127555
 C    3.735502    0.418537    1.138685
 C    3.966580    1.403295    0.189063
 N    2.763142    1.747954   -0.327546
 N    1.848396    1.055167    0.225494
 N   -3.060601   -0.811992   -1.683409
 N   -4.119560   -0.686930   -2.481840
 C   -4.176245    0.929263   -1.066097
 C   -3.046134    0.183295   -0.773488
 C    7.553029    3.261112   -1.110033
 C    6.333425    3.609248   -1.667391
 C    5.168499    3.000499   -1.241788
 C   -4.694446    2.121087   -0.421044
 C   -4.012461    2.720556    0.637922
 C   -4.521052    3.854357    1.243338
 C   -5.712831    4.410943    0.809914
 C   -6.376814    3.805048   -0.242334
 C   -5.893475    2.673970   -0.865862
 F    8.754063    1.943606    0.429971
 F   -7.540274    4.343599   -0.670186
 H   -1.193885   -4.491907   -1.259236
 H   -1.467777   -1.799034    0.176046
 H   -2.591574   -2.590344   -2.550201
 H   -1.010950   -0.909333   -3.456772
 H   -0.298985   -3.255458   -3.368622
 H    1.408619   -1.598978   -4.146325
 H    2.139666   -3.017777   -3.355420
 H    6.492455    0.918194    1.093910
 H    1.007008   -3.281555    2.597829
 H    0.125419   -1.487956    4.011755
 H   -2.413454   -1.460286    4.021232
 H   -2.332306   -0.118879    2.843919
 H    2.406125   -1.667553   -1.503618
 H   -2.342781    0.693698    5.004354
 H    0.534692    0.746124    3.084224
 H    0.616402   -0.148841   -1.876312
 H    0.036994    0.878475    0.703022
 H    2.218306   -1.059935    2.711770
 H    0.615850   -1.459987    0.153330
 H    2.124488   -3.300816    0.008796
 H   -2.859827   -3.428302    0.865346
 H    4.380381   -0.141529    1.779939
 H   -2.274717    0.293555   -0.043772
 H    8.474453    3.723440   -1.425904
 H    6.296462    4.362576   -2.439361
 H    4.214048    3.263808   -1.668347
 H   -3.080184    2.299261    0.981005
 H   -3.985819    4.314312    2.060788
 H   -6.125324    5.295095    1.269338
 H   -6.425262    2.217078   -1.684379
