44 
4y2b_ligand_dft.xyz
 C   -0.326418   -1.901859   -0.115594
 C    0.471012   -0.806709    0.028514
 C   -1.499062    0.575048   -0.020200
 N   -2.212856   -0.571190    0.555566
 N   -0.082333    0.434057    0.320470
 C   -1.814048   -1.844044   -0.030818
 C    1.873718   -1.112284   -0.072576
 S    0.602653   -3.337367   -0.380268
 C    2.071797   -2.448140   -0.282861
 N   -1.998042    1.814633    0.507034
 O   -2.327887   -2.077546   -1.342745
 C    2.956942   -0.114585    0.032263
 N    3.900502    1.977629   -0.730457
 C   -3.665389   -0.390930    0.564399
 C    2.965279    1.029766   -0.774214
 C   -1.786119    3.003869   -0.321653
 C    4.902800    1.806463    0.133955
 C    4.019416   -0.269572    0.924721
 C   -4.389983   -1.472804    1.360227
 C   -2.848187    3.076692   -1.418392
 C   -1.842906    4.237186    0.574674
 C    5.011602    0.700714    0.972283
 H   -1.634920    0.588484   -1.118148
 H    0.466538    1.221325   -0.001465
 H   -2.181791   -2.630011    0.640278
 H    3.022115   -2.944822   -0.426568
 H   -1.605325    1.936622    1.436435
 H   -3.256298   -2.328524   -1.257127
 H   -4.073535   -0.337099   -0.461255
 H   -3.859113    0.580098    1.017455
 H    2.177812    1.173252   -1.514403
 H   -0.792237    2.987687   -0.807708
 H    5.655605    2.591347    0.154349
 H    4.051631   -1.137078    1.577700
 H   -4.374671   -2.455840    0.874460
 H   -3.939277   -1.580731    2.351558
 H   -5.440882   -1.193976    1.484883
 H   -2.834342    2.185723   -2.054038
 H   -3.842635    3.153669   -0.966050
 H   -2.681745    3.949050   -2.059643
 H   -2.805711    4.278458    1.096280
 H   -1.044081    4.220562    1.325059
 H   -1.730732    5.150486   -0.017010
 H    5.850609    0.610792    1.654535
