23 
4y2s_ligand_dft.xyz
 C   -0.958791    2.481949    0.145651
 C   -2.062397    1.645661    0.043680
 C    0.328226    1.955317    0.171951
 C   -0.587080   -0.273712   -0.022631
 C    3.293053   -1.480020    0.295345
 C    2.991318    0.648458   -0.232160
 C   -1.865037    0.268018   -0.033024
 C    0.512595    0.577250    0.076650
 C    3.971755   -0.305285   -0.097230
 C   -3.060699   -0.646842   -0.080859
 N    1.991068   -1.269210    0.395436
 N    1.811144    0.023647    0.077843
 O    5.311179   -0.226961   -0.287511
 F   -4.068206   -0.104907   -0.787195
 F   -2.769098   -1.831906   -0.637749
 F   -3.536586   -0.893462    1.152329
 H   -1.097273    3.555897    0.216259
 H   -3.065891    2.055644    0.022948
 H    1.178883    2.618406    0.286922
 H   -0.425964   -1.342117   -0.089685
 H    3.713057   -2.453073    0.505252
 H    3.035938    1.678466   -0.550299
 H    5.543673    0.669124   -0.554948
