22 
4y2v_ligand_dft.xyz
 C    0.056096   -1.495481    0.263427
 C   -0.991252   -0.616029    0.099402
 C   -0.436561    0.676671    0.185961
 C    3.586169   -0.531111   -0.209395
 C   -0.458350    3.101711   -0.706742
 C   -0.595730    3.186169    0.780784
 C   -1.123832    1.972975    0.050950
 C    2.517139   -1.167973    0.696581
 N    0.873700    0.580164    0.404135
 N    1.156659   -0.738320    0.438288
 O    4.591207   -1.139756   -0.467151
 O    3.369867    0.716315   -0.610383
Br   -2.781754   -1.056254   -0.188881
 H    0.086771   -2.574567    0.269987
 H    0.526998    2.902729   -1.117243
 H   -1.091738    3.729287   -1.325325
 H   -1.324017    3.874535    1.197251
 H    0.296819    3.042158    1.381668
 H   -2.200764    1.882880   -0.048925
 H    2.779618   -0.934845    1.734957
 H    2.572190   -2.247455    0.561177
 H    2.492353    1.027205   -0.285230
