22 
4y2v_ligand_xtb.xyz
 C    0.579902   -0.907502    0.479534
 C   -0.716449   -0.556280    0.180978
 C   -0.728666    0.852070    0.081162
 C    3.515765   -0.298146   -0.276939
 C   -1.670269    2.986049   -0.981018
 C   -1.987477    3.049552    0.473355
 C   -1.877730    1.709865   -0.208277
 C    2.668123    0.430661    0.778025
 N    0.492583    1.308034    0.304961
 N    1.267576    0.249073    0.548926
 O    3.068562   -1.061635   -1.073657
 O    4.824944   -0.023974   -0.211727
Br   -2.172075   -1.727555   -0.029420
 H    1.032912   -1.865027    0.629149
 H   -0.660221    3.210018   -1.285417
 H   -2.428359    3.272689   -1.693492
 H   -2.968085    3.379792    0.780088
 H   -1.191912    3.318138    1.150363
 H   -2.793694    1.158825   -0.381860
 H    2.855496    1.508329    0.738736
 H    2.950446    0.047511    1.768527
 H    5.057672    0.621646    0.468540
