49 
4y2x_ligand_xtb.xyz
 C    6.374523   -0.975330    0.292934
 C    6.630546    0.384594    0.327006
 C    5.096995   -1.428482    0.016513
 C    5.610602    1.289916    0.093212
 C    4.063399   -0.535671   -0.229397
 C    4.330774    0.836405   -0.182795
 C   -4.955040   -0.631062    1.069516
 C   -4.422240   -0.847252   -1.358826
 C   -4.745456    1.412867   -0.351755
 C   -2.675156   -1.367013    0.346104
 C   -3.001575    0.890996    1.351472
 C   -2.465506    0.675694   -1.072536
 C   -4.171713   -1.430072    0.030934
 C   -4.494501    0.824316    1.034569
 C   -3.962102    0.609185   -1.386676
 C   -2.199049    0.088591    0.317327
 C    2.684227   -1.019589   -0.592532
 C   -0.706262    0.204908    0.701223
 C    0.247509   -0.588026   -0.183883
 N    1.650145   -0.316840    0.212623
 O    3.285065    1.708991   -0.397824
 H    7.167146   -1.681648    0.476825
 H    7.624337    0.746004    0.536090
 H    4.898210   -2.488363   -0.022425
 H    5.806741    2.352170    0.119385
 H   -4.793813   -1.050707    2.064752
 H   -6.022251   -0.688581    0.852319
 H   -5.485042   -0.903068   -1.596500
 H   -3.881886   -1.426136   -2.111618
 H   -4.434737    2.459561   -0.375846
 H   -5.810409    1.376008   -0.583962
 H   -2.137328   -1.959387   -0.397655
 H   -2.488000   -1.800502    1.331392
 H   -2.822111    0.487838    2.350870
 H   -2.671969    1.932569    1.346181
 H   -2.128358    1.714311   -1.108829
 H   -1.924523    0.113503   -1.837230
 H   -4.495256   -2.475556    0.052843
 H   -5.044861    1.401674    1.783650
 H   -4.134828    1.028505   -2.382997
 H    2.600935   -2.096328   -0.437222
 H    2.481908   -0.800835   -1.645417
 H   -0.597301   -0.131252    1.735790
 H   -0.432860    1.262743    0.659512
 H    0.132187   -0.298510   -1.228793
 H    0.063755   -1.659066   -0.090154
 H    1.865013    0.694532    0.100583
 H    1.774153   -0.547133    1.204542
 H    3.619754    2.613755   -0.436309
