27 
4y38_ligand_xtb.xyz
 N   -0.415169    1.392683   -0.875042
 C   -0.901850    0.026746   -0.554984
 C   -2.386243    0.226911   -0.179091
 C   -0.128297   -0.517710    0.662255
 C    1.351628   -0.371677    0.421282
 C    2.001282    0.804827    0.796681
 C    2.066293   -1.361258   -0.241064
 C    3.349582    0.977879    0.519576
 C    3.412036   -1.186141   -0.512844
 C    4.052848   -0.014836   -0.140558
 O   -2.781358    1.359785   -0.016139
 C   -4.418526   -0.817207    0.351586
 O   -3.040125   -0.882955   -0.041724
 H   -1.185033    2.010640   -0.487721
 H   -0.321234    1.574146   -1.877176
 H    0.502840    1.547082   -0.399258
 H   -0.796521   -0.647200   -1.405868
 H   -0.420952    0.037603    1.555851
 H   -0.398748   -1.562761    0.806578
 H    1.484558    1.553631    1.386399
 H    1.571964   -2.277268   -0.527435
 H    3.847881    1.883022    0.829563
 H    3.962707   -1.967381   -1.012372
 H    5.102004    0.117129   -0.351034
 H   -4.649799   -1.775847    0.808093
 H   -5.039740   -0.661174   -0.530714
 H   -4.574394   -0.000246    1.056260
