62 
4y46_ligand_xtb.xyz
 C    1.073308    1.741315    1.946160
 C    0.211420    1.370648    0.739608
 C    1.093704    1.213904   -0.503965
 C    2.144609    0.135517   -0.265907
 C   -4.611306    1.477801   -0.503990
 C   -5.936560    1.118569   -0.861809
 C   -6.274498   -0.182885   -0.929069
 C   -5.333029   -1.247304   -0.649124
 C   -3.085806   -1.923785   -0.011814
 C   -2.533660   -1.914425    1.424539
 C   -1.109937   -2.488079    1.320992
 C   -1.847149   -1.951346   -0.910049
 C   -3.670644    0.454293   -0.222618
 C   -2.083295    2.039842    0.176553
 C    7.815984    0.613242   -0.643308
 C    6.673100   -0.188849   -1.265527
 C    6.439976    0.210266   -2.719709
 N    5.444331   -0.009159   -0.515583
 C    5.060934   -0.909798    0.433092
 O    5.607407   -1.983109    0.593649
 N    3.999260   -0.541261    1.226335
 C    3.014244    0.482509    0.951442
 C    2.131926    0.668544    2.187018
 N   -0.826895    2.350350    0.534354
 N   -2.899442    3.082791   -0.073250
 C   -4.132753    2.788783   -0.403102
 O   -5.627253   -2.427637   -0.708611
 N   -4.032286   -0.854156   -0.296959
 C   -0.928081   -2.896698   -0.145322
 N   -2.419533    0.755333    0.114980
 H    0.442499    1.844645    2.830277
 H    1.558169    2.703490    1.763538
 H   -0.305343    0.425976    0.928344
 H    1.580990    2.166926   -0.725440
 H    0.471056    0.947488   -1.359395
 H    2.778066    0.022068   -1.147235
 H    1.652671   -0.821985   -0.084154
 H   -6.649039    1.903354   -1.073123
 H   -7.267822   -0.507501   -1.195808
 H   -3.654143   -2.845310   -0.173317
 H   -3.165717   -2.511336    2.080712
 H   -2.513114   -0.895970    1.808196
 H   -0.965256   -3.334800    1.990490
 H   -0.377903   -1.725889    1.590053
 H   -1.409819   -0.956163   -0.968072
 H   -2.077436   -2.303235   -1.914645
 H    8.739261    0.436276   -1.187742
 H    7.594829    1.679388   -0.672338
 H    7.960074    0.312244    0.391444
 H    6.902672   -1.256903   -1.201226
 H    6.203905    1.270833   -2.789955
 H    7.331968    0.015886   -3.308183
 H    5.615134   -0.359089   -3.140310
 H    5.099847    0.935180   -0.457797
 H    3.669804   -1.313929    1.787795
 H    3.537345    1.429363    0.760516
 H    1.641167   -0.279179    2.419676
 H    2.755667    0.941420    3.039582
 H   -0.584663    3.328069    0.498524
 H   -4.787384    3.628077   -0.603838
 H   -1.260859   -3.925424   -0.289507
 H    0.109158   -2.827687   -0.471061
