24 
4y4j_ligand_dft.xyz
 O   -2.119059   -1.992081    0.120719
 C   -1.503755   -0.797382    0.127074
 C   -0.138565   -0.729417    0.373498
 C   -2.224841    0.386814   -0.113157
 O   -3.548515    0.198004   -0.341409
 C   -1.576123    1.611933   -0.093846
 C   -0.204951    1.675106    0.156627
 C    0.518068    0.510170    0.390407
 C    2.021650    0.577915    0.581608
 O    2.558728   -0.532638    1.275409
 C    2.753424    0.526486   -0.762946
 N    2.513685   -0.846622   -1.326336
 H   -3.067793   -1.854519   -0.024703
 H    0.378574   -1.653920    0.616162
 H   -4.015120    1.038342   -0.428293
 H   -2.138137    2.525779   -0.266236
 H    0.286425    2.643891    0.180848
 H    2.298857    1.523960    1.064056
 H    2.132029   -0.613495    2.138780
 H    2.372434    1.261851   -1.471454
 H    3.831370    0.635941   -0.634071
 H    3.010026   -1.020331   -2.203212
 H    1.503677   -0.991874   -1.468242
 H    2.813189   -1.525299   -0.612626
