58 
4y5h_ligand_dft.xyz
 C   -7.457203    0.116826    1.345294
 C   -7.136629   -0.764644    0.134677
 C   -7.459072   -0.070252   -1.188413
 N   -5.757457   -1.266721    0.150646
 C   -4.667336   -0.420421    0.127387
 O   -4.753014    0.787589   -0.058316
 N   -3.467975   -1.075566    0.335544
 C   -2.176218   -0.408603    0.173957
 C   -1.968811    0.689625    1.222916
 C   -0.578178    1.316508    1.098974
 C   -0.323117    1.833993   -0.324239
 C   -0.539692    0.736014   -1.370791
 C   -1.939580    0.131717   -1.243706
 N    0.969033    2.502360   -0.450040
 C    2.203471    1.984423   -0.236655
 N    3.174864    2.926508   -0.101657
 C    4.383632    2.459927    0.123318
 C    4.695136    1.099708    0.214508
 C    6.003574    0.587303    0.470705
 C    6.206852   -0.742068    0.522677
 C    5.123915   -1.692219    0.299759
 O    5.301377   -2.900857    0.314382
 N    3.835936   -1.148181    0.052055
 C    2.771563   -2.134585   -0.252231
 C    2.343824   -2.048236   -1.716732
 C    1.611706   -2.092489    0.740169
 C    3.613870    0.211537    0.022066
 N    2.372365    0.658996   -0.194202
 H   -7.254165   -0.416923    2.280290
 H   -6.847650    1.023291    1.321085
 H   -8.514649    0.402514    1.338407
 H   -7.754219   -1.669086    0.193280
 H   -6.876924    0.847540   -1.290645
 H   -7.227605   -0.728490   -2.031394
 H   -8.524408    0.180847   -1.225877
 H   -5.626596   -2.124072    0.667828
 H   -3.467188   -2.058215    0.103637
 H   -1.429161   -1.191045    0.365909
 H   -2.105194    0.264218    2.223049
 H   -2.741330    1.452234    1.084534
 H    0.196184    0.584238    1.354127
 H   -0.476484    2.146135    1.808021
 H   -1.060298    2.621685   -0.526308
 H    0.215546   -0.041008   -1.228721
 H   -0.389356    1.154880   -2.371769
 H   -2.707435    0.881896   -1.460752
 H   -2.061808   -0.680320   -1.970558
 H    0.969779    3.509770   -0.392062
 H    5.175809    3.199268    0.244142
 H    6.821817    1.287203    0.622782
 H    7.176749   -1.184105    0.714136
 H    3.284016   -3.086018   -0.112803
 H    1.901217   -1.079254   -1.955230
 H    3.204894   -2.211241   -2.372387
 H    1.605949   -2.829851   -1.926738
 H    1.984380   -2.100586    1.769292
 H    0.989615   -1.209276    0.599867
 H    0.993996   -2.986225    0.598067
