136 
4y5i_ligand_dft.xyz
 C    7.539611   -3.387172    3.298263
 O    7.600924   -4.484688    2.761274
 C    7.973698   -3.170917    4.735846
 N    7.073882   -2.284560    2.655916
 C    6.738166   -2.307244    1.251227
 C    6.699155   -0.843022    0.788868
 O    6.975150    0.083639    1.543082
 C    5.422817   -3.055432    0.974628
 C    4.199624   -2.451208    1.683830
 C    2.925605   -2.576364    0.847632
 N    3.068988   -1.757415   -0.342345
 C    2.088700   -1.605450   -1.266438
 N    1.025803   -2.338902   -1.389326
 N    2.345434   -0.583328   -2.191550
 N    6.350620   -0.646824   -0.501326
 C    6.101111    0.667717   -1.024441
 C    4.982912    1.368128   -0.251279
 O    4.098649    0.736841    0.333035
 C    5.701162    0.504071   -2.541252
 O    5.132755   -0.763286   -2.768475
 C    6.933292    0.621361   -3.427030
 N    4.950631    2.714156   -0.278512
 C    3.781289    3.389708    0.264060
 C    2.526677    2.936241   -0.498512
 O    2.589551    2.476782   -1.636294
 C    4.090153    4.878721    0.030216
 C    4.957307    4.859379   -1.232360
 C    5.822108    3.610658   -1.043769
 N    1.364377    3.111153    0.156507
 C    0.104901    2.691544   -0.409233
 C    0.034351    1.161114   -0.638934
 O   -0.191941    0.909809   -2.022099
 C   -0.999664    3.113059    0.562474
 O   -0.743627    3.550431    1.677086
 P   -1.423339   -0.015982   -2.496854
 O   -1.333688   -0.268575   -3.944931
 O   -2.691017    0.813274   -1.977269
 O   -1.405732   -1.287432   -1.545308
 N   -2.256395    2.914829    0.094219
 C   -3.349724    2.766000    1.030358
 C   -3.176840    1.437843    1.781304
 O   -2.451775    0.553405    1.317017
 C   -4.688010    2.711615    0.269384
 C   -4.906626    3.852007   -0.732569
 C   -6.263459    3.668325   -1.416277
 C   -4.800851    5.227114   -0.071303
 N   -3.915283    1.220922    2.888085
 C   -3.839136   -0.075957    3.584186
 C   -4.767455   -1.112452    2.903400
 O   -5.722659   -1.592666    3.513645
 C   -4.286074    0.260789    5.004782
 C   -5.269064    1.417678    4.798971
 C   -4.620982    2.236320    3.680288
 N   -4.419750   -1.395925    1.634992
 C   -5.126643   -2.221677    0.661458
 C   -4.660040   -1.751197   -0.713315
 O   -4.713649   -0.531663   -0.955317
 C   -6.688156   -2.103375    0.718464
 O   -7.208406   -2.934581    1.717447
 C   -7.352488   -2.530422   -0.585138
 N   -4.335897   -2.651471   -1.648556
 C   -4.276398   -2.217754   -3.053123
 C   -4.665632   -3.382654   -3.956106
 C   -3.657533   -4.540359   -3.830692
 C   -3.009944   -4.549499   -2.435826
 C   -3.974383   -4.047270   -1.364070
 H    7.450651   -3.890087    5.371130
 H    7.780036   -2.159666    5.103829
 H    9.044229   -3.380360    4.815278
 H    7.172393   -1.358708    3.053165
 H    7.537867   -2.820333    0.699116
 H    5.249335   -3.083054   -0.107604
 H    5.576220   -4.091670    1.286615
 H    4.361197   -1.387460    1.898977
 H    4.043714   -2.940514    2.649694
 H    2.776689   -3.625126    0.556814
 H    2.048573   -2.267092    1.435400
 H    3.671010   -0.943038   -0.214692
 H    1.023051   -3.099973   -0.715264
 H    1.595607   -0.501153   -2.870774
 H    2.507595    0.337452   -1.778529
 H    5.979311   -1.393884   -1.079046
 H    7.012287    1.269079   -0.945782
 H    4.978142    1.292425   -2.789874
 H    4.152844   -0.723583   -2.698908
 H    7.404941    1.605184   -3.327727
 H    7.666053   -0.142649   -3.147607
 H    6.653769    0.466481   -4.471773
 H    3.663297    3.149399    1.324735
 H    3.181500    5.475676   -0.078589
 H    4.655839    5.271457    0.881476
 H    4.325267    4.733997   -2.116373
 H    5.555252    5.764947   -1.356051
 H    6.108660    3.170096   -2.000851
 H    6.734141    3.828138   -0.474276
 H    1.317605    3.444409    1.113167
 H   -0.043672    3.167619   -1.384510
 H   -0.747729    0.704700   -0.027641
 H    0.990376    0.717719   -0.355062
 H   -3.453677    0.251247   -1.667271
 H   -0.489946   -1.746192   -1.584974
 H   -2.346796    2.338812   -0.742983
 H   -3.325014    3.606283    1.729068
 H   -5.506474    2.720128    0.999558
 H   -4.755969    1.746843   -0.246453
 H   -4.128538    3.782037   -1.502474
 H   -6.334379    2.686733   -1.897060
 H   -6.423214    4.434425   -2.182497
 H   -7.080554    3.747132   -0.687812
 H   -3.798979    5.407643    0.332049
 H   -5.524254    5.321016    0.749619
 H   -5.014310    6.021925   -0.793855
 H   -2.809342   -0.442071    3.533544
 H   -4.742816   -0.598958    5.494899
 H   -3.420192    0.590521    5.588421
 H   -5.431878    2.012085    5.700676
 H   -6.232684    1.020115    4.466361
 H   -3.901086    2.961662    4.079702
 H   -5.354635    2.776116    3.076989
 H   -3.606023   -0.890338    1.286426
 H   -4.911001   -3.278851    0.836310
 H   -6.914281   -1.042160    0.906002
 H   -6.834436   -2.609526    2.558883
 H   -7.112952   -1.851979   -1.408211
 H   -8.434137   -2.527198   -0.431152
 H   -7.055842   -3.549743   -0.856411
 H   -3.273416   -1.861884   -3.308255
 H   -4.965485   -1.378256   -3.163096
 H   -5.672958   -3.718057   -3.680033
 H   -4.722755   -3.024808   -4.988030
 H   -2.873994   -4.441876   -4.588314
 H   -4.165265   -5.492468   -4.019374
 H   -2.126884   -3.901185   -2.421870
 H   -2.675438   -5.556197   -2.166731
 H   -4.874427   -4.676088   -1.325722
 H   -3.486302   -4.096143   -0.389289
