41 
4y64_ligand_dft.xyz
 O   -0.462299   -1.262559    0.250873
 C   -1.591668   -0.793991    0.054355
 N   -2.697373   -1.586274    0.071617
 C   -4.051515   -1.223866   -0.152902
 O   -4.914083   -2.066206   -0.103577
 C   -4.197324    0.195064   -0.430178
 C   -3.115881    0.987311   -0.445024
 N   -1.821687    0.539205   -0.198842
 C   -0.733662    1.509685   -0.223803
 O    0.099778    1.275451   -1.330951
 C    0.195801    1.549321    1.002000
 O   -0.377228    2.150118    2.114538
 C    1.392894    2.306408    0.407869
 O    1.100253    3.682781    0.586744
 C    1.351896    1.926393   -1.094416
 C    2.473604    1.021174   -1.624705
 N    2.264419   -0.393551   -1.362034
 C    2.484344   -0.949732   -0.167535
 O    2.944349   -0.377629    0.816833
 C    2.179932   -2.450214   -0.040876
 N    1.584056   -2.557163    1.330436
 C    3.453029   -3.279912   -0.144709
 H   -2.538952   -2.569426    0.254535
 H   -5.186513    0.586986   -0.621756
 H   -3.191209    2.047980   -0.649824
 H   -1.220073    2.490310   -0.304018
 H    0.498677    0.537559    1.264156
 H   -0.192001    3.100191    2.032103
 H    2.333272    2.027439    0.888313
 H    1.916772    4.183860    0.686827
 H    1.383335    2.865689   -1.660471
 H    3.432802    1.321609   -1.195583
 H    2.545209    1.129318   -2.708815
 H    1.660021   -0.885129   -2.004220
 H    1.413048   -2.780578   -0.743156
 H    1.601380   -3.506534    1.706852
 H    2.130760   -1.920444    1.933003
 H    0.607610   -2.196894    1.266985
 H    3.882392   -3.162189   -1.142628
 H    3.247807   -4.343892    0.008104
 H    4.194899   -2.942862    0.585225
