43 
4y67_ligand_dft.xyz
 O    3.990629   -1.535707   -0.647607
 C    3.378106   -0.929476    0.225028
 N    3.792628    0.292645    0.669928
 O    3.226917    0.856469    1.805262
 C    5.072642    0.860583    0.320787
 C    2.047449   -1.430261    0.752133
 C    1.014533   -1.577729   -0.386001
 C    1.010402   -0.377843   -1.357353
 P    0.426634    1.200417   -0.704277
 O   -1.175901    1.238273   -0.868216
 O    0.894723    2.185797   -1.888978
 O    0.858590    1.581965    0.670785
 C   -0.359122   -1.866093    0.232773
 C   -1.467404   -2.246066   -0.748430
 C   -2.851647   -2.332640   -0.074262
 C   -3.395329   -0.965219    0.267077
 C   -3.127848   -0.357585    1.498106
 C   -3.538816    0.949967    1.757731
 C   -4.240568    1.665932    0.790153
 C   -4.531250    1.063985   -0.432106
 C   -4.109796   -0.236415   -0.688011
 H    2.422610    1.312940    1.469788
 H    5.442810    0.335572   -0.559213
 H    5.783614    0.745030    1.146562
 H    4.949157    1.924854    0.102367
 H    1.660093   -0.783243    1.538251
 H    2.221864   -2.419603    1.188084
 H    1.322822   -2.435499   -0.995521
 H    2.023626   -0.213334   -1.737862
 H    0.389477   -0.593494   -2.232796
 H   -1.646733    1.129307   -0.025105
 H    0.570262    3.087211   -1.753768
 H   -0.244716   -2.679842    0.962040
 H   -0.663169   -0.990509    0.821771
 H   -1.226687   -3.212511   -1.208075
 H   -1.531197   -1.512632   -1.560967
 H   -3.548087   -2.840951   -0.750307
 H   -2.779940   -2.949414    0.830227
 H   -2.587785   -0.911645    2.261780
 H   -3.313090    1.405537    2.717170
 H   -4.559800    2.684323    0.988844
 H   -5.078891    1.613259   -1.191915
 H   -4.321937   -0.691338   -1.652416
