46 
4y6p_ligand_dft.xyz
 O    2.706099    2.759563   -1.350687
 P    2.223685    1.768355   -0.177508
 O    0.799622    2.382093    0.293352
 O    3.161173    1.675341    0.977699
 C    1.856353    0.295246   -1.142978
 C    1.343951   -0.954589   -0.395937
 C    2.355186   -1.487375    0.633471
 C    3.715287   -1.696973   -0.009751
 N    4.772451   -1.043554    0.547837
 O    4.657793   -0.450753    1.795862
 C    6.133913   -1.216625    0.103374
 O    3.836716   -2.351450   -1.040311
 C   -0.033907   -0.779686    0.255347
 C   -1.134548   -0.291611   -0.687236
 C   -2.527032   -0.407940   -0.068877
 C   -3.631635    0.149532   -0.977312
 C   -5.005139   -0.021885   -0.374524
 C   -5.773807   -1.152532   -0.658641
 C   -7.018067   -1.339493   -0.063727
 C   -7.513628   -0.394171    0.829705
 C   -6.757253    0.737884    1.121485
 C   -5.514283    0.919724    0.522905
 H    3.104558    3.566914   -0.996236
 H    0.783135    2.466618    1.256608
 H    1.136686    0.604521   -1.908442
 H    2.780743    0.044014   -1.674743
 H    1.255409   -1.720103   -1.175914
 H    2.010137   -2.467177    0.982414
 H    2.415473   -0.833644    1.503777
 H    4.278603    0.434341    1.602343
 H    6.106855   -1.741047   -0.851281
 H    6.701410   -1.802830    0.834141
 H    6.610127   -0.238995   -0.017361
 H   -0.325563   -1.751816    0.675041
 H    0.038269   -0.093960    1.110842
 H   -1.103536   -0.872029   -1.620748
 H   -0.951783    0.755720   -0.958278
 H   -2.551810    0.123315    0.892322
 H   -2.744951   -1.460310    0.156539
 H   -3.437000    1.212575   -1.168228
 H   -3.586813   -0.357344   -1.949528
 H   -5.392898   -1.893997   -1.357529
 H   -7.602072   -2.224319   -0.300585
 H   -8.484794   -0.536981    1.294165
 H   -7.136893    1.482693    1.815189
 H   -4.929305    1.808012    0.752106
