46 
4y6p_ligand_xtb.xyz
 O    2.769727    2.856679   -1.118085
 P    2.294864    1.692709   -0.108482
 O    0.925225    2.282374    0.456466
 O    3.312409    1.485416    0.943782
 C    1.782460    0.351853   -1.226855
 C    1.277395   -0.933904   -0.577060
 C    2.291058   -1.455838    0.446406
 C    3.689186   -1.526287   -0.137383
 N    4.698839   -1.223478    0.700311
 O    4.471374   -0.744414    1.982894
 C    6.074895   -1.170473    0.275881
 O    3.910229   -1.854146   -1.292439
 C   -0.083396   -0.763087    0.101389
 C   -1.209782   -0.380237   -0.856471
 C   -2.570666   -0.430727   -0.166588
 C   -3.704573   -0.017657   -1.112160
 C   -5.027504   -0.081622   -0.405241
 C   -5.782918   -1.246980   -0.418906
 C   -6.982959   -1.319581    0.265656
 C   -7.443190   -0.225336    0.977717
 C   -6.696807    0.940320    1.000421
 C   -5.497501    1.009516    0.314531
 H    3.723963    2.899951   -1.161072
 H    1.086872    2.865784    1.199336
 H    1.030904    0.782422   -1.885640
 H    2.662025    0.121977   -1.832044
 H    1.186839   -1.675871   -1.378658
 H    2.014673   -2.469373    0.748242
 H    2.277172   -0.827495    1.334935
 H    4.158557    0.183084    1.885885
 H    6.123896   -1.582184   -0.729100
 H    6.688918   -1.761592    0.955529
 H    6.430385   -0.136989    0.275496
 H   -0.343007   -1.708749    0.584184
 H   -0.002132   -0.004446    0.882030
 H   -1.210780   -1.063740   -1.709117
 H   -1.049092    0.631185   -1.232729
 H   -2.565090    0.237043    0.697685
 H   -2.762000   -1.442299    0.198863
 H   -3.521060    0.998524   -1.467611
 H   -3.711038   -0.685606   -1.976126
 H   -5.428685   -2.103720   -0.974953
 H   -7.561350   -2.231902    0.242859
 H   -8.380525   -0.280254    1.511535
 H   -7.051167    1.798357    1.553349
 H   -4.919030    1.922583    0.333206
