34 
4y6r_ligand_xtb.xyz
 O   -0.903851    2.764886   -1.224732
 P   -0.204147    1.709579   -0.258806
 O   -0.885757    1.592222    1.047759
 O    1.263164    2.343213   -0.118695
 C   -0.102505    0.275850   -1.377535
 C    0.323584   -1.044261   -0.725118
 C   -0.677171   -1.515638    0.339138
 C   -2.093392   -1.447777   -0.204786
 N   -2.994705   -0.808809    0.563695
 O   -2.682540   -0.292605    1.815674
 C   -4.367567   -0.622916    0.167714
 O   -2.404831   -1.907250   -1.291572
 C    1.727680   -0.902432   -0.191415
 C    1.995619   -0.326786    1.046308
 C    3.301628   -0.153838    1.477006
 C    4.359826   -0.552470    0.679106
 C    4.104202   -1.128786   -0.553038
 C    2.800029   -1.299837   -0.981970
 H   -1.174572    3.546163   -0.739967
 H    1.773922    1.918923    0.574016
 H    0.601270    0.553452   -2.162451
 H   -1.086428    0.165107   -1.833291
 H    0.323469   -1.794094   -1.524764
 H   -0.601189   -0.932405    1.250839
 H   -0.461567   -2.558756    0.583044
 H   -2.137914    0.518935    1.680713
 H   -4.503965   -1.124919   -0.786984
 H   -5.029667   -1.056702    0.917853
 H   -4.585909    0.442437    0.066882
 H    1.187559   -0.022179    1.695088
 H    3.491347    0.289377    2.444039
 H    5.375993   -0.417987    1.017511
 H    4.922317   -1.447670   -1.181464
 H    2.609400   -1.752090   -1.944771
