34 
4y6r_ligand_dft.xyz
 O   -0.751239    2.940419   -1.108377
 P   -0.140041    1.781986   -0.178347
 O   -0.820650    1.593722    1.134401
 O    1.388916    2.268845   -0.041625
 C   -0.168461    0.371307   -1.305251
 C    0.256030   -0.992158   -0.700151
 C   -0.738320   -1.537736    0.342750
 C   -2.147863   -1.482981   -0.218358
 N   -3.030462   -0.668050    0.429639
 O   -2.761668   -0.227213    1.718504
 C   -4.428218   -0.591756    0.076592
 O   -2.440921   -2.044945   -1.267690
 C    1.690599   -0.935257   -0.197726
 C    2.016319   -0.627654    1.128896
 C    3.347932   -0.493395    1.523381
 C    4.375048   -0.670336    0.601352
 C    4.062925   -0.988787   -0.717449
 C    2.734630   -1.118712   -1.108129
 H   -0.915598    3.751965   -0.607872
 H    1.904359    1.670455    0.524877
 H    0.495983    0.625886   -2.137752
 H   -1.179905    0.293810   -1.716997
 H    0.222348   -1.688516   -1.544832
 H   -0.682011   -1.005220    1.288443
 H   -0.497013   -2.588535    0.531341
 H   -2.200891    0.570783    1.590872
 H   -4.545957   -1.025334   -0.916013
 H   -5.034334   -1.149652    0.798669
 H   -4.748511    0.453934    0.073040
 H    1.232345   -0.483884    1.866460
 H    3.577457   -0.258178    2.558557
 H    5.410819   -0.565921    0.909221
 H    4.855205   -1.135079   -1.445455
 H    2.500330   -1.361801   -2.141977
