37 
4y6s_ligand_dft.xyz
 C    2.042483    3.666769   -0.531730
 C   -1.562411   -0.347780   -0.031083
 C   -2.233297    0.482282   -0.927926
 C   -2.324031   -1.174389    0.797091
 C   -3.711636   -1.175282    0.720973
 O    2.630446   -0.931396   -1.490962
 P    2.336042   -1.672342   -0.230727
 O    3.190166   -1.121709    1.024003
 O    2.687783   -3.237384   -0.218631
 C    0.587435   -1.685772    0.226561
 C   -0.049324   -0.291285    0.060996
 C    0.390528    0.692356    1.187545
 C    0.558296    2.108225    0.669564
 N    1.623783    2.324537   -0.187719
 O    2.695132    1.429858   -0.135624
 O   -0.234737    3.001383    0.906081
 C   -4.385772   -0.349380   -0.181208
 C   -5.890022   -0.377568   -0.282447
 C   -3.622039    0.482404   -1.000339
 H    2.489226    3.659810   -1.528683
 H    2.773150    4.047381    0.191521
 H    1.156848    4.300812   -0.523746
 H   -1.661824    1.144513   -1.573527
 H   -1.834624   -1.826022    1.516940
 H   -4.282867   -1.828531    1.376375
 H    3.304891   -0.156363    0.932087
 H    3.603201   -3.403938   -0.484614
 H    0.097726   -2.398237   -0.445871
 H    0.490133   -2.071846    1.246490
 H    0.310280    0.099817   -0.897092
 H   -0.379197    0.737797    1.959753
 H    1.315033    0.355598    1.660444
 H    2.635794    0.867667   -0.939205
 H   -6.352463   -0.557207    0.693241
 H   -6.222846   -1.176455   -0.956051
 H   -6.281521    0.566321   -0.673789
 H   -4.119628    1.142758   -1.706264
