37 
4y6s_ligand_xtb.xyz
 C    2.046262    3.597256   -0.611706
 C   -1.564275   -0.320826   -0.024859
 C   -2.226672    0.278706   -1.085868
 C   -2.320382   -0.928336    0.970016
 C   -3.700447   -0.937924    0.900389
 O    2.653907   -0.803867   -1.388372
 P    2.301356   -1.648126   -0.227545
 O    3.192077   -1.287713    1.059410
 O    2.612249   -3.194595   -0.437353
 C    0.543030   -1.672894    0.262308
 C   -0.058233   -0.282310    0.058163
 C    0.387285    0.687561    1.176646
 C    0.538594    2.082080    0.600726
 N    1.741349    2.349911    0.039890
 O    2.805772    1.450931    0.113667
 O   -0.355414    2.903546    0.584901
 C   -4.365549   -0.336400   -0.160386
 C   -5.861340   -0.361605   -0.243258
 C   -3.607812    0.272147   -1.151856
 H    2.293224    3.422167   -1.661396
 H    2.889610    4.082205   -0.118069
 H    1.160365    4.223061   -0.536980
 H   -1.656816    0.764690   -1.864418
 H   -1.830038   -1.395419    1.812018
 H   -4.270719   -1.414361    1.685367
 H    3.424795   -0.354108    1.062830
 H    3.416292   -3.315898   -0.944889
 H    0.051151   -2.394911   -0.390088
 H    0.456371   -2.017862    1.289927
 H    0.320912    0.086955   -0.902444
 H   -0.377383    0.727767    1.953088
 H    1.327052    0.362031    1.620562
 H    2.786840    0.861022   -0.679034
 H   -6.304621   -0.409855    0.748576
 H   -6.188645   -1.239091   -0.802433
 H   -6.235351    0.521870   -0.755170
 H   -4.104321    0.751094   -1.983426
