53 
4y79_ligand_dft.xyz
 C   -0.841500    3.939011   -0.520640
 C   -0.885614    2.431672   -0.777338
 C   -0.217385    1.646297    0.380621
 O   -0.915955    1.081286    1.220697
 N    1.134758    1.646490    0.456886
 C    2.075711    2.192030   -0.512267
 C    3.046910    3.130792    0.201303
 O    3.701316    2.476536    1.261649
 C    2.779359    1.982950    2.213395
 C    1.805106    0.997161    1.579828
 N   -2.244804    1.955392   -0.924813
 C   -3.356068    2.429111   -0.102282
 C   -4.477348    1.440558   -0.456182
 C   -3.720978    0.144660   -0.745349
 N   -3.416013   -0.534662    0.518245
 S   -3.058555   -2.167990    0.539269
 O   -3.985001   -2.806235   -0.379431
 O   -2.985793   -2.527956    1.943847
 C   -1.436695   -2.269495   -0.149148
 C   -0.362726   -2.310886    0.638320
 C    1.017775   -2.163238    0.156368
 C    2.080298   -2.665896    0.914755
 C    3.398103   -2.508678    0.500917
 C    3.655158   -1.832696   -0.686681
Cl    5.305255   -1.610728   -1.213080
 C    2.616692   -1.316249   -1.456977
 C    1.304872   -1.474505   -1.029980
 C   -2.413291    0.668109   -1.356003
 O   -1.593012    0.046033   -2.012419
 H   -1.370324    4.470884   -1.316604
 H    0.189061    4.302034   -0.491574
 H   -1.306068    4.188892    0.437839
 H   -0.379522    2.194437   -1.716517
 H    2.636646    1.358990   -0.954262
 H    1.561853    2.718630   -1.316054
 H    2.497011    4.011621    0.575231
 H    3.823652    3.468273   -0.489274
 H    3.368882    1.491116    2.990480
 H    2.220607    2.817659    2.667250
 H    2.352947    0.123657    1.207891
 H    1.047589    0.665794    2.289449
 H   -3.093654    2.385609    0.961115
 H   -3.614927    3.460667   -0.356919
 H   -5.205259    1.319018    0.346967
 H   -4.995519    1.772342   -1.361479
 H   -4.248110   -0.553109   -1.395437
 H   -2.739776   -0.027662    1.094682
 H   -1.415177   -2.146470   -1.225621
 H   -0.508398   -2.438486    1.709337
 H    1.874416   -3.189548    1.844228
 H    4.217208   -2.902355    1.092465
 H    2.835763   -0.789989   -2.380124
 H    0.498334   -1.023886   -1.601947
