34 
4y85_ligand_xtb.xyz
 C   -3.699987    0.006760   -0.078468
 C   -2.824926    1.116868   -0.034242
 C   -3.153217    2.465623   -0.062938
 C    4.001602   -1.430077    0.171580
 C    5.356348   -1.640239    0.064258
 C    6.156247   -0.556486   -0.300801
 C    5.602174    0.683258   -0.568950
 C    4.230831    0.899470   -0.469653
 C    3.423997   -0.153320   -0.068539
 N   -4.313129   -3.350233   -0.170629
 C   -4.360842   -2.004400   -0.119796
 O   -3.220979   -1.285956   -0.034243
 N   -4.997717    0.019045   -0.178527
 N   -5.421761   -1.252600   -0.208485
 C   -1.389411    1.084574    0.121964
 C   -1.015050    2.499205    0.209888
 N   -2.074855    3.266804    0.018527
 C   -0.405020    0.162043   -0.024805
 C    0.958864    0.576322    0.105038
 C    1.186331    1.976797    0.331568
 N    0.248648    2.864058    0.373419
 C    2.004994   -0.337774    0.114937
 N    3.018707   -2.371422    0.483757
 C    1.888507   -1.757627    0.433231
 H   -4.134818    2.884955   -0.170346
 H    5.779475   -2.614363    0.250125
 H    7.223663   -0.692847   -0.389232
 H    6.242372    1.498658   -0.870531
 H    3.820048    1.864332   -0.725150
 H   -3.482200   -3.805016    0.167394
 H   -5.191915   -3.822068   -0.046580
 H   -0.625982   -0.844729   -0.349070
 H    2.179842    2.315492    0.584511
 H    0.969443   -2.272316    0.650753
