54 
4y94_ligand_xtb.xyz
 C    0.822709   -1.059316   -1.044576
 C    1.605330    0.254226   -0.979936
 C    0.799722    1.472597   -1.429270
 C   -0.423444    1.545022   -0.515711
 C   -1.289906    0.296250   -0.714714
 C   -0.512020   -0.958943   -0.290266
 O    1.674043   -1.953634   -0.387299
 P    1.811727   -3.541206   -0.573537
 O    0.598023   -4.362896   -0.652140
 O    2.651354   -3.629507   -1.927703
 O    2.780491   -3.854349    0.600785
 O    1.957343    0.476453    0.366415
 P    3.171267   -0.321669    1.086730
 O    2.922298   -1.535963    1.866339
 O    4.315583   -0.427192    0.036185
 O    3.541332    0.877660    2.093358
 O    1.551546    2.647364   -1.380026
 P    2.829168    2.948166   -0.442953
 O    3.988080    2.070243   -0.641970
 O    2.315692    3.126875    1.041323
 O    3.100104    4.419476   -0.916659
 O   -1.187713    2.689520   -0.777875
 P   -2.206632    3.230725    0.336768
 O   -3.625180    3.238102   -0.046287
 O   -1.853572    2.555899    1.724137
 O   -1.628434    4.691515    0.527836
 O   -2.417006    0.496439    0.086425
 P   -3.894704   -0.103383   -0.336045
 O   -3.843633   -1.328348   -1.136648
 O   -4.598659    1.060615   -1.088300
 O   -4.549177   -0.175560    1.086219
 O   -1.243138   -2.105458   -0.581130
 P   -2.091374   -2.815044    0.619161
 O   -2.623410   -1.851069    1.598128
 O   -1.109071   -3.830182    1.276354
 O   -3.119616   -3.670954   -0.188673
 H    0.631348   -1.376577   -2.074618
 H    2.515719    0.163837   -1.584606
 H    0.480265    1.360538   -2.472232
 H   -0.076841    1.574024    0.522902
 H   -1.598372    0.191270   -1.762422
 H   -0.312359   -0.899283    0.787366
 H    2.437164   -4.435840   -2.396007
 H    2.948372   -3.059511    1.157840
 H    4.474507    0.463361   -0.351441
 H    3.732303    0.516342    2.960366
 H    2.648042    2.421444    1.608688
 H    2.336066    4.987107   -0.809469
 H   -2.337738    1.737412    1.861563
 H   -2.337199    5.314806    0.682943
 H   -4.400355    1.947504   -0.706098
 H   -4.057332   -0.873588    1.566047
 H   -0.525409   -4.243664    0.601822
 H   -3.642561   -3.052408   -0.727981
