93 
4ya8_ligand_xtb.xyz
 O   -0.987135   -1.399210    1.737759
 C   -1.153486   -0.331395    1.133270
 C   -0.022209    0.463950    0.625471
 C    1.157552   -0.220809    0.340789
 C   -0.105517    1.833147    0.413772
 C    0.978012    2.542822   -0.121065
 N    0.892629    3.897845   -0.333444
 C   -0.323273    4.517486   -0.544720
 C   -0.483064    5.844641   -0.451943
 C    0.641155    6.665543   -0.068501
 C    1.858514    6.130589   -0.027717
 C    2.107708    4.698712   -0.413889
 C    2.151316    1.832036   -0.418702
 C    2.241543    0.471243   -0.175477
 C    3.456847   -0.300536   -0.605465
 N    4.572562   -0.145927    0.129584
 C    4.612455    0.581635    1.380585
 C    4.160971   -0.282537    2.562946
 C    4.268274    0.481784    3.875530
 C    5.776473   -0.852069   -0.272990
 C    6.729152    0.053960   -1.055199
 C    7.988466   -0.697874   -1.464163
 O    3.392540   -1.021059   -1.588902
 N   -2.387651    0.108606    0.839312
 C   -3.612407   -0.478078    1.339645
 C   -4.600236    0.657892    1.683478
 C   -4.859175    1.555437    0.502507
 C   -5.843239    1.253056   -0.434011
 C   -6.032898    2.057976   -1.545204
 C   -5.243556    3.179493   -1.735891
 C   -4.277843    3.504604   -0.798856
 C   -4.087701    2.698198    0.310646
 C   -4.232660   -1.482224    0.313285
 O   -3.869383   -1.161024   -1.008060
 C   -3.798266   -2.940372    0.535596
 N   -2.362223   -3.055748    0.292613
 C   -1.669493   -4.378319    0.253591
 C   -1.369764   -4.809860    1.683660
 C   -2.505675   -5.418427   -0.489553
 C   -0.407627   -4.093746   -0.559011
 N   -0.492307   -3.008574   -1.327141
 C    0.533706   -2.672379   -2.089205
 C    1.708771   -3.406343   -2.132114
 C    1.795936   -4.539754   -1.341232
 C    0.718417   -4.898755   -0.541431
 H    1.213476   -1.284535    0.509245
 H   -0.986868    2.375296    0.717895
 H   -1.138853    3.860175   -0.807936
 H   -1.437344    6.302636   -0.646561
 H    0.468598    7.698665    0.185534
 H    2.731042    6.699235    0.250752
 H    2.528862    4.664053   -1.435354
 H    2.850459    4.268031    0.267062
 H    2.991406    2.334900   -0.870773
 H    5.638916    0.917710    1.542563
 H    3.972883    1.464561    1.317429
 H    3.127034   -0.594478    2.399922
 H    4.778324   -1.181559    2.609883
 H    5.295294    0.788994    4.057858
 H    3.642504    1.371199    3.852049
 H    3.945890   -0.142145    4.704529
 H    6.272054   -1.245080    0.617924
 H    5.469573   -1.687200   -0.906961
 H    6.211690    0.419224   -1.944119
 H    7.000448    0.918047   -0.444043
 H    8.520244   -1.061369   -0.587671
 H    8.654266   -0.045609   -2.022646
 H    7.736175   -1.549350   -2.091218
 H   -2.494313    0.939227    0.274132
 H   -3.367360   -1.020972    2.259841
 H   -4.173829    1.243882    2.499451
 H   -5.531756    0.215331    2.038090
 H   -6.492440    0.402448   -0.279862
 H   -6.806032    1.813208   -2.257177
 H   -5.394153    3.807421   -2.599657
 H   -3.678885    4.393698   -0.925089
 H   -3.359316    2.982936    1.058213
 H   -5.324053   -1.459878    0.436096
 H   -4.330045   -0.358608   -1.284740
 H   -4.343893   -3.558303   -0.179233
 H   -4.040832   -3.258016    1.551168
 H   -2.103964   -2.627081   -0.632335
 H   -1.835972   -2.461789    1.014857
 H   -0.744376   -4.071206    2.179917
 H   -0.855129   -5.764924    1.698319
 H   -2.294065   -4.925253    2.244822
 H   -2.810002   -5.041612   -1.463369
 H   -1.906996   -6.310839   -0.650144
 H   -3.384203   -5.703301    0.083548
 H    0.406703   -1.774632   -2.676603
 H    2.529087   -3.078809   -2.746158
 H    2.691324   -5.142171   -1.340785
 H    0.766105   -5.779614    0.077874
