93 
4ya8_ligand_dft.xyz
 O   -0.219761   -1.677022    1.799726
 C   -0.837693   -0.744120    1.259195
 C   -0.151042    0.489257    0.795203
 C    1.218844    0.395734    0.568968
 C   -0.831881    1.678585    0.548904
 C   -0.155113    2.784094    0.014297
 N   -0.850492    3.950856   -0.277471
 C   -2.184907    3.901001   -0.672895
 C   -2.959520    4.999244   -0.679173
 C   -2.403200    6.250816   -0.184440
 C   -1.083296    6.363744   -0.000772
 C   -0.152065    5.235303   -0.371220
 C    1.223089    2.672788   -0.222539
 C    1.909679    1.498305    0.075690
 C    3.361050    1.431180   -0.332722
 N    4.248727    0.764695    0.455285
 C    4.013083    0.357723    1.836752
 C    3.982727   -1.163021    2.034743
 C    3.332529   -1.545626    3.362499
 C    5.624754    0.672682   -0.032120
 C    6.459768    1.916120    0.275027
 C    7.894963    1.767667   -0.224696
 O    3.692834    1.943175   -1.399283
 N   -2.149659   -0.854974    0.961908
 C   -3.016177   -1.944748    1.375465
 C   -4.343477   -1.362249    1.919525
 C   -5.022040   -0.415653    0.955149
 C   -5.925439   -0.878869   -0.009035
 C   -6.471111   -0.006995   -0.950115
 C   -6.128903    1.343072   -0.935337
 C   -5.255795    1.822205    0.037430
 C   -4.711329    0.948431    0.975156
 C   -3.241680   -2.965417    0.217363
 O   -3.311584   -2.344240   -1.045384
 C   -2.137039   -4.014372    0.071550
 N   -0.866648   -3.336343   -0.274702
 C    0.345591   -4.109851   -0.744654
 C    0.929153   -4.861529    0.447574
 C   -0.043738   -5.050371   -1.886421
 C    1.269011   -3.005666   -1.284758
 N    0.621476   -2.010452   -1.900398
 C    1.329668   -1.017296   -2.437197
 C    2.719156   -0.969179   -2.390998
 C    3.386606   -1.998578   -1.741271
 C    2.654224   -3.042484   -1.178381
 H    1.713435   -0.550784    0.747875
 H   -1.878438    1.785983    0.814819
 H   -2.545799    2.929211   -0.996272
 H   -3.978517    4.944577   -1.043754
 H   -3.070538    7.073902    0.050776
 H   -0.635897    7.272263    0.389057
 H    0.263331    5.383518   -1.384070
 H    0.693573    5.209259    0.322935
 H    1.773707    3.483164   -0.686673
 H    4.801721    0.793182    2.463284
 H    3.075624    0.798388    2.180107
 H    3.431991   -1.622431    1.205170
 H    5.001703   -1.564783    1.983936
 H    3.817505   -1.039363    4.204452
 H    2.270917   -1.273847    3.364457
 H    3.404741   -2.622910    3.540185
 H    6.080005   -0.213394    0.424466
 H    5.589379    0.514139   -1.113262
 H    5.980264    2.777004   -0.201255
 H    6.459609    2.100187    1.356857
 H    8.395330    0.914215    0.247364
 H    8.481431    2.663262   -0.001227
 H    7.920474    1.614832   -1.309273
 H   -2.565310   -0.149602    0.369567
 H   -2.510193   -2.456862    2.199609
 H   -4.115434   -0.836672    2.851889
 H   -5.008452   -2.194171    2.175975
 H   -6.227249   -1.925117   -0.007608
 H   -7.175818   -0.381112   -1.686155
 H   -6.557017    2.021102   -1.666405
 H   -4.999974    2.876977    0.079396
 H   -4.052628    1.334083    1.750407
 H   -4.162285   -3.525228    0.438625
 H   -4.080971   -1.755437   -1.074091
 H   -2.408450   -4.692626   -0.737621
 H   -1.997276   -4.578654    0.995813
 H   -1.039299   -2.629408   -1.014387
 H   -0.554556   -2.800726    0.565539
 H    1.239652   -4.173284    1.240290
 H    1.795070   -5.450041    0.135331
 H    0.198750   -5.567388    0.854966
 H   -0.573218   -4.509714   -2.677045
 H    0.865349   -5.474659   -2.320337
 H   -0.662222   -5.881683   -1.534768
 H    0.760906   -0.221039   -2.908107
 H    3.249414   -0.121950   -2.809685
 H    4.468925   -1.988079   -1.659988
 H    3.160307   -3.851617   -0.664459
