59 
4yay_ligand_xtb.xyz
 C  -16.684084   13.604722   41.850230
 C  -18.187483   14.476030   40.357475
 C  -19.203829   15.560088   40.128066
 C  -20.599437   15.089433   40.542245
 O  -17.139086   10.317810   36.976795
 N  -17.594837   14.512280   41.545397
 C  -18.564008   13.399400   38.065028
 C  -18.754151   11.927744   37.722392
 C  -17.438348   11.185828   37.769474
 C  -15.373645   10.791802   38.958930
 C  -15.410334    9.817146   40.107085
 C  -16.586156    9.159848   40.446614
 C  -16.621635    8.291225   41.520970
 C  -14.261949    9.567246   40.851109
 C  -14.290120    8.689599   41.917005
 C  -15.473829    8.043156   42.267699
 N  -16.608692   11.539602   38.800180
 C  -15.516256    7.144584   43.435531
 C  -16.415347    7.412676   44.462194
 C  -16.438189    6.640022   45.608649
 C  -15.549914    5.585594   45.752490
 C  -14.659378    5.294344   44.738304
 C  -14.643914    6.056685   43.571200
 C  -13.730412    5.654797   42.520040
 N  -13.901529    5.815468   41.177919
 N  -12.848339    5.255383   40.573719
 C  -16.078956   13.670639   43.222677
 N  -12.097063    4.791806   41.478609
 C  -16.539014   12.489290   44.077700
 N  -12.595094    5.006144   42.685630
 C  -16.307159   12.604985   40.962424
 C  -16.938908   12.530467   39.727236
 C  -17.909491   13.492511   39.412404
 H  -19.204074   15.874180   39.083785
 H  -18.922184   16.411514   40.747899
 H  -21.324125   15.887594   40.400424
 H  -20.913856   14.228280   39.956254
 H  -20.594569   14.805625   41.591495
 H  -17.921036   13.872093   37.314024
 H  -19.525300   13.909577   38.051209
 H  -19.426952   11.462835   38.450729
 H  -19.184882   11.794108   36.729748
 H  -15.237000   10.239954   38.021056
 H  -14.540526   11.491005   39.078880
 H  -17.482179    9.332382   39.869260
 H  -17.542401    7.789099   41.780388
 H  -13.340720   10.072658   40.599322
 H  -13.395827    8.516048   42.498244
 H  -17.087210    8.252774   44.360455
 H  -17.142946    6.867333   46.394421
 H  -15.556072    4.989214   46.651847
 H  -13.966091    4.472162   44.822463
 H  -14.648192    6.257393   40.665742
 H  -14.989576   13.657780   43.142988
 H  -16.386407   14.606320   43.688915
 H  -16.107485   12.553902   45.073573
 H  -17.622718   12.492344   44.168239
 H  -16.233641   11.545517   43.629553
 H  -15.549444   11.898957   41.254671
