47 
4yb7_ligand_dft.xyz
 P   -4.370416   -0.770737   -0.127577
 O   -4.483905   -0.966799   -1.677825
 O   -5.874918   -0.477424    0.273728
 O   -3.684280   -1.812075    0.673614
 P   -2.251517    1.021253    0.778268
 O   -2.187368    2.571862    0.561335
 O   -2.097056    0.473326    2.129760
 O   -3.636639    0.683553    0.020164
 P   -0.910257   -1.031628   -0.806390
 O   -1.830245   -1.339385   -1.929009
 O   -1.010691   -2.001873    0.439472
 O   -1.109787    0.477878   -0.269201
 O    0.635894   -1.003784   -1.133334
 C    1.307139   -2.252353   -1.408388
 C    2.627936   -2.288780   -0.668383
 O    3.533795   -1.351269   -1.235406
 C    2.527223   -1.961844    0.827529
 O    2.457525   -3.164063    1.569241
 C    3.839381   -1.202615    1.094795
 O    4.884392   -2.122052    1.286786
 C    4.089256   -0.516952   -0.248787
 N    3.516987    0.823228   -0.375764
 C    3.727223    1.590078   -1.504784
 N    2.944143    2.624948   -1.610987
 C    2.147341    2.534702   -0.489958
 C    1.043090    3.294588   -0.073718
 N    0.601318    4.355424   -0.773976
 N    0.411262    2.933850    1.057594
 C    0.874737    1.870222    1.748224
 N    1.880939    1.074506    1.437327
 C    2.474036    1.429830    0.286630
 H   -3.573642   -1.139948   -2.034881
 H   -6.037825   -0.703174    1.200107
 H   -1.293076    2.908864    0.890068
 H   -1.961877   -2.134429    0.693287
 H    0.695378   -3.098044   -1.080284
 H    1.467028   -2.311619   -2.486522
 H    3.048801   -3.296174   -0.781684
 H    1.674924   -1.312119    1.035597
 H    1.867607   -3.024079    2.318379
 H    3.756302   -0.493902    1.924852
 H    4.470153   -2.897514    1.699221
 H    5.160768   -0.426924   -0.439206
 H    4.485974    1.307448   -2.222701
 H   -0.277453    4.783500   -0.528844
 H    0.980362    4.519173   -1.693681
 H    0.318971    1.627500    2.648824
