36 
4ybi_ligand_dft.xyz
 C    1.019126    0.919235    0.379530
 C   -1.413112    0.754568    0.029904
 C    0.938031    2.236783   -0.074257
 C   -0.246424    2.827665   -0.475747
 C   -1.405114    2.072049   -0.422987
 F   -2.544099    2.643710   -0.838086
 F    2.049843    2.995934   -0.138327
 C   -0.184006    0.217188    0.428942
 C    2.350938    0.271515    0.807457
 C    2.921567    1.005256    2.028420
 C    3.372412    0.300790   -0.344386
 C    2.867675   -0.399170   -1.595992
 S    2.439227   -2.151176   -1.305488
 C    1.844986   -2.169830    0.378819
 N    2.171864   -1.117648    1.208949
 N    1.201132   -3.159449    0.863137
 C   -2.637522   -0.073928    0.059333
 C   -3.891053    0.415092    0.436284
 N   -4.981168   -0.349061    0.475483
 C   -4.814346   -1.625722    0.132414
 N   -3.679081   -2.212898   -0.243537
 C   -2.602858   -1.429592   -0.278246
 H   -0.264101    3.850343   -0.832104
 H   -0.178986   -0.801320    0.801303
 H    3.106611    2.055756    1.797004
 H    3.859699    0.534860    2.336811
 H    2.215375    0.960965    2.864913
 H    4.290691   -0.177519    0.011720
 H    3.604508    1.338975   -0.593002
 H    3.642551   -0.412667   -2.366227
 H    1.993049    0.115016   -2.003604
 H    1.759723   -1.257297    2.125002
 H    1.074128   -3.903434    0.180147
 H   -4.021189    1.455517    0.720878
 H   -5.699926   -2.255868    0.161948
 H   -1.672500   -1.899309   -0.594423
