74 
4ybj_ligand_dft.xyz
 O    4.873824   -0.220081    0.338644
 C    6.015052    0.204935    0.341899
 C    7.191254   -0.730321    0.427687
 C    8.415090   -0.384026    1.002328
 C    9.451608   -1.311485    1.058796
 C    9.273095   -2.587644    0.541231
 C    8.045319   -2.939447   -0.018971
 C    7.838956   -4.345402   -0.518794
 F    8.944049   -4.821924   -1.116404
 F    6.833728   -4.422481   -1.403414
 F    7.546874   -5.183899    0.490727
 C    7.005758   -2.021214   -0.067440
 N    6.347767    1.534416    0.252708
 C    5.500354    2.656894    0.198065
 C    6.119124    3.910638    0.155463
 C    5.343061    5.058633    0.107470
 C    3.958362    4.973231    0.102079
 C    4.107467    2.548373    0.190110
 C    3.345773    3.717839    0.141613
 N    1.935369    3.700874    0.150623
 C    1.094698    2.631541   -0.006179
 O    1.448456    1.483160   -0.214742
 C   -0.350355    2.957488    0.093979
 C   -1.028389    4.037392    0.576623
 N   -2.393478    3.956455    0.550461
 C   -2.751985    2.804812    0.049635
 S   -1.473747    1.732371   -0.418587
 N   -4.109062    2.530076   -0.048385
 C   -4.707838    1.401388   -0.524945
 C   -6.105690    1.279234   -0.523037
 C   -6.603492    0.082415   -1.020558
 N   -5.806512   -0.887192   -1.493031
 C   -4.491412   -0.657712   -1.468629
 C   -3.586529   -1.710356   -2.032918
 N   -3.908328    0.436327   -0.984111
 N   -7.981224   -0.180382   -1.074027
 C   -8.808385    0.203326    0.051071
 C   -8.713576   -0.834248    1.173185
 N   -9.112800   -2.190608    0.652190
 C   -8.294830   -2.571368   -0.568259
 C   -8.394051   -1.464741   -1.612283
 C   -9.144977   -3.265703    1.715501
 C   -7.957128   -3.246902    2.662691
 O   -6.778849   -3.272538    1.896542
 H    8.561607    0.597667    1.445148
 H   10.398530   -1.038625    1.512866
 H   10.081579   -3.310297    0.573927
 H    6.042284   -2.286704   -0.487558
 H    7.328860    1.740702    0.140769
 H    7.203364    3.987009    0.162728
 H    5.822572    6.031646    0.074456
 H    3.356973    5.877966    0.062830
 H    3.635091    1.579181    0.207416
 H    1.502542    4.611935    0.176542
 H   -0.580615    4.931328    0.997060
 H   -4.684378    3.291175    0.286587
 H   -6.736780    2.097773   -0.198567
 H   -4.129105   -2.643071   -2.192519
 H   -3.184669   -1.367221   -2.992337
 H   -2.734850   -1.874024   -1.368051
 H   -9.846709    0.312299   -0.287682
 H   -8.509224    1.170047    0.454871
 H   -9.369505   -0.596189    2.014940
 H   -7.681306   -0.927265    1.516209
 H  -10.078323   -2.099048    0.320631
 H   -8.698163   -3.518038   -0.935661
 H   -7.268095   -2.710723   -0.231982
 H   -7.753634   -1.732340   -2.451266
 H   -9.423660   -1.366194   -1.981224
 H   -9.198034   -4.217691    1.183266
 H  -10.066456   -3.125745    2.287029
 H   -8.061828   -4.132345    3.303800
 H   -8.001180   -2.364155    3.315960
 H   -6.016366   -3.391765    2.476007
