68 
4ybk_ligand_dft.xyz
 O    2.437045    0.267725   -0.490065
 C    2.416861   -0.848320    0.009767
 N    3.518322   -1.591721    0.317661
 C    4.881531   -1.245352    0.174230
 C    5.825677   -2.210674    0.535683
 C    7.182571   -1.947010    0.436157
 C    7.613600   -0.709959   -0.035455
 O    8.965889   -0.540366   -0.169751
 C    9.514055    0.715681   -0.029893
 C    9.199582    1.537446    1.050574
 C    9.835202    2.768489    1.172738
 C   10.782405    3.172455    0.234511
 C   11.092902    2.336374   -0.834389
 C   10.456716    1.106596   -0.973979
 C    6.679653    0.254316   -0.405107
 C    5.317662   -0.005458   -0.297998
 C    1.118275   -1.496588    0.323180
 C    0.778171   -2.575793    1.083857
 N   -0.556612   -2.860083    1.170105
 C   -1.234259   -1.987130    0.474804
 S   -0.315306   -0.754821   -0.326174
 N   -2.616487   -2.111034    0.443575
 C   -3.520345   -1.324418   -0.205990
 C   -4.893597   -1.601521   -0.127279
 C   -5.722474   -0.729548   -0.818776
 N   -5.246339    0.303786   -1.530889
 C   -3.920373    0.460289   -1.558855
 C   -3.364926    1.578607   -2.387933
 N   -3.039372   -0.297299   -0.910637
 N   -7.116594   -0.889334   -0.830653
 C   -7.889030    0.064021   -1.605108
 C   -8.105420    1.359125   -0.828287
 N   -8.781888    1.056213    0.487206
 C   -8.013743    0.014049    1.272181
 C   -7.793257   -1.227607    0.406078
 C   -9.118387    2.289850    1.294265
 C   -7.998072    3.312263    1.372705
 O   -6.845752    2.671428    1.862410
 H    3.353410   -2.535440    0.634150
 H    5.500396   -3.180475    0.905891
 H    7.919094   -2.691617    0.717405
 H    8.466898    1.212245    1.782237
 H    9.593310    3.411522    2.013631
 H   11.277768    4.132505    0.338566
 H   11.831506    2.642151   -1.569071
 H   10.681817    0.440802   -1.800326
 H    7.012779    1.215753   -0.780883
 H    4.595279    0.743314   -0.590078
 H    1.466797   -3.205625    1.636618
 H   -2.946001   -2.905313    0.975746
 H   -5.257817   -2.474929    0.399947
 H   -2.867995    1.163796   -3.271326
 H   -4.159214    2.251281   -2.714520
 H   -2.608099    2.129003   -1.823296
 H   -8.848517   -0.400159   -1.868341
 H   -7.359718    0.303722   -2.525911
 H   -8.739406    2.068935   -1.366110
 H   -7.139318    1.809774   -0.597364
 H   -9.681220    0.622806    0.254749
 H   -8.601682   -0.211624    2.165351
 H   -7.073542    0.481905    1.564402
 H   -7.220744   -1.949361    0.988056
 H   -8.751110   -1.707514    0.166637
 H   -9.391119    1.939882    2.292317
 H   -9.994118    2.747672    0.826657
 H   -8.353417    4.105212    2.044517
 H   -7.825830    3.769304    0.388865
 H   -6.145848    3.322542    1.994836
