68 
4ybk_ligand_xtb.xyz
 O    2.278318    0.097300   -0.450947
 C    2.305035   -1.020237    0.029644
 N    3.429752   -1.704285    0.376563
 C    4.767637   -1.308444    0.254845
 C    5.748165   -2.186499    0.714510
 C    7.082745   -1.855401    0.626808
 C    7.466992   -0.636097    0.072116
 O    8.807567   -0.407232   -0.042241
 C    9.308596    0.871227   -0.021386
 C    8.777558    1.880190    0.774340
 C    9.380908    3.124638    0.793205
 C   10.512286    3.369642    0.034078
 C   11.049139    2.357329   -0.744076
 C   10.452348    1.111419   -0.775799
 C    6.490176    0.233240   -0.403760
 C    5.152172   -0.096313   -0.309409
 C    1.052824   -1.751212    0.282829
 C    0.766173   -2.961278    0.852419
 N   -0.542577   -3.285090    0.908374
 C   -1.272568   -2.347255    0.388643
 S   -0.418217   -0.964417   -0.218964
 N   -2.637330   -2.451906    0.337088
 C   -3.448033   -1.512925   -0.211192
 C   -4.841284   -1.668209   -0.247043
 C   -5.545230   -0.631843   -0.838786
 N   -4.933998    0.449588   -1.336516
 C   -3.610972    0.499986   -1.266146
 C   -2.919867    1.681765   -1.846880
 N   -2.857269   -0.430203   -0.712274
 N   -6.928482   -0.670896   -1.003033
 C   -7.518813    0.410044   -1.754466
 C   -7.746884    1.629095   -0.858145
 N   -8.637133    1.246623    0.268156
 C   -8.027886    0.127697    1.035646
 C   -7.765656   -1.063118    0.100298
 C   -9.040136    2.395249    1.128055
 C   -7.885080    3.315573    1.534374
 O   -6.856413    2.549718    2.114668
 H    3.304612   -2.624846    0.772125
 H    5.460743   -3.134969    1.146486
 H    7.845861   -2.531282    0.978508
 H    7.905382    1.685368    1.381528
 H    8.964525    3.905233    1.412516
 H   10.977255    4.343416    0.054016
 H   11.936096    2.538582   -1.332226
 H   10.858572    0.310854   -1.374003
 H    6.778464    1.167603   -0.861646
 H    4.402115    0.582019   -0.679098
 H    1.465521   -3.670287    1.259237
 H   -3.027009   -3.307701    0.707480
 H   -5.309790   -2.559550    0.132695
 H   -2.559404    1.423526   -2.841413
 H   -3.601016    2.522988   -1.930284
 H   -2.055066    1.935546   -1.241311
 H   -8.461035    0.059746   -2.188591
 H   -6.831651    0.684380   -2.554618
 H   -8.200834    2.448838   -1.415678
 H   -6.779848    1.934809   -0.456551
 H   -9.496464    0.871299   -0.152305
 H   -8.704184   -0.163365    1.840664
 H   -7.093933    0.490309    1.467936
 H   -7.291575   -1.859511    0.671520
 H   -8.712321   -1.447884   -0.296545
 H   -9.502393    1.986662    2.028940
 H   -9.777154    2.994875    0.590662
 H   -8.294333    4.040047    2.248869
 H   -7.510798    3.872686    0.665126
 H   -6.227444    3.126598    2.560692
