61 
4yc8_ligand_xtb.xyz
 O   -1.539089    0.337489    0.220206
 C   -1.523594   -0.866999    0.048335
 N   -2.619179   -1.670030   -0.027258
 C   -3.970254   -1.316856    0.082709
 C   -4.916439   -2.337687    0.004828
 C   -6.261849   -2.055417    0.099254
 C   -6.690629   -0.741316    0.275780
 O   -8.032239   -0.542438    0.424444
 C   -8.607133    0.645286    0.041100
 C   -8.203956    1.345761   -1.090337
 C   -8.873152    2.500004   -1.454256
 C   -9.944052    2.957332   -0.705469
 C  -10.353496    2.248323    0.411644
 C   -9.689945    1.095973    0.788313
 C   -5.746098    0.276347    0.370695
 C   -4.398163   -0.006526    0.271208
 C   -0.242081   -1.578071   -0.093494
 C    0.094754   -2.868883   -0.395602
 N    1.417764   -3.130090   -0.444307
 C    2.108277   -2.063882   -0.182601
 S    1.194949   -0.625052    0.144769
 N    3.479096   -2.085845   -0.176730
 C    4.251149   -1.009656    0.105788
 C    5.653750   -1.083984    0.111134
 C    6.311645    0.090851    0.427875
 N    5.659880    1.228209    0.695641
 C    4.333177    1.198178    0.672602
 C    3.596250    2.455067    0.967775
 N    3.618620    0.129220    0.380045
 N    7.705366    0.152602    0.531950
 C    8.249849    1.365151    1.094507
 C    8.328703    2.472249    0.041901
 N    9.152886    1.980769   -1.099547
 C    8.592604    0.727110   -1.673456
 C    8.501485   -0.334372   -0.563653
 H   -2.458006   -2.658112   -0.159239
 H   -4.593828   -3.360267   -0.133296
 H   -6.998433   -2.840919    0.042645
 H   -7.378456    0.980304   -1.684028
 H   -8.556491    3.040615   -2.333774
 H  -10.461283    3.859100   -0.995243
 H  -11.192238    2.595341    0.996054
 H   -9.996824    0.530421    1.654186
 H   -6.067345    1.294134    0.534035
 H   -3.673768    0.786383    0.347435
 H   -0.576108   -3.683352   -0.604417
 H    3.904224   -2.983606   -0.363688
 H    6.165266   -2.011808   -0.077819
 H    2.766230    2.238227    1.634067
 H    4.259597    3.191572    1.410189
 H    3.172375    2.851428    0.046729
 H    9.240836    1.143984    1.502639
 H    7.594829    1.692311    1.901434
 H    8.774638    3.378323    0.451021
 H    7.316181    2.684759   -0.307094
 H   10.100742    1.784449   -0.751157
 H    9.222685    2.703461   -1.824427
 H    9.224884    0.383775   -2.493134
 H    7.592414    0.943652   -2.054667
 H    8.060570   -1.241205   -0.975168
 H    9.502910   -0.580282   -0.194806
