95 
4ycm_ligand_dft.xyz
 C    6.317808   -2.850602   -1.886572
 O    5.084066   -3.527141   -1.892244
 C    4.033751   -2.766356   -1.332639
 C    2.725082   -3.509680   -1.665061
 C    1.566591   -2.650582   -1.259731
 C    0.860313   -1.880585   -2.084736
 C   -0.053103   -0.806486   -1.572676
 O    0.550182    0.423781   -1.997163
 C    0.568129    1.461043   -1.086242
 C    1.793892    2.317792   -1.403420
 O    2.956734    1.527470   -1.279129
 C    1.815281    3.477499   -0.419592
 O    2.817132    4.438152   -0.664456
 C    4.089483    4.115479   -0.135060
 C    0.484708    4.229585   -0.498922
 O    0.438584    5.241637    0.476690
 C   -0.692480    3.279408   -0.271910
 C   -2.036492    3.960041   -0.489076
 O   -3.130078    3.125162   -0.201328
 O   -0.622526    2.197711   -1.192849
 C   -1.502156   -0.868126   -2.061632
 C   -2.468514   -0.073321   -1.205197
 O   -3.398161    0.575778   -1.639125
 O   -2.197908   -0.246217    0.085980
 C   -3.169129    0.136435    1.101779
 C   -2.425747    0.960739    2.166633
 C   -1.036727    0.467200    2.436010
 C   -0.621426   -0.173450    3.532290
 C    0.747537   -0.667023    3.735248
 C    1.564895   -1.121045    2.778133
 C    2.961614   -1.609876    3.025253
 C    4.050986   -0.943228    2.147851
 C    4.033417    0.580625    2.299921
 C    3.963556   -1.330110    0.686189
 C    4.212509   -2.535309    0.161622
 C    4.614661   -3.746608    0.963261
 C   -3.736417   -1.142078    1.635002
 C   -4.988980   -1.582885    1.480286
 C   -5.415900   -2.915180    2.035849
 C   -6.075366   -0.850418    0.712458
 C   -6.189746   -1.373908   -0.697520
 C   -7.179407   -2.147313   -1.140309
 C   -7.292031   -2.683688   -2.536757
 H    7.038288   -3.498834   -2.389619
 H    6.670065   -2.642111   -0.866120
 H    6.251501   -1.894916   -2.428735
 H    3.991842   -1.784249   -1.834379
 H    2.717010   -4.476777   -1.149295
 H    2.716349   -3.705201   -2.742206
 H    1.391091   -2.563085   -0.187810
 H    1.017030   -1.921055   -3.162800
 H   -0.053446   -0.848112   -0.477858
 H    0.676970    1.066598   -0.059492
 H    1.689816    2.709154   -2.425814
 H    2.783360    0.731514   -1.804415
 H    1.930248    3.074559    0.601629
 H    4.515061    3.233496   -0.621950
 H    4.027498    3.929304    0.947340
 H    4.728500    4.983089   -0.313360
 H    0.397951    4.656739   -1.512110
 H    1.284576    5.705908    0.400294
 H   -0.637492    2.896550    0.759127
 H   -2.073903    4.331805   -1.524544
 H   -2.098578    4.819424    0.182596
 H   -3.171658    2.416998   -0.864796
 H   -1.845408   -1.909688   -2.020843
 H   -1.578264   -0.519420   -3.093270
 H   -3.924895    0.758888    0.625916
 H   -3.028913    0.942371    3.081242
 H   -2.395150    1.994908    1.810017
 H   -0.308830    0.661340    1.651377
 H   -1.323680   -0.329933    4.351824
 H    1.106907   -0.671644    4.765256
 H    1.203904   -1.171282    1.749119
 H    2.999263   -2.693968    2.856034
 H    3.215807   -1.447072    4.080512
 H    5.011613   -1.311067    2.536843
 H    4.869777    1.036289    1.759677
 H    4.100473    0.871995    3.353712
 H    3.106892    1.001194    1.892336
 H    3.663392   -0.527573    0.011117
 H    3.741196   -4.363273    1.213847
 H    5.103710   -3.475018    1.903046
 H    5.293586   -4.378308    0.383225
 H   -3.021826   -1.756790    2.182719
 H   -4.582673   -3.455075    2.494240
 H   -6.201735   -2.787399    2.791379
 H   -5.838210   -3.537555    1.237459
 H   -7.030989   -0.990846    1.233210
 H   -5.885488    0.226892    0.684601
 H   -5.381039   -1.088448   -1.370358
 H   -7.984124   -2.416100   -0.453423
 H   -7.326582   -3.780158   -2.538524
 H   -6.445274   -2.367379   -3.153992
 H   -8.213258   -2.335273   -3.019394
