71 
4ycn_ligand_dft.xyz
 C    5.517877   -3.260432   -1.710550
 C    5.351000   -1.964702   -0.972856
 C    5.358911   -0.760140   -1.541128
 C    5.182048    0.569171   -0.843691
 C    5.117561    0.491248    0.667141
 C    6.417497    0.732985    1.385119
 C    3.999898    0.186279    1.333725
 C    2.683437   -0.149531    0.699460
 C    2.131542   -1.500631    1.161526
 C    1.047257   -2.018432    0.266481
 C   -0.202921   -2.317181    0.635885
 C   -1.190471   -2.865265   -0.288972
 C   -2.457131   -3.193072   -0.001615
 C   -3.139172   -3.025804    1.328715
 C   -3.780918   -1.628283    1.491088
 C   -4.748746   -1.360901    0.366663
 C   -4.639294   -0.470397   -0.623930
 C   -5.713418   -0.320235   -1.670128
 C   -3.468410    0.495882   -0.746352
 C   -3.813954    1.856737   -0.141171
 C   -2.655789    2.790640    0.079457
 C   -1.426574    2.669943   -0.416124
 C   -0.296495    3.614021   -0.084468
 C    0.686276    2.963346    0.891709
 C    1.509571    1.873195    0.248725
 O    1.714808    0.854206    1.092359
 O    1.956307    1.933569   -0.876253
 O   -0.730152    4.806042    0.545056
 O   -3.110376    0.705618   -2.101981
 C   -2.398765   -0.376912   -2.649030
 C   -4.484663   -1.508034    2.847371
 H    4.646860   -3.911563   -1.566110
 H    5.646163   -3.098170   -2.785485
 H    6.391270   -3.813311   -1.343605
 H    5.217320   -2.038045    0.106458
 H    5.496442   -0.690276   -2.621133
 H    6.020138    1.219286   -1.129974
 H    4.283745    1.061284   -1.237508
 H    6.789674    1.746115    1.188768
 H    6.320407    0.604475    2.466958
 H    7.182721    0.035966    1.020508
 H    4.016980    0.145891    2.423091
 H    2.762247   -0.141469   -0.388407
 H    2.968969   -2.210876    1.153027
 H    1.786326   -1.416223    2.198569
 H    1.337207   -2.173834   -0.774764
 H   -0.501425   -2.155780    1.671122
 H   -0.839579   -3.016043   -1.309745
 H   -3.077527   -3.571064   -0.811294
 H   -2.436286   -3.188383    2.154728
 H   -3.922945   -3.787887    1.433661
 H   -2.967608   -0.895232    1.468458
 H   -5.641077   -1.992196    0.388072
 H   -6.525715   -1.034671   -1.508575
 H   -6.139738    0.690362   -1.657474
 H   -5.308489   -0.471212   -2.676026
 H   -2.594899    0.091286   -0.215935
 H   -4.303840    1.678628    0.824681
 H   -4.567799    2.343120   -0.775592
 H   -2.861279    3.632754    0.740016
 H   -1.173887    1.853743   -1.089311
 H    0.255773    3.846203   -1.006874
 H    1.391074    3.732389    1.231139
 H    0.158052    2.580654    1.767544
 H   -1.358147    5.229022   -0.053856
 H   -1.439041   -0.526387   -2.130917
 H   -2.208859   -0.138654   -3.697963
 H   -2.966937   -1.316963   -2.586686
 H   -4.908301   -0.507453    2.981837
 H   -3.785711   -1.698778    3.669525
 H   -5.303893   -2.233157    2.927339
