147 
4yef_ligand_xtb.xyz
 O   -6.754487    3.941332    0.556732
 C   -6.477916    2.690366   -0.036927
 C   -5.026215    2.328412    0.321053
 C   -4.027058    3.233210   -0.428097
 O   -2.792571    3.284712    0.270206
 C   -2.530634    4.471916    0.976035
 C   -1.895660    5.545863    0.067631
 O   -2.746588    5.848553   -1.008124
 C   -0.540230    5.035891   -0.427277
 O    0.048988    6.048751   -1.203742
 O   -1.685410    4.188493    2.042487
 C   -0.424861    3.641381    1.656815
 C    0.310604    3.266318    2.954177
 O    0.736298    1.930303    2.988332
 C    0.328835    4.656941    0.779670
 O    1.531690    4.122048    0.259055
 C    2.742807    4.631137    0.728697
 C    3.663924    4.873975   -0.480405
 O    2.990555    5.699512   -1.396399
 C    4.045339    3.533631   -1.110849
 O    4.931103    3.803507   -2.168113
 O    3.348788    3.776756    1.654094
 C    3.653869    2.490041    1.126267
 C    4.172911    1.631515    2.288092
 O    3.203267    0.745627    2.780280
 C    4.661176    2.629219   -0.028354
 O    4.924578    1.356112   -0.588913
 C    6.256836    1.021737   -0.866062
 C    6.318464    0.364551   -2.251627
 O    5.874738    1.279635   -3.221972
 C    5.430444   -0.872720   -2.201657
 O    5.487485   -1.515750   -3.451762
 O    6.784408    0.152688    0.089701
 C    6.076216   -1.072988    0.256987
 C    6.910998   -1.875044    1.264733
 O    7.956853   -2.546860    0.595519
 O   -4.761768    0.952549    0.155026
 C   -4.667611    0.544098   -1.201298
 C   -3.441780    1.220255   -1.845594
 O   -2.250672    0.926375   -1.189370
 C   -3.724324    2.736052   -1.858605
 O   -4.789532    2.989610   -2.741448
 O   -4.546935   -0.836433   -1.253545
 C   -5.772195   -1.550403   -1.214416
 C   -6.373387   -1.637105    0.196176
 C   -7.902318   -1.766046    0.104266
 O   -8.412659   -0.510050   -0.286271
 O   -5.861345   -2.671196    1.035678
 C   -5.105869   -3.675632    0.449872
 C   -5.638994   -4.108124   -0.917362
 O   -4.945916   -5.224389   -1.405282
 C   -5.539825   -2.914513   -1.888322
 O   -6.478398   -3.050776   -2.929699
 O   -3.766921   -3.307582    0.218915
 C   -3.056602   -2.847852    1.358146
 C   -2.216848   -1.639555    0.925797
 C   -1.911538   -0.658812    2.066158
 O   -1.068088    0.361198    1.574349
 O   -1.010782   -1.999160    0.268559
 C   -0.196901   -2.931677    0.936403
 C   -0.980359   -4.255704    1.030013
 O   -1.330284   -4.682542   -0.259045
 C   -2.210266   -4.001361    1.927890
 O   -1.836493   -3.654264    3.237426
 O    0.899070   -3.023553    0.070625
 C    2.022383   -3.799190    0.443949
 C    3.097849   -2.948954    1.151584
 O    4.377721   -3.567580    1.099320
 C    2.822913   -2.720591    2.651090
 O    1.857846   -1.742708    2.900682
 C    2.509661   -4.363563   -0.901829
 O    1.649426   -5.383980   -1.348613
 C    3.923952   -4.934868   -0.808799
 O    4.409411   -5.308712   -2.067308
 C    4.827285   -3.849114   -0.204366
 O    4.768142   -2.738176   -1.038697
 C    5.855916   -1.822214   -1.072633
 H   -7.676369    4.163916    0.390329
 H   -6.602033    2.746533   -1.125028
 H   -7.136725    1.904480    0.355082
 H   -4.896378    2.505335    1.395303
 H   -4.463579    4.236151   -0.487053
 H   -3.456058    4.864333    1.421050
 H   -1.726879    6.445589    0.681502
 H   -2.210143    6.355471   -1.633501
 H   -0.694628    4.128954   -1.033645
 H    0.996582    5.851236   -1.303590
 H   -0.590332    2.732560    1.063531
 H    1.211447    3.871660    3.082070
 H   -0.378619    3.472778    3.783647
 H    0.016762    1.354496    2.662288
 H    0.533462    5.562741    1.368328
 H    2.591307    5.579508    1.263894
 H    4.582844    5.367749   -0.128088
 H    3.474465    5.631272   -2.231126
 H    3.133215    3.044770   -1.485960
 H    5.219825    2.960619   -2.560048
 H    2.739320    2.032836    0.724274
 H    4.516715    2.311860    3.078193
 H    5.014210    1.020925    1.955083
 H    2.392569    1.256950    2.980658
 H    5.586119    3.085808    0.348132
 H    6.905001    1.907472   -0.840932
 H    7.356760    0.063655   -2.453720
 H    5.644631    0.761771   -4.005271
 H    4.399611   -0.547126   -1.990303
 H    5.099870   -2.393114   -3.338939
 H    5.091589   -0.857551    0.692770
 H    7.311835   -1.152620    1.985366
 H    6.266148   -2.591214    1.786430
 H    8.596635   -2.846366    1.249106
 H   -5.567527    0.864392   -1.754589
 H   -3.338750    0.858292   -2.872351
 H   -2.322445    1.227845   -0.269221
 H   -2.811245    3.248395   -2.194248
 H   -4.876102    3.945739   -2.838867
 H   -6.509187   -1.012994   -1.830554
 H   -6.149880   -0.694483    0.709801
 H   -8.282240   -2.054993    1.092882
 H   -8.172920   -2.539122   -0.625538
 H   -9.361765   -0.593472   -0.428229
 H   -5.149264   -4.513605    1.167010
 H   -6.685790   -4.414872   -0.817286
 H   -3.999992   -5.071206   -1.272753
 H   -4.516088   -2.890274   -2.289795
 H   -6.340337   -3.912559   -3.342410
 H   -3.765131   -2.523100    2.128193
 H   -2.778902   -1.117089    0.142395
 H   -1.430245   -1.177245    2.904784
 H   -2.834607   -0.189385    2.410841
 H   -0.534550   -0.046440    0.872176
 H    0.101797   -2.584164    1.936940
 H   -0.368971   -5.051669    1.471047
 H   -1.640343   -3.892023   -0.730480
 H   -2.834912   -4.910154    1.926014
 H   -1.331510   -4.374669    3.631669
 H    1.740276   -4.640925    1.091260
 H    3.127967   -1.977081    0.637586
 H    3.780229   -2.462383    3.117696
 H    2.464957   -3.652386    3.100267
 H    2.265314   -0.867682    2.780997
 H    2.520544   -3.529875   -1.619716
 H    0.735889   -5.082907   -1.227376
 H    3.919777   -5.796412   -0.121815
 H    3.699993   -5.800585   -2.502044
 H    5.855011   -4.218073   -0.097732
 H    6.783705   -2.341527   -1.347993
