49 
4yh3_ligand_xtb.xyz
 O    5.241245   -0.926671   -2.147996
 C    4.469521   -0.727817   -1.240981
 N    3.966441   -1.740371   -0.481870
 C    3.114873   -1.559160    0.604479
 C    2.916874   -2.559358    1.545906
 C    2.057936   -2.345981    2.609346
 C    1.415039   -1.127085    2.750413
 C    1.607998   -0.123201    1.817977
 C    2.432878   -0.341769    0.723487
 N    2.651836    0.616350   -0.275499
 C    3.996799    0.654648   -0.809275
 C    1.683035    1.395298   -0.853056
 O    1.969422    2.280380   -1.632810
 C    0.271508    1.029724   -0.519172
 C   -0.564669    2.082418    0.077886
 C   -1.367366    1.787364    1.180437
 C   -2.129905    2.774827    1.772779
 C   -2.101761    4.069340    1.278252
 C   -1.299641    4.371415    0.191190
 C   -0.530143    3.387962   -0.404455
 C   -0.138817   -0.209838   -0.826329
 C   -1.490733   -0.743072   -0.732208
 C   -1.664929   -2.084533   -0.381392
 C   -2.922917   -2.630132   -0.272729
 C   -4.055329   -1.856233   -0.536853
 O   -5.251130   -2.490523   -0.402688
 C   -6.430904   -1.767101   -0.656339
 C   -3.891028   -0.527702   -0.917850
 C   -2.623756    0.016012   -1.010498
 H    4.321798   -2.670590   -0.662730
 H    3.432939   -3.501723    1.435980
 H    1.899852   -3.129458    3.333949
 H    0.764020   -0.953339    3.592800
 H    1.120914    0.831710    1.932971
 H    4.006584    1.332230   -1.666404
 H    4.701153    1.034009   -0.056193
 H   -1.388217    0.778944    1.568010
 H   -2.747015    2.534867    2.626516
 H   -2.700349    4.839251    1.742463
 H   -1.270598    5.379545   -0.195499
 H    0.098278    3.622530   -1.249509
 H    0.596336   -0.917861   -1.193654
 H   -0.796843   -2.693463   -0.171953
 H   -3.062441   -3.661546    0.010337
 H   -6.533123   -0.914125    0.022276
 H   -6.472188   -1.414864   -1.692015
 H   -7.247720   -2.465629   -0.481671
 H   -4.742124    0.093094   -1.149253
 H   -2.512871    1.042930   -1.322970
