40 
4yh4_ligand_xtb.xyz
 O    2.323731    2.799313   -0.851371
 C    1.723182    1.898772   -0.303612
 N    2.341966    0.722082    0.032476
 C    3.659736    0.449559   -0.501185
 C    1.765852   -0.323260    0.768466
 C    2.020753   -1.628796    0.327529
 C    1.445443   -2.707478    0.984536
 C    0.636174   -2.493856    2.086401
 C    0.420534   -1.206785    2.551772
 C    0.989968   -0.124832    1.903173
 N    2.837809   -1.807770   -0.784213
 C    3.699525   -0.867649   -1.264857
 O    4.438939   -1.089432   -2.192127
 C    0.270160    1.980325    0.010482
 C   -0.614355    0.977121   -0.366891
 C   -1.964986    1.104654   -0.059040
 C   -2.359154    2.272399    0.599196
 N   -1.531677    3.246513    0.923228
 C   -0.251438    3.112202    0.634309
 C   -2.923238    0.044056   -0.389430
 C   -4.189784    0.351785   -0.879752
 C   -5.086620   -0.656233   -1.181342
 C   -4.734625   -1.982107   -0.990443
 C   -3.478883   -2.296692   -0.497839
 C   -2.576354   -1.292425   -0.201363
 H    4.401062    0.394414    0.307816
 H    3.935478    1.270443   -1.167848
 H    1.631046   -3.708401    0.624171
 H    0.182874   -3.334597    2.587955
 H   -0.191779   -1.041850    3.424225
 H    0.829519    0.876060    2.271807
 H    2.892644   -2.731482   -1.194344
 H   -0.265057    0.112989   -0.914540
 H   -3.391861    2.422175    0.885752
 H    0.395499    3.931167    0.917113
 H   -4.461133    1.384275   -1.043491
 H   -6.063884   -0.406686   -1.567406
 H   -5.437343   -2.768014   -1.223950
 H   -3.202127   -3.329221   -0.342418
 H   -1.604329   -1.540647    0.202036
