60 
4yhm_ligand_dft.xyz
 N    0.845156   -1.072633   -1.594726
 C   -1.671069   -0.783534   -1.627620
 C   -1.106122    0.833679    0.657853
 C    1.788661   -0.551245   -0.742548
 C    1.046899   -1.898564   -2.765305
 C   -2.408428    0.631665    0.214322
 C   -4.879923   -0.676063    1.140123
 C    6.152673   -0.691178   -0.724590
 C   -3.946726   -1.451956    1.837874
 C    7.282605    0.940022    1.219556
 C   -4.163270   -2.816673    1.924507
 C   -6.434846    1.814030   -1.398605
 C   -0.373527   -0.601712   -1.151945
 C   -0.078635    0.191715   -0.028012
 N    1.287141    0.199397    0.199463
 C   -2.685213   -0.160141   -0.920992
 C    3.256925   -0.813874   -0.901187
 C   -3.510408    1.363104    0.909653
 N    3.954260   -0.250704    0.219287
 N   -4.744586    0.716273    1.001832
 O   -3.378663    2.506742    1.304991
 C    5.318159   -0.062925    0.213253
 C   -5.928669    1.567188    1.186745
 C    5.912143    0.758501    1.188332
 N   -5.977677   -1.203506    0.596279
 C   -6.223107    2.450271   -0.022922
 C    7.526548   -0.494109   -0.684209
 C   -6.187344   -2.518621    0.706561
 C    8.117765    0.322371    0.279236
 C   -5.306270   -3.371922    1.350490
 O   -6.622299    0.493989   -1.500643
 O   -6.459293    2.509844   -2.383217
 C    9.593859    0.527265    0.293285
 N   10.361498    0.584581   -0.730965
 N   10.141189    0.709317    1.554039
 H   -1.885892   -1.371454   -2.514029
 H   -0.903213    1.477139    1.507046
 H    2.095748   -2.188615   -2.836651
 H    0.439763   -2.805611   -2.693183
 H    0.770184   -1.352794   -3.672583
 H    5.734461   -1.350733   -1.478192
 H   -3.081700   -0.990640    2.298036
 H    7.718990    1.594073    1.968762
 H   -3.453375   -3.442448    2.456334
 H   -3.710759   -0.255288   -1.265358
 H    3.598722   -0.382192   -1.858864
 H    3.432199   -1.899166   -0.967150
 H    3.388830    0.372035    0.782155
 H   -5.755346    2.211409    2.053419
 H   -6.768640    0.909994    1.415763
 H    5.280913    1.258720    1.918257
 H   -7.126811    3.034396    0.187772
 H   -5.419666    3.180325   -0.148971
 H    8.155508   -1.006726   -1.407530
 H   -7.098026   -2.890579    0.245785
 H   -5.511692   -4.434550    1.408213
 H   -6.551477   -0.006493   -0.655455
 H    9.805006    0.568999   -1.584605
 H   11.152998    0.720333    1.538887
 H    9.750349    0.142433    2.293489
