60 
4yho_ligand_xtb.xyz
 N   -1.101717    2.919773    0.373525
 C    1.346794    3.484356    0.061750
 C    1.481596    0.734655   -0.663976
 C   -1.756565    1.733314    0.185733
 C   -1.687940    4.158158    0.798988
 C    2.611791    1.537265   -0.649632
 C    3.706865   -0.757486    0.563333
 C   -5.077842   -1.543351   -0.392740
 C    3.543081   -2.129959    0.769546
 C   -7.248588    0.094551    0.074716
 C    2.983258   -2.552798    1.961130
 C    7.701461   -1.804275   -0.710938
 C    0.217647    2.680481    0.072242
 C    0.277596    1.314174   -0.294931
 N   -0.977467    0.767221   -0.209476
 C    2.534865    2.895365   -0.312606
 C   -3.221992    1.584370    0.402567
 C    3.924780    1.005908   -1.093904
 N   -3.580301    0.198247    0.274419
 N    4.257888   -0.250605   -0.615495
 O    4.634826    1.583680   -1.886827
 C   -4.859903   -0.230415    0.042895
 C    5.410614   -0.912329   -1.196903
 C   -5.973875    0.580425    0.279653
 N    3.369004    0.138496    1.484068
 C    6.644271   -0.803264   -0.282653
 C   -6.353271   -2.025791   -0.576626
 C    2.829648   -0.275779    2.613147
 C   -7.464026   -1.212621   -0.350697
 C    2.611707   -1.611703    2.909661
 O    7.416442   -3.082515   -0.389173
 O    8.700290   -1.529098   -1.302141
 C   -8.840290   -1.710495   -0.576361
 N   -9.031229   -3.045926   -0.333748
 N   -9.824402   -1.035069   -1.019655
 H    1.306950    4.529851    0.328238
 H    1.519611   -0.301649   -0.960449
 H   -2.501662    4.446261    0.129934
 H   -2.083464    4.070546    1.814119
 H   -0.927875    4.935935    0.783700
 H   -4.223555   -2.176474   -0.586132
 H    3.809937   -2.847213    0.009124
 H   -8.097348    0.736395    0.268432
 H    2.832462   -3.607007    2.143176
 H    3.441281    3.478998   -0.347172
 H   -3.757169    2.210826   -0.332589
 H   -3.485330    1.957777    1.404780
 H   -2.826860   -0.375633   -0.078338
 H    5.617915   -0.411749   -2.145130
 H    5.166521   -1.959012   -1.402350
 H   -5.845109    1.592658    0.631283
 H    7.054933    0.203695   -0.347238
 H    6.350772   -1.000243    0.753321
 H   -6.496793   -3.036200   -0.930856
 H    2.572826    0.507662    3.313403
 H    2.169741   -1.907195    3.847123
 H    6.602126   -3.162947    0.124754
 H   -9.993783   -3.340961   -0.372121
 H   -8.457767   -3.484138    0.366846
 H   -9.593339   -0.078209   -1.266544
