75 
4yhq_ligand_xtb.xyz
 N   -7.727673    1.466343    0.160568
 C   -6.669614    0.656838   -0.157308
 C   -6.162633   -0.250436    0.780755
 C   -5.056438   -1.016735    0.481960
 C   -4.436478   -0.879589   -0.747120
 C   -4.921394    0.010713   -1.687113
 C   -6.036383    0.769686   -1.399927
 S   -3.010628   -1.887030   -1.118365
 O   -3.378139   -3.271237   -1.124256
 O   -2.395778   -1.352682   -2.309804
 N   -1.964902   -1.638434    0.137449
 C   -1.824075   -2.615054    1.188324
 C   -0.372897   -3.083951    1.372146
 C    0.125489   -3.750083    0.093356
 C   -0.294384   -4.050785    2.550648
 C   -1.601425   -0.264358    0.376927
 C   -0.287518    0.115478   -0.336722
 O   -0.491682    0.484968   -1.672654
 C    0.462332    1.260234    0.387060
 N    1.874094    1.187781    0.068534
 C    2.696268    0.392605    0.773982
 O    2.442419   -0.129914    1.831119
 O    3.901274    0.275264    0.143803
 C    4.888752   -0.459526    0.846203
 C    4.963086   -1.897502    0.313069
 O    5.827095   -1.854733   -0.800387
 C    6.808518   -0.870381   -0.597301
 O    7.003931   -0.094153   -1.743585
 C    6.268156    1.103729   -1.630321
 C    6.350656    1.440351   -0.138625
 C    6.298545    0.066077    0.532893
 C   -0.060644    2.652245    0.015926
 C   -2.469261    2.930850   -0.634896
 C   -3.810325    3.052342   -0.316279
 C   -4.213891    3.054243    1.007383
 C   -3.265143    2.956750    2.011251
 C   -1.923366    2.848852    1.691801
 C   -1.511184    2.821832    0.364674
 F    5.419475    2.324652    0.277842
 F    7.541359    2.043218    0.149962
 H   -8.299409    1.200929    0.944517
 H   -8.207620    1.924014   -0.595841
 H   -6.649303   -0.346698    1.739947
 H   -4.668636   -1.728930    1.193036
 H   -4.413648    0.090435   -2.634895
 H   -6.429804    1.458512   -2.132905
 H   -2.205498   -2.206935    2.134926
 H   -2.440072   -3.465264    0.889474
 H    0.251558   -2.211416    1.593539
 H   -0.010948   -3.088275   -0.758633
 H    1.179861   -4.003653    0.179358
 H   -0.438656   -4.659774   -0.099270
 H   -0.624717   -3.569878    3.468621
 H    0.729171   -4.388048    2.691521
 H   -0.922954   -4.920016    2.369423
 H   -2.404241    0.381401    0.007134
 H   -1.501452   -0.107216    1.453495
 H    0.368125   -0.770787   -0.289833
 H   -1.105535   -0.160532   -2.075796
 H    0.390640    1.093491    1.465931
 H    2.148955    1.442905   -0.867390
 H    4.648228   -0.429518    1.913744
 H    3.993216   -2.262849   -0.024175
 H    5.364651   -2.568030    1.085013
 H    7.772150   -1.351403   -0.375162
 H    6.744377    1.854483   -2.260490
 H    5.214994    0.971710   -1.905085
 H    6.932545    0.045024    1.417987
 H    0.543809    3.390772    0.547346
 H    0.074181    2.788550   -1.056904
 H   -2.159815    2.907977   -1.668842
 H   -4.543252    3.143467   -1.103307
 H   -5.261935    3.136107    1.253959
 H   -3.571751    2.969773    3.047092
 H   -1.186749    2.784836    2.479836
