53 
4yik_ligand_dft.xyz
 C    0.203100   -0.371810    2.121013
 C   -0.925283   -0.395865    2.933484
 C   -1.981246   -1.253876    2.639120
 C   -1.906068   -2.087665    1.528491
 C   -0.790452   -2.051482    0.699917
 C    0.266364   -1.189443    0.993995
 C    1.470304   -1.140422    0.072891
 P    2.636850   -2.565110    0.411151
 O    1.714931   -3.834408    0.075329
 O    2.775843   -2.627678    2.018835
 O    3.947453   -2.489519   -0.281460
 O    2.184161    0.040176    0.359201
 O    0.989927   -1.168542   -1.243773
 C    1.963830   -0.951225   -2.255839
 C    2.741679    0.323305   -2.003325
 O    1.928220    1.476131   -2.259566
 C    3.198983    0.463781   -0.555273
 C    3.295406    1.971758   -0.412477
 C    2.131299    2.460020   -1.285366
 N    0.878406    2.656288   -0.510370
 C   -0.189028    1.813435   -0.614344
 C    0.874192    3.743009    0.354213
 O    1.816285    4.509489    0.444882
 N   -0.274335    3.859472    1.103167
 C   -1.407110    3.032733    1.090948
 O   -2.327599    3.245928    1.855690
 C   -1.331521    1.960296    0.101427
 C   -2.461432    1.044885   -0.006500
 C   -2.705384    0.220134   -1.033716
 P   -4.101529   -0.871763   -0.977831
 O   -3.444991   -2.251588   -1.504489
 O   -5.049077   -0.514891   -2.253926
 O   -4.857263   -0.907117    0.293358
 H    1.021887    0.302497    2.342498
 H   -0.983138    0.266637    3.791673
 H   -2.870989   -1.260407    3.260581
 H   -2.738619   -2.736405    1.279781
 H   -0.753455   -2.672038   -0.188009
 H    2.209745   -4.664434    0.129422
 H    3.627000   -2.258860    2.292060
 H    2.666874   -1.789970   -2.314566
 H    1.406076   -0.881391   -3.191060
 H    3.612958    0.352033   -2.669912
 H    4.131512   -0.073820   -0.370054
 H    3.230214    2.313863    0.619680
 H    4.238174    2.327551   -0.838853
 H    2.342801    3.416940   -1.765190
 H   -0.043340    0.986610   -1.296593
 H   -0.290318    4.630951    1.758193
 H   -3.142599    1.051883    0.841438
 H   -2.081306    0.186924   -1.923346
 H   -4.128457   -2.905175   -1.708107
 H   -5.822240   -0.023857   -1.943618
