53 
4yik_ligand_xtb.xyz
 C   -0.210402   -0.255974    1.995345
 C   -1.378899   -0.159768    2.731203
 C   -2.456755   -0.975318    2.435550
 C   -2.366898   -1.885903    1.396930
 C   -1.211053   -1.970792    0.641712
 C   -0.128724   -1.155358    0.943421
 C    1.114606   -1.257490    0.095231
 P    1.931038   -2.904593    0.464526
 O    0.951185   -3.965863   -0.210652
 O    1.689575   -3.102247    2.037970
 O    3.345964   -3.104717    0.107509
 O    2.017885   -0.256499    0.479259
 O    0.729639   -1.164514   -1.240333
 C    1.813585   -1.228602   -2.140946
 C    2.872660   -0.176147   -1.826469
 O    2.454253    1.139789   -2.199953
 C    3.182436   -0.108851   -0.328129
 C    3.650420    1.336652   -0.186017
 C    2.723574    2.050355   -1.181755
 N    1.486839    2.484016   -0.504185
 C    0.299553    1.864528   -0.698550
 C    1.625944    3.530080    0.393113
 O    2.674598    4.108971    0.562251
 N    0.479770    3.849294    1.068429
 C   -0.772138    3.237809    0.988485
 O   -1.675577    3.617140    1.695601
 C   -0.826764    2.167163   -0.003044
 C   -2.088161    1.473938   -0.162066
 C   -2.337869    0.448821   -0.973528
 P   -3.988745   -0.253949   -1.006879
 O   -3.716489   -1.715145   -1.593968
 O   -4.727764    0.472797   -2.253876
 O   -4.829422   -0.215003    0.194227
 H    0.637560    0.368786    2.228887
 H   -1.444499    0.556651    3.535945
 H   -3.369151   -0.898150    3.005196
 H   -3.200633   -2.534221    1.178540
 H   -1.141593   -2.662712   -0.181905
 H    1.406626   -4.799101   -0.353306
 H    2.515020   -3.029983    2.518932
 H    2.284142   -2.219163   -2.101969
 H    1.389365   -1.058219   -3.132140
 H    3.787508   -0.415740   -2.384864
 H    3.936230   -0.846205   -0.040793
 H    3.538366    1.713756    0.825608
 H    4.687269    1.433189   -0.501517
 H    3.177207    2.954886   -1.605569
 H    0.303113    1.092802   -1.451760
 H    0.562371    4.612147    1.732831
 H   -2.879055    1.836515    0.483039
 H   -1.611010    0.004464   -1.630751
 H   -4.451999   -2.288291   -1.374465
 H   -5.368960    1.095025   -1.911581
