51 
4ylu_ligand_xtb.xyz
 O    2.684162    1.290924   -0.592451
 C    1.683374    0.637768   -0.396763
 N    0.455592    1.008863   -0.817260
 C   -0.739098    0.297478   -0.522433
 C   -1.323522   -0.510835   -1.487808
 C   -2.516350   -1.159965   -1.235187
 C   -3.147841   -0.998732   -0.003840
 N   -4.356458   -1.615777    0.311827
 C   -5.110189   -2.473988   -0.442618
 C   -6.344542   -2.961021    0.296474
 C   -5.962816   -3.983402    1.367629
 O   -4.827603   -2.826197   -1.563211
 C   -2.559370   -0.182650    0.963150
 C   -1.366681    0.460965    0.707232
 C    0.273165    2.291674   -1.491758
 C   -0.509583    3.219982   -0.617179
 C   -1.839309    3.472601   -0.753284
 S   -2.436468    4.506345    0.481099
 C   -0.876948    4.591151    1.204599
 C    0.040808    3.866074    0.521660
 C    1.712766   -0.722739    0.318891
 N    3.033325   -1.026358    0.766687
 N    3.342395   -1.036259    2.070626
 N    4.577236   -1.263896    2.236724
 C    5.167294   -1.408754    1.016296
 C    4.157764   -1.249995    0.034434
 C    4.428945   -1.354642   -1.324076
 C    5.735441   -1.609926   -1.669435
 C    6.744083   -1.763530   -0.705853
 C    6.485018   -1.669052    0.640081
 H   -0.839874   -0.630301   -2.445809
 H   -2.966653   -1.787717   -1.985267
 H   -4.706868   -1.400269    1.235313
 H   -7.005508   -3.427944   -0.433834
 H   -6.865748   -2.114919    0.749429
 H   -5.447062   -4.825836    0.913398
 H   -5.308814   -3.546530    2.119944
 H   -6.856127   -4.354201    1.864269
 H   -3.045058   -0.047141    1.919114
 H   -0.920197    1.097876    1.456126
 H   -0.250246    2.124362   -2.437749
 H    1.272832    2.688497   -1.683524
 H   -2.506471    3.113240   -1.511690
 H   -0.740142    5.179110    2.090062
 H    1.075540    3.780943    0.801250
 H    1.351328   -1.496954   -0.368046
 H    1.068380   -0.698232    1.200593
 H    3.656622   -1.227762   -2.066645
 H    5.999261   -1.694711   -2.713389
 H    7.751361   -1.961029   -1.041980
 H    7.255383   -1.786601    1.384649
