40 
4ymb_ligand_dft.xyz
 N   -1.969586   -1.181369   -1.606568
 C   -1.168544   -1.621536   -0.396477
 C   -0.886905   -0.325912    0.409293
 C   -1.937036   -2.667872    0.404147
 O   -2.877319   -3.270430   -0.346314
 O   -1.699059   -2.915038    1.549454
 C    3.274646    0.257956    1.383434
 C   -2.586893    0.146252   -1.243846
 C   -1.470277    0.820811   -0.455915
 C    3.837659    0.079671   -1.086655
 C    2.316938    0.235201    2.391256
 C    2.879399    0.079237    0.056959
 O    3.507056   -0.098459   -2.237415
 O    5.101865    0.296409   -0.707443
 C    0.572432   -0.138071    0.756874
 C    0.974051    0.035115    2.081804
 C    1.535421   -0.113582   -0.247130
 C   -1.921222    2.025445    0.366668
 C   -2.444596    3.190063   -0.477177
 C   -2.807968    4.402734    0.377431
 H   -2.663812   -1.895288   -1.855066
 H   -1.347006   -1.062313   -2.410086
 H   -0.249434   -2.093042   -0.754268
 H   -1.462485   -0.385828    1.338636
 H   -3.321248   -3.950617    0.189862
 H    4.321771    0.410166    1.619000
 H   -2.899622    0.657904   -2.154527
 H   -3.461757   -0.068067   -0.622608
 H   -0.701505    1.152013   -1.167945
 H    2.616085    0.369166    3.425329
 H    5.650558    0.277837   -1.508270
 H    0.235166    0.007530    2.877943
 H    1.277955   -0.240360   -1.297113
 H   -2.691973    1.706126    1.082332
 H   -1.063858    2.361515    0.962664
 H   -1.683428    3.473695   -1.215286
 H   -3.329513    2.872103   -1.045992
 H   -3.187650    5.218966   -0.242816
 H   -1.933612    4.773966    0.922084
 H   -3.580501    4.151185    1.111851
