52 
4ymg_ligand_dft.xyz
 N    2.331690    2.426298    0.474660
 C    2.891934    1.071195    0.162208
 C    4.372872    1.291740   -0.106713
 O    5.094156    0.187452    0.052972
 O    4.811747    2.370658   -0.425297
 C    2.142321    0.472244   -1.043922
 C    2.529698   -0.972181   -1.339170
 S    1.902565   -2.171721    0.285123
 C    3.367686   -3.219534   -0.018695
 C    0.356117   -2.501389   -0.669920
 C   -0.798143   -2.967066    0.208650
 O   -1.056712   -2.006169    1.245810
 C   -2.114248   -3.073010   -0.563215
 O   -2.971683   -3.910711    0.157616
 C   -2.616980   -1.627453   -0.513650
 O   -3.996606   -1.584846   -0.676961
 C   -2.130663   -1.190908    0.890133
 N   -1.655606    0.201133    0.873411
 C   -0.491306    0.666072    1.390028
 N   -0.293806    1.949997    1.159496
 C   -1.420334    2.351126    0.458987
 C   -1.849351    3.579030   -0.082808
 N   -1.125530    4.723579    0.022622
 N   -2.997866    3.607220   -0.765009
 C   -3.711740    2.484032   -0.888164
 N   -3.435378    1.277014   -0.394008
 C   -2.274946    1.271729    0.271220
 H    2.862498    2.886194    1.218552
 H    2.417249    3.029391   -0.349045
 H    1.302721    2.352930    0.774920
 H    2.753616    0.446890    1.048242
 H    6.019322    0.396646   -0.165236
 H    2.312252    1.133146   -1.907837
 H    1.069083    0.535888   -0.811839
 H    3.608850   -1.055407   -1.485654
 H    2.061123   -1.284518   -2.278325
 H    3.437976   -3.950679    0.789578
 H    4.246655   -2.574832   -0.054918
 H    3.252789   -3.734144   -0.975267
 H    0.596569   -3.259872   -1.421663
 H    0.117779   -1.571929   -1.190859
 H   -0.569020   -3.912395    0.704261
 H   -1.969121   -3.419635   -1.596165
 H   -3.877666   -3.662947   -0.080898
 H   -2.101069   -1.027862   -1.277836
 H   -4.246701   -0.642758   -0.694815
 H   -2.935432   -1.275349    1.625855
 H    0.190547    0.006098    1.906706
 H   -1.603068    5.562603   -0.280069
 H   -0.527878    4.830929    0.828664
 H   -4.634911    2.572183   -1.452875
 H    1.445550   -3.194557    1.203412
