52 
4ymg_ligand_xtb.xyz
 N    2.642770    2.005600    0.651849
 C    3.111139    0.675511    0.226963
 C    4.586724    0.780141   -0.158891
 O    5.231876   -0.372536   -0.091100
 O    5.081951    1.822589   -0.494475
 C    2.317904    0.180334   -0.999061
 C    2.439045   -1.322092   -1.179896
 S    1.523541   -2.224461    0.364228
 C    2.538051   -3.705363    0.056867
 C    0.000455   -2.415671   -0.654654
 C   -1.241591   -2.800084    0.144368
 O   -1.465338   -1.926063    1.247692
 C   -2.526975   -2.698968   -0.698158
 O   -3.478754   -3.560534   -0.169632
 C   -2.918345   -1.214373   -0.509097
 O   -4.290691   -1.047668   -0.591609
 C   -2.331102   -0.905632    0.900092
 N   -1.599310    0.357258    0.864985
 C   -0.335288    0.549110    1.249678
 N    0.074081    1.780139    0.986252
 C   -0.980552    2.440298    0.394637
 C   -1.224692    3.737100   -0.119018
 N   -0.331616    4.730481   -0.132099
 N   -2.427437    3.963847   -0.648413
 C   -3.344386    3.019540   -0.676701
 N   -3.240409    1.781058   -0.215313
 C   -2.049985    1.532697    0.318358
 H    3.136037    2.279443    1.499300
 H    2.924127    2.670286   -0.070523
 H    1.161650    2.008550    0.925425
 H    2.993484   -0.032617    1.050228
 H    6.159566   -0.276033   -0.366428
 H    2.672802    0.716363   -1.885894
 H    1.266238    0.445238   -0.862477
 H    3.482282   -1.614700   -1.132530
 H    2.033377   -1.623737   -2.141654
 H    2.118260   -4.538981    0.606373
 H    3.542588   -3.493124    0.409060
 H    2.558888   -3.900141   -1.008841
 H    0.214785   -3.185108   -1.392517
 H   -0.139123   -1.462259   -1.160804
 H   -1.139335   -3.801114    0.567760
 H   -2.341817   -2.919976   -1.759721
 H   -4.358558   -3.210166   -0.369421
 H   -2.396048   -0.601334   -1.259405
 H   -4.499444   -0.102056   -0.559457
 H   -3.134727   -0.819073    1.644945
 H    0.255431   -0.224286    1.702392
 H   -0.636557    5.622719   -0.486306
 H    0.549497    4.662584    0.344567
 H   -4.289253    3.284978   -1.127828
 H    0.787893   -3.064385    1.475358
