47 
4ymh_ligand_xtb.xyz
 N    2.885803    0.214485   -1.136271
 C    3.028319   -0.700410    0.021715
 C    2.431640   -2.082601   -0.271717
 C    0.919559   -2.155012   -0.108605
 S    0.010762   -1.076355   -1.293173
 C    4.542218   -0.832084    0.242176
 O    5.313357   -0.389033   -0.568051
 O    4.851776   -1.467289    1.344129
 C   -1.533034   -2.005725   -1.505436
 C   -2.593176   -1.686831   -0.451312
 O   -2.026682   -1.586959    0.848742
 C   -3.365396   -0.382056   -0.714160
 O   -4.562472   -0.699796   -1.363229
 C   -3.602464    0.178935    0.709647
 O   -4.791724   -0.294371    1.258327
 C   -2.399541   -0.384667    1.480212
 N   -1.249571    0.502524    1.465682
 C   -0.092786    0.211711    2.134767
 N    0.943338    0.888534    1.742360
 C    0.464152    1.710074    0.752598
 C    1.059859    2.597459   -0.140895
 N    2.452736    2.723998   -0.230649
 N    0.315898    3.222173   -1.035799
 C   -0.986732    2.976421   -1.069516
 N   -1.657970    2.112672   -0.334511
 C   -0.918295    1.479505    0.568945
 H    3.779434    0.144909   -1.661201
 H    2.769592    1.248508   -0.822959
 H    2.083565   -0.055603   -1.718729
 H    2.549451   -0.265806    0.909772
 H    2.713475   -2.390381   -1.281206
 H    2.865377   -2.796367    0.431488
 H    0.586975   -3.172566   -0.306240
 H    0.619771   -1.874755    0.899170
 H    5.812664   -1.558948    1.467937
 H   -1.266127   -3.061463   -1.482061
 H   -1.913297   -1.752113   -2.494472
 H   -3.320711   -2.512072   -0.452399
 H   -2.757465    0.324080   -1.294196
 H   -5.004537    0.109149   -1.648491
 H   -3.597432    1.274530    0.726141
 H   -5.258988   -0.812105    0.582101
 H   -2.657832   -0.606110    2.521485
 H   -0.067572   -0.525796    2.913638
 H    2.903701    2.766026    0.677211
 H    2.711977    3.509322   -0.820129
 H   -1.555832    3.529810   -1.801651
