38 
4yo6_ligand_xtb.xyz
 N   -0.214872   -1.038549   -0.035778
 C    0.672654   -2.076286   -0.124315
 O    0.363073   -3.240610   -0.258747
 C    2.066349   -1.608646   -0.051710
 C    3.231566   -2.386183   -0.119973
 N    4.334325   -1.658250   -0.027360
 N    3.932183   -0.404777    0.102073
 C    2.536479   -0.301086    0.095859
 N    1.919670    0.872349    0.215903
 C    2.659698    1.941695    0.338423
 C    4.070021    1.904589    0.348291
 C    4.695246    0.695165    0.227197
 C   -1.589764   -1.162245   -0.034219
 C   -2.405397   -2.266908    0.060683
 C   -3.713880   -1.744577    0.113951
 N   -3.695400   -0.428285    0.065340
 N   -2.403644   -0.063571   -0.043265
 C   -4.985647   -2.505949    0.217798
 C   -2.061017    1.289704   -0.127175
 C   -2.800174    2.211611    0.609606
 C   -2.484652    3.554759    0.549654
 C   -1.432023    3.990553   -0.239706
 C   -0.715879    3.077540   -0.994616
 C   -1.030020    1.730912   -0.952477
 H    0.164891   -0.105830    0.098957
 H    3.291729   -3.449943   -0.233615
 H    2.124238    2.875410    0.433921
 H    4.641290    2.811141    0.449696
 H    5.765259    0.553015    0.223620
 H   -2.096996   -3.289677    0.089492
 H   -5.097975   -3.169879   -0.637944
 H   -4.987823   -3.114914    1.120680
 H   -5.822267   -1.814079    0.247906
 H   -3.619490    1.852118    1.211631
 H   -3.059489    4.265703    1.124095
 H   -1.182216    5.040320   -0.278792
 H    0.085517    3.414062   -1.636137
 H   -0.498444    1.037117   -1.585554
