52 
4yoi_ligand_dft.xyz
 C    0.155329    0.661996   -0.765770
 O    3.732105    0.673603   -0.758644
 C    2.580805    0.294023   -0.631378
 N    1.505483    1.005180   -1.087481
 C    1.740376    2.324044   -1.689266
 C    1.602987    3.431040   -0.680540
 C    0.575302    4.327753   -0.652078
 S    0.688944    5.397560    0.694442
 C    2.134901    4.627547    1.240881
 C    2.505282    3.608317    0.418720
 C   -0.414352    1.084753    0.435884
 C   -1.729280    0.761198    0.728465
 C   -2.500531    0.017604   -0.174074
 N   -3.825324   -0.262759    0.196921
 C   -4.768874   -0.989920   -0.489666
 C   -6.095874   -1.052517    0.169561
 C   -6.639098   -0.304722    1.184174
 C   -7.970085   -0.687409    1.497366
 C   -8.408791   -1.714151    0.708665
 S   -7.223766   -2.220712   -0.423203
 O   -4.561674   -1.554875   -1.551133
 C   -1.934093   -0.399070   -1.383811
 C   -0.613604   -0.069181   -1.665957
 C    2.247526   -1.062152    0.004074
 N    3.390504   -1.652859    0.640423
 C    4.538558   -2.153303    0.106984
 C    5.042338   -2.259946   -1.195705
 C    6.272628   -2.871401   -1.323755
 C    6.990340   -3.357608   -0.204266
 C    6.491486   -3.239438    1.076092
 C    5.239022   -2.625166    1.223034
 N    4.487939   -2.375943    2.350815
 N    3.398318   -1.801823    1.989888
 H    1.021225    2.453052   -2.503107
 H    2.747755    2.303321   -2.109324
 H   -0.250878    4.405788   -1.346401
 H    2.636955    4.981602    2.130770
 H    3.384847    2.991985    0.567280
 H    0.178882    1.665327    1.135577
 H   -2.162824    1.092795    1.668854
 H   -4.088879    0.058520    1.116085
 H   -6.130089    0.515095    1.680394
 H   -8.571667   -0.218004    2.266175
 H   -9.375869   -2.198021    0.734942
 H   -2.523340   -0.976464   -2.081404
 H   -0.168396   -0.388582   -2.603878
 H    1.854334   -1.735772   -0.766705
 H    1.479376   -0.964014    0.773051
 H    4.509567   -1.858473   -2.050044
 H    6.710878   -2.975357   -2.311754
 H    7.956239   -3.826183   -0.364531
 H    7.033376   -3.602333    1.942650
