68 
4yp1_ligand_dft.xyz
 P    2.474050   -1.804876   -2.228893
 O    3.969185   -2.301125   -2.504314
 O    1.410834   -2.396488   -3.059687
 O    2.594686   -0.229076   -2.373004
 C    3.719651    0.540176   -1.913474
 C    3.249846    1.706228   -1.069489
 O    2.386343    2.552982   -1.818974
 C    2.429361    1.324778    0.153306
 O    3.291694    0.845692    1.179641
 C    1.650182    2.617913    0.433452
 O    2.463136    3.598284    1.007271
 C    1.324952    3.012076   -1.013365
 N    0.084427    2.373085   -1.451867
 C   -0.097382    1.405956   -2.420834
 N   -1.343126    1.036570   -2.564255
 C   -2.026503    1.809590   -1.648162
 C   -3.388216    1.906456   -1.311483
 N   -4.334975    1.190075   -1.960219
 N   -3.750198    2.751936   -0.334682
 C   -2.794917    3.472472    0.274690
 N   -1.490558    3.494939    0.032726
 C   -1.165493    2.639334   -0.943404
 P    2.713640    0.653523    2.664812
 O    4.005184    0.054783    3.393363
 O    2.128696    1.861125    3.274637
 O    1.692681   -0.567176    2.567084
 C    2.147257   -1.925060    2.403443
 C    1.282707   -2.662060    1.405157
 O   -0.040828   -2.797694    1.881051
 C    1.125187   -1.970222    0.060585
 O    2.345767   -2.107720   -0.658528
 C   -0.138510   -2.632456   -0.502293
 O    0.121742   -3.902876   -1.025563
 C   -0.956689   -2.787041    0.799959
 N   -1.898225   -1.708552    1.012756
 C   -1.657036   -0.436830    1.494461
 N   -2.717048    0.322228    1.525852
 C   -3.725341   -0.489033    1.039131
 C   -5.101869   -0.289478    0.811438
 N   -5.716757    0.895852    1.041098
 N   -5.833532   -1.315269    0.349296
 C   -5.221323   -2.482655    0.108522
 N   -3.935457   -2.791244    0.244305
 C   -3.239880   -1.753212    0.719525
 H    3.989554   -3.216471   -2.814990
 H    4.399824   -0.076317   -1.318264
 H    4.243286    0.896749   -2.802468
 H    4.134724    2.268300   -0.742725
 H    1.724423    0.543275   -0.126430
 H    0.733038    2.457143    1.007806
 H    2.449678    3.421923    1.962720
 H    1.222104    4.094686   -1.110820
 H    0.739208    1.017332   -2.980202
 H   -4.029913    0.416896   -2.531494
 H   -5.246572    1.121491   -1.534347
 H   -3.144370    4.126152    1.069150
 H    4.283887    0.634182    4.115799
 H    2.095578   -2.407498    3.381480
 H    3.180500   -1.945716    2.044702
 H    1.737451   -3.649401    1.238292
 H    0.910271   -0.913108    0.226023
 H   -0.664361   -1.990298   -1.217079
 H    0.438913   -3.751102   -1.932080
 H   -1.531729   -3.715381    0.759715
 H   -0.677217   -0.152412    1.855166
 H   -6.681590    0.951583    0.749294
 H   -5.156133    1.740890    0.964792
 H   -5.866614   -3.277248   -0.258726
