68 
4yp1_ligand_xtb.xyz
 P    2.257807   -1.755762   -2.331079
 O    3.705721   -2.263761   -2.734141
 O    1.147012   -2.259105   -3.131915
 O    2.383413   -0.176459   -2.360493
 C    3.575879    0.481511   -1.944689
 C    3.277730    1.644357   -0.997415
 O    2.576260    2.691570   -1.649585
 C    2.411689    1.261528    0.205346
 O    3.196617    0.641422    1.188883
 C    1.763890    2.612364    0.573060
 O    2.634890    3.449707    1.264605
 C    1.517975    3.147833   -0.850724
 N    0.255218    2.639854   -1.349765
 C    0.022104    1.929795   -2.500820
 N   -1.218594    1.598332   -2.670378
 C   -1.878465    2.112774   -1.582768
 C   -3.223219    2.113248   -1.173547
 N   -4.199797    1.568239   -1.921285
 N   -3.531137    2.719044   -0.022155
 C   -2.564181    3.284180    0.688829
 N   -1.280479    3.364765    0.408322
 C   -0.964689    2.766729   -0.741161
 P    2.599681    0.432059    2.673956
 O    3.883549   -0.169640    3.384824
 O    2.020818    1.622576    3.285469
 O    1.591854   -0.789608    2.586888
 C    2.063633   -2.114187    2.362968
 C    1.228805   -2.837753    1.307029
 O   -0.090747   -3.066376    1.760654
 C    1.078156   -2.076472   -0.012506
 O    2.245845   -2.204764   -0.781417
 C   -0.208448   -2.699979   -0.589868
 O    0.021548   -3.919430   -1.217175
 C   -1.016728   -2.914069    0.711129
 N   -1.895317   -1.801953    0.962618
 C   -1.598583   -0.548224    1.441691
 N   -2.608176    0.261255    1.450041
 C   -3.660553   -0.467452    0.953988
 C   -5.019209   -0.186972    0.711495
 N   -5.572325    1.013017    0.956610
 N   -5.786767   -1.173684    0.233197
 C   -5.249220   -2.359806    0.000719
 N   -3.995811   -2.741375    0.162286
 C   -3.227741   -1.767774    0.650097
 H    3.663439   -3.144256   -3.106237
 H    4.241082   -0.221319   -1.440086
 H    4.063334    0.874710   -2.840475
 H    4.237742    2.035947   -0.629940
 H    1.610441    0.595001   -0.132815
 H    0.817895    2.488733    1.108740
 H    2.535629    3.242492    2.206837
 H    1.506159    4.245031   -0.866537
 H    0.813494    1.679866   -3.177097
 H   -3.931616    1.022627   -2.721144
 H   -5.122370    1.470602   -1.535508
 H   -2.873776    3.744596    1.616488
 H    4.352908    0.516687    3.858287
 H    1.978305   -2.658277    3.306736
 H    3.105329   -2.094395    2.037348
 H    1.714993   -3.803267    1.095803
 H    0.868083   -1.023134    0.198759
 H   -0.724636   -1.998591   -1.256199
 H    0.288251   -3.725413   -2.130040
 H   -1.646054   -3.809493    0.627815
 H   -0.628038   -0.293727    1.819535
 H   -6.536255    1.136907    0.695256
 H   -4.946686    1.814243    0.990251
 H   -5.924889   -3.111300   -0.385267
