65 
4yp8_ligand_xtb.xyz
 N    1.131862   -1.367385   -0.419765
 C    1.352759   -2.708711   -0.205124
 O    0.472586   -3.540047   -0.164431
 C    2.778630   -2.988906   -0.021821
 C    3.395727   -4.218567    0.258316
 N    4.704809   -4.103828    0.404972
 N    4.982509   -2.821869    0.230803
 C    3.835643   -2.072770   -0.038892
 N    3.886237   -0.759323   -0.252829
 C    5.055505   -0.177536   -0.192287
 C    6.248236   -0.875888    0.083762
 C    6.185577   -2.225781    0.293936
 C   -0.099982   -0.780590   -0.522815
 C   -1.358573   -1.324482   -0.695515
 C   -2.210989   -0.214626   -0.787451
 N   -1.537013    0.918904   -0.685614
 N   -0.252261    0.571921   -0.510920
 C   -3.698164   -0.206909   -0.972644
 C   -4.346472   -1.401990   -0.272506
 C   -5.863013   -1.316500   -0.356921
 N   -6.358197   -0.064833    0.276869
 C   -5.805622    1.095580   -0.472431
 C   -4.285408    1.084361   -0.402225
 C   -7.856353   -0.079250    0.449833
 C   -8.424167    1.310583    0.710338
 C   -8.215086   -0.996649    1.613592
 C    0.745229    1.551350   -0.377861
 C    1.696603    1.503744    0.639686
 C    2.689366    2.452710    0.750227
 C    2.746675    3.510826   -0.153181
 C    1.771613    3.588601   -1.146509
 C    0.789051    2.626975   -1.259042
 F    1.640483    0.516698    1.562810
 C    3.802717    4.538151   -0.060653
 C    5.178023    4.185133    0.456505
 C    4.439616    4.869936    1.269143
 H    1.950594   -0.763436   -0.420714
 H    2.920974   -5.174041    0.357493
 H    5.058317    0.888511   -0.370334
 H    7.190390   -0.357365    0.126369
 H    7.035544   -2.854891    0.509481
 H   -1.586206   -2.366563   -0.746789
 H   -3.921039   -0.259101   -2.045540
 H   -4.025444   -1.433719    0.771173
 H   -4.022776   -2.330386   -0.740796
 H   -6.311914   -2.176770    0.138744
 H   -6.185204   -1.309375   -1.400493
 H   -5.946471   -0.021818    1.217219
 H   -6.176381    2.020298   -0.033726
 H   -6.151036    1.026789   -1.505576
 H   -3.885398    1.932864   -0.954343
 H   -3.955821    1.198047    0.632455
 H   -8.273366   -0.470456   -0.483002
 H   -7.935745    1.786485    1.557819
 H   -8.358780    1.957518   -0.159073
 H   -9.478019    1.209909    0.955318
 H   -7.840263   -2.008413    1.489932
 H   -7.835547   -0.593501    2.550600
 H   -9.295827   -1.064758    1.696856
 H    3.404686    2.370792    1.553949
 H    1.790635    4.413164   -1.842385
 H    0.035760    2.688982   -2.028309
 H    3.713117    5.324075   -0.805575
 H    6.082720    3.690909    0.204710
 H    4.269004    5.358452    2.195330
