19 
4ypf_ligand_xtb.xyz
 C    1.740100    1.184263   -0.001371
 C   -2.673846   -0.981223   -0.000173
 C   -1.819836    1.267808   -0.000572
 C   -1.407271   -1.494966   -0.000808
 N    3.396623   -0.580533    0.068160
 C    2.078257   -0.194242   -0.002340
 C    1.039230   -1.100932   -0.003919
 C   -0.288038   -0.637436    0.000088
 C   -0.502658    0.768974   -0.000048
 N    0.526107    1.642523   -0.002113
 C   -2.882512    0.407433    0.000248
 H    2.531740    1.925235   -0.002207
 H   -3.527588   -1.643562   -0.000075
 H   -1.955373    2.338151   -0.001036
 H   -1.243569   -2.563847   -0.000995
 H    4.084563    0.099127   -0.211122
 H    3.606173   -1.531525   -0.188353
 H    1.237329   -2.164881   -0.006421
 H   -3.892930    0.789290    0.001248
