39 
4yqh_ligand_dft.xyz
 C  -24.128777  -36.564730   24.167490
 C  -25.196466  -37.067414   24.902062
 C  -25.881688  -36.250851   25.797750
 C  -25.488545  -34.923829   25.952394
 C  -24.421314  -34.420161   25.218504
 C  -23.726793  -35.233536   24.316258
 N  -21.915809  -35.527710   22.639397
 C  -22.594809  -34.720855   23.530617
 C  -22.043598  -33.464773   23.526575
 C  -20.977175  -34.783526   22.107253
 N  -21.015119  -33.518551   22.615537
 C  -19.970917  -35.214587   21.086663
 C  -20.229785  -36.641254   20.618288
 C  -19.235718  -37.128332   19.596509
 C  -19.363097  -38.458195   19.081665
 C  -17.541860  -38.153685   17.763733
 C  -16.622651  -38.636887   16.803222
 C  -15.604837  -37.828294   16.363246
 C  -15.466637  -36.511821   16.863619
 C  -16.346786  -36.021874   17.795946
 C  -17.404321  -36.836210   18.264975
 N  -18.551942  -38.966815   18.195525
 N  -18.273697  -36.336663   19.192789
 H  -23.589605  -37.194395   23.467692
 H  -25.495020  -38.104038   24.773882
 H  -26.715673  -36.644487   26.371261
 H  -26.015411  -34.276875   26.648025
 H  -24.128015  -33.382126   25.351514
 H  -22.277372  -32.561168   24.067525
 H  -20.400384  -32.759465   22.367973
 H  -18.957495  -35.142561   21.499930
 H  -19.987978  -34.534724   20.226444
 H  -21.242576  -36.716360   20.203661
 H  -20.227171  -37.318083   21.481111
 H  -20.174457  -39.092298   19.437798
 H  -16.753219  -39.650205   16.437561
 H  -14.897856  -38.196552   15.626199
 H  -14.654881  -35.886939   16.503676
 H  -16.261546  -35.016169   18.194734
