39 
4yqh_ligand_xtb.xyz
 C  -24.064784  -36.650946   24.759135
 C  -25.122313  -36.986400   25.581190
 C  -25.894353  -35.993844   26.163174
 C  -25.601080  -34.662615   25.916195
 C  -24.543722  -34.321553   25.094160
 C  -23.761480  -35.313797   24.505368
 N  -21.896435  -35.975227   23.042989
 C  -22.641348  -34.990456   23.638426
 C  -22.136160  -33.765884   23.270447
 C  -20.973350  -35.380371   22.343912
 N  -21.077630  -34.026012   22.446554
 C  -19.951487  -36.050209   21.499509
 C  -20.339958  -35.979965   20.009681
 C  -19.309167  -36.680889   19.182251
 C  -19.342859  -38.088310   19.012444
 C  -17.453992  -38.009551   17.760713
 C  -16.456852  -38.650616   17.001206
 C  -15.452305  -37.911536   16.440303
 C  -15.402570  -36.517543   16.612181
 C  -16.358051  -35.865996   17.341793
 C  -17.406334  -36.598607   17.931706
 N  -18.447389  -38.734301   18.322356
 N  -18.354010  -35.959773   18.651313
 H  -23.452364  -37.409685   24.298105
 H  -25.347959  -38.025919   25.771460
 H  -26.721661  -36.255437   26.806865
 H  -26.201507  -33.885786   26.368236
 H  -24.324282  -33.280787   24.907527
 H  -22.425181  -32.765752   23.517442
 H  -20.484742  -33.341185   22.006726
 H  -19.881121  -37.092435   21.811394
 H  -18.977550  -35.573678   21.637183
 H  -20.395691  -34.937309   19.693155
 H  -21.315192  -36.450391   19.875122
 H  -20.133810  -38.678641   19.457097
 H  -16.514990  -39.721372   16.882828
 H  -14.683639  -38.396683   15.856970
 H  -14.595820  -35.960956   16.158107
 H  -16.337863  -34.796581   17.483778
