15 
4yrg_ligand_dft.xyz
 C   -1.625775   -0.174858   -0.000008
 C   -1.938516    1.179305    0.000002
 C   -0.890745    2.096218    0.000003
 C    0.419821    1.639812    0.000005
 C    0.602630    0.259083   -0.000039
Br    2.382740   -0.420468    0.000003
 N   -0.364934   -0.629513   -0.000017
 C   -2.683004   -1.249846    0.000031
 O   -3.959631   -0.652764    0.000020
 H   -2.975118    1.491556   -0.000046
 H   -1.093529    3.162959    0.000051
 H    1.267249    2.314071    0.000003
 H   -2.525461   -1.883544    0.885566
 H   -2.525502   -1.883593   -0.885463
 H   -4.618422   -1.354640   -0.000225
