15 
4yrg_ligand_xtb.xyz
 C   -1.612480   -0.173282    0.007184
 C   -1.927649    1.179568    0.005247
 C   -0.892821    2.102210    0.000901
 C    0.418706    1.656454   -0.000960
 C    0.606595    0.283421    0.001198
Br    2.369796   -0.428981   -0.002134
 N   -0.356744   -0.604079    0.005002
 C   -2.663848   -1.246901    0.013272
 O   -3.948961   -0.675473   -0.020545
 H   -2.961091    1.481566    0.006290
 H   -1.103635    3.161326   -0.001141
 H    1.257760    2.333243   -0.004012
 H   -2.523054   -1.858120    0.917327
 H   -2.492618   -1.898253   -0.856380
 H   -4.602346   -1.381910   -0.019094
