24 
4yrr_ligand_xtb.xyz
 O   -2.897427   -1.621931   -0.029328
 C   -3.227875   -0.460448   -0.006430
 C   -4.671452   -0.001461    0.008609
 N   -2.351819    0.590254    0.010423
 C   -0.956784    0.556180    0.005831
 C   -0.206424   -0.596797    0.008667
 C    1.198492   -0.495705    0.005198
 C    1.780816    0.801147   -0.003546
 N    1.022290    1.917634   -0.005995
 C   -0.269683    1.795696   -0.000788
 C    2.044711   -1.623246    0.010801
 C    3.402715   -1.467320    0.006396
 C    3.975324   -0.184587   -0.004473
 C    3.183859    0.930270   -0.009303
 H   -5.321143   -0.871034   -0.023245
 H   -4.875583    0.563604    0.916018
 H   -4.876202    0.630601   -0.853175
 H   -2.749189    1.519929    0.023212
 H   -0.678717   -1.565867    0.012948
 H   -0.833781    2.722753   -0.002046
 H    1.597422   -2.606663    0.018884
 H    4.048616   -2.333070    0.011274
 H    5.051169   -0.087382   -0.008884
 H    3.601344    1.924991   -0.017130
