44 
4yth_ligand_dft.xyz
 F   12.182649   17.347188    4.615604
 C   12.165567   16.110306    4.079558
 C   11.178926   15.695561    3.223798
 N   11.168285   14.461932    2.709597
 C   12.171713   13.653779    3.071626
 N   13.187388   13.983288    3.888551
 C   13.193659   15.210976    4.401678
 N   14.229904   15.618160    5.198327
 C   15.204729   14.698421    5.789539
 C   16.175702   15.549680    6.622247
 C   16.038573   14.031638    4.674310
 N   16.283095   14.824895    3.593169
 C   16.950807   14.322537    2.425148
 C   15.985800   14.131143    1.268694
 F   15.299893   15.269296    1.030855
 F   15.091989   13.167979    1.501296
 F   16.655063   13.817699    0.149252
 O   16.523228   12.922228    4.813075
 C   14.553994   13.629267    6.670585
 C   12.137140   12.294525    2.543435
 C   13.022257   11.181866    2.785353
 C   14.185951   10.948306    3.523710
 C   14.710769    9.668361    3.455981
Cl   16.162982    9.268362    4.341150
 C   14.106230    8.664370    2.682059
 N   13.004507    8.863349    1.967702
 C   12.510661   10.093154    2.043429
 N   11.379988   10.524450    1.387204
 C   11.161480   11.835964    1.689910
 H   10.372496   16.370165    2.946091
 H   14.065808   16.478881    5.700547
 H   15.647969   16.011963    7.464430
 H   16.967602   14.913961    7.025568
 H   16.635468   16.336445    6.015851
 H   15.742238   15.673771    3.511801
 H   17.399690   13.360085    2.677747
 H   17.735357   15.009166    2.092818
 H   14.028714   14.112336    7.501063
 H   13.842474   13.031405    6.098595
 H   15.319200   12.960654    7.069299
 H   14.670690   11.720567    4.108068
 H   14.543981    7.670565    2.649051
 H   10.820106    9.945243    0.782851
 H   10.321279   12.380114    1.285378
