24 
4yuw_ligand_xtb.xyz
 N   -2.837157    0.000429   -0.030628
 C   -1.373465   -0.000095    0.353113
 C   -0.709366   -1.255203   -0.193365
 C   -0.709064    1.254749   -0.193600
 C    0.773782    1.249099    0.185505
 C    1.475779   -0.000056   -0.349235
 C    2.948380    0.000222    0.046611
 C    0.773681   -1.249351    0.185237
 H   -3.308774   -0.838321    0.330061
 H   -3.309165    0.837218    0.334093
 H   -2.914637    0.003006   -1.056401
 H   -1.326849   -0.000035    1.445756
 H   -0.797240   -1.277571   -1.281810
 H   -1.185434   -2.150174    0.211764
 H   -1.185413    2.149864    0.210783
 H   -0.796318    1.276350   -1.282111
 H    0.873543    1.283844    1.271635
 H    1.249352    2.141626   -0.219185
 H    1.408604    0.000181   -1.442365
 H    3.054393   -0.000672    1.128560
 H    3.449020   -0.879526   -0.347593
 H    3.448105    0.881268   -0.345949
 H    1.249036   -2.141845   -0.219813
 H    0.873514   -1.284400    1.271378
