24 
4yuw_ligand_dft.xyz
 N   -2.846850    0.000018   -0.042483
 C   -1.372530   -0.000032    0.353439
 C   -0.715226   -1.268586   -0.176200
 C   -0.715259    1.268520   -0.176226
 C    0.778480    1.258056    0.176020
 C    1.487244    0.000026   -0.342939
 C    2.965791    0.000014    0.041029
 C    0.778530   -1.257990    0.175985
 H   -3.333526   -0.829445    0.312926
 H   -3.333476    0.829494    0.312978
 H   -2.943137    0.000055   -1.063617
 H   -1.379065   -0.000062    1.448412
 H   -0.829731   -1.307038   -1.269076
 H   -1.198504   -2.160215    0.241503
 H   -1.198669    2.160136    0.241343
 H   -0.829725    1.306874   -1.269125
 H    0.895685    1.319822    1.266759
 H    1.244625    2.156453   -0.239398
 H    1.414062    0.000002   -1.440926
 H    3.087725    0.000018    1.130474
 H    3.474502   -0.884422   -0.354349
 H    3.474599    0.884395   -0.354378
 H    1.244663   -2.156381   -0.239499
 H    0.895743   -1.319855    1.266709
