19 
4yux_ligand_xtb.xyz
 C   -2.806136   -1.063983    0.096867
 C   -3.007560    0.306318    0.044530
 C   -1.524900   -1.578502    0.056552
 C   -1.920718    1.155913   -0.040196
 C   -0.418595   -0.736152   -0.034487
 C   -0.631942    0.645262   -0.076990
 C    2.042586   -0.662378    0.042199
 C    1.968932    0.724711    0.628585
 N    0.847391   -1.291662   -0.124786
 N    3.096090   -1.306533   -0.244272
 S    0.736039    1.753092   -0.231945
 H   -3.648729   -1.734857    0.164900
 H   -4.006577    0.712519    0.070217
 H   -1.363021   -2.646426    0.084961
 H   -2.055878    2.225429   -0.087404
 H    2.924071    1.240036    0.538668
 H    1.682157    0.669557    1.682605
 H    0.913847   -2.265371   -0.385836
 H    3.963135   -0.810119   -0.075935
