198 
4yv9_ligand_dft.xyz
 N   -1.253966    1.524610   -3.250341
 C   -1.961184    2.528216   -2.470776
 C   -2.967105    3.272546   -3.345715
 C   -0.937821    3.547476   -1.930569
 O   -0.104982    3.977112   -2.722032
 N   -1.034005    3.990542   -0.648552
 C   -0.327617    5.221707   -0.315769
 C   -1.962860    3.416886    0.320713
 C   -1.452116    3.504506    1.774458
 C   -0.493744    2.370813    2.172931
 C    0.841697    2.426692    1.429559
 C   -0.278699    2.373037    3.687935
 C   -3.340576    4.094046    0.135913
 O   -3.398042    5.211944   -0.359610
 N   -4.485400    3.422814    0.468113
 C   -5.728212    4.127485    0.156183
 C   -4.558625    2.202154    1.262184
 C   -5.432679    2.371882    2.534118
 C   -4.755364    3.061588    3.728408
 C   -4.633721    4.578288    3.553750
 C   -5.528263    2.735260    5.009912
 C   -5.158181    1.033540    0.454523
 O   -5.940826    1.238991   -0.461309
 N   -4.926532   -0.246441    0.897800
 C   -5.843701   -1.245774    0.358183
 C   -3.725358   -0.689062    1.623202
 C   -3.904294   -0.720667    3.157643
 C   -5.067679   -1.593146    3.630061
 C   -2.599510   -1.036399    3.894205
 C   -3.233022   -2.025464    1.016796
 O   -3.178592   -3.048828    1.690516
 N   -2.879515   -2.008233   -0.303864
 C   -2.757765   -0.776863   -1.078748
 C   -2.360764   -3.253095   -0.890989
 C   -0.839333   -3.105930   -1.016538
 O   -0.280507   -2.728260   -2.044591
 C   -3.085189   -3.698317   -2.176430
 O   -2.961489   -2.773687   -3.244840
 C   -4.566819   -4.034111   -1.910847
 C   -4.761555   -5.067727   -0.797196
 C   -5.264204   -4.469879   -3.210023
 C   -6.796687   -4.526789   -3.133129
 C   -7.469023   -3.255896   -2.596389
 C   -7.090901   -1.980583   -3.349488
 N   -0.186279   -3.366365    0.129668
 C    1.174381   -2.922647    0.365975
 C    1.712826   -3.778929    1.514638
 O    0.919211   -4.247856    2.325725
 C    1.172326   -1.427578    0.755729
 C    0.234584   -1.128442    1.922204
 N    3.064184   -3.919553    1.655133
 C    4.023967   -3.629361    0.589381
 C    5.438383   -3.413211    1.144149
 O    6.291549   -4.273317    0.991946
 C    3.553229   -4.757622    2.743968
 N    5.718504   -2.240228    1.793905
 C    7.074179   -2.083915    2.308513
 C    4.732187   -1.197609    2.047174
 C    4.772128   -0.665732    3.497965
 C    3.392264   -0.228240    4.022771
 C    2.567992   -1.438500    4.466373
 C    3.546272    0.774187    5.166750
 C    4.830452   -0.013442    1.069651
 O    4.075525    0.949099    1.182885
 N    5.815101   -0.083349    0.151924
 C    6.118246    0.983421   -0.784862
 C    5.925308    0.437351   -2.209066
 O    6.834841   -0.192211   -2.732932
 C    7.559666    1.489151   -0.575137
 C    7.757032    1.949689    0.870737
 C    7.906302    2.622283   -1.542311
 N    4.764556    0.709923   -2.881710
 C    4.689047    0.151032   -4.225670
 C    3.481629    0.980333   -2.221676
 C    2.750577    2.202571   -2.790014
 C    3.327466    3.591844   -2.458723
 C    4.696005    3.859188   -3.086116
 C    3.304755    3.891862   -0.958418
 C    2.759541   -0.395207   -2.136793
 O    3.320691   -1.248713   -1.449138
 N    1.632766   -0.729829   -2.811499
 C    0.691157    0.054937   -3.575689
 C   -0.262566    0.819471   -2.643152
 O   -0.141137    0.813203   -1.424150
 C   -0.059488   -0.855971   -4.557300
 H   -1.138540    1.731792   -4.232840
 H   -2.506215    2.009761   -1.683617
 H   -3.484483    4.030916   -2.751919
 H   -3.706733    2.576807   -3.752529
 H   -2.450162    3.781134   -4.165972
 H    0.529988    5.030932    0.335599
 H   -1.018869    5.917664    0.163215
 H    0.037291    5.656223   -1.244582
 H   -2.041981    2.350564    0.095801
 H   -0.988532    4.478246    1.960950
 H   -2.318988    3.471783    2.440938
 H   -0.989935    1.423937    1.907177
 H    1.353050    3.375449    1.633081
 H    1.521109    1.629944    1.746449
 H    0.705166    2.323171    0.350577
 H    0.201878    3.304391    4.011348
 H    0.371938    1.544641    3.991010
 H   -1.226298    2.274374    4.231835
 H   -5.628804    4.594148   -0.823162
 H   -6.544493    3.410482    0.123456
 H   -5.931344    4.915935    0.890036
 H   -3.551360    1.944264    1.591113
 H   -5.758678    1.374829    2.844189
 H   -6.351448    2.908203    2.273643
 H   -3.745737    2.636179    3.837634
 H   -4.121443    5.025925    4.411938
 H   -5.630236    5.032002    3.487639
 H   -4.084520    4.861198    2.651307
 H   -5.561561    1.654690    5.191071
 H   -5.064961    3.211015    5.880475
 H   -6.561517    3.097077    4.941205
 H   -5.677965   -2.201199    0.857162
 H   -5.711297   -1.370088   -0.721583
 H   -6.874208   -0.926808    0.528663
 H   -2.929461    0.037643    1.420430
 H   -4.150864    0.314454    3.418822
 H   -5.197778   -1.481670    4.711764
 H   -4.879885   -2.647135    3.413323
 H   -6.008754   -1.295278    3.154096
 H   -2.754617   -0.927766    4.972773
 H   -1.803879   -0.339842    3.605498
 H   -2.258323   -2.054156    3.695155
 H   -2.245007    0.001391   -0.509634
 H   -3.733405   -0.404532   -1.413438
 H   -2.137983   -0.983953   -1.947018
 H   -2.544368   -4.022081   -0.142265
 H   -2.566527   -4.601734   -2.520871
 H   -3.663131   -2.117058   -3.151349
 H   -5.025561   -3.095581   -1.572498
 H   -5.819150   -5.332288   -0.704504
 H   -4.210028   -5.989845   -1.019744
 H   -4.436665   -4.700098    0.180373
 H   -4.883725   -5.459123   -3.499546
 H   -4.970191   -3.792118   -4.017008
 H   -7.113936   -5.378073   -2.518364
 H   -7.177351   -4.728349   -4.142888
 H   -8.555892   -3.391906   -2.648454
 H   -7.237451   -3.133361   -1.529876
 H   -7.636437   -1.114044   -2.963570
 H   -7.309256   -2.075646   -4.419236
 H   -6.021875   -1.754257   -3.254684
 H   -0.693032   -3.661271    0.957926
 H    1.743990   -3.053632   -0.554988
 H    0.857922   -0.852446   -0.119343
 H    2.188468   -1.095156    0.972701
 H    0.260283   -1.900330    2.695751
 H    0.494453   -0.177419    2.389544
 H   -0.798308   -1.054901    1.569179
 H    3.710746   -2.767102   -0.003399
 H    4.120247   -4.491914   -0.078650
 H    4.241307   -4.188097    3.377841
 H    2.700415   -5.081927    3.336734
 H    4.084655   -5.626285    2.341805
 H    7.269593   -1.025848    2.489850
 H    7.788932   -2.466446    1.577975
 H    7.215356   -2.638757    3.242189
 H    3.751606   -1.646468    1.900986
 H    5.474433    0.173780    3.558968
 H    5.164277   -1.457129    4.149393
 H    2.874503    0.277740    3.200168
 H    1.554167   -1.140934    4.755262
 H    2.472883   -2.189513    3.675314
 H    3.034287   -1.924957    5.332815
 H    4.063059    1.678570    4.828409
 H    4.122059    0.340873    5.994724
 H    2.568760    1.071587    5.562877
 H    6.302470   -0.959184    0.029018
 H    5.428618    1.798590   -0.564911
 H    8.229208    0.646545   -0.784727
 H    8.774934    2.326287    1.015738
 H    7.059116    2.758044    1.121397
 H    7.594716    1.137146    1.584898
 H    7.767163    2.322803   -2.584847
 H    7.289865    3.507840   -1.346048
 H    8.953894    2.914885   -1.416953
 H    4.574883   -0.939106   -4.197368
 H    3.836440    0.588364   -4.748825
 H    5.604374    0.386303   -4.768706
 H    3.670260    1.176929   -1.164611
 H    2.670191    2.135769   -3.881216
 H    1.735054    2.198396   -2.389493
 H    2.613238    4.286291   -2.919071
 H    4.686597    3.649859   -4.162280
 H    5.476449    3.239230   -2.642072
 H    4.980502    4.908733   -2.949040
 H    3.941309    3.223893   -0.367719
 H    2.286550    3.789168   -0.571893
 H    3.636595    4.919186   -0.769547
 H    1.252700   -1.629040   -2.511926
 H    1.230413    0.805685   -4.156051
 H    0.667450   -1.385539   -5.178993
 H   -0.669973   -1.592202   -4.028221
 H   -0.706336   -0.271125   -5.217682
