31 
4yvc_ligand_xtb.xyz
 C   -4.943623    0.597073    0.063262
 C   -6.141126   -0.095361    0.025546
 C   -5.097886   -2.096508   -0.152642
 C    2.114881    0.704313    0.008712
 C    3.702324   -1.320581    0.113326
 N    1.006142   -0.090483   -0.017246
 C    6.057905   -0.974698   -0.087095
 C    5.836869    0.386819   -0.223626
 C    4.985997   -1.832327    0.084446
 C   -0.253128    0.448374    0.005356
 C   -2.444369    0.516914    0.012598
 C   -3.751366   -0.124186   -0.014704
 C   -3.844403   -1.512898   -0.124411
 C    3.445725    0.042038   -0.022790
 C    4.549596    0.882864   -0.188216
 O    2.006165    1.917533    0.044551
 N   -1.322969   -0.263754   -0.022012
 C   -2.182846    1.859158    0.066099
 S   -0.491788    2.177369    0.073337
 N   -6.227402   -1.410927   -0.080545
 F    2.691271   -2.204520    0.289009
 H   -4.941097    1.671571    0.152962
 H   -7.086242    0.429539    0.083140
 H   -5.210404   -3.169806   -0.237979
 H    1.050800   -1.099465   -0.042626
 H    7.061025   -1.371155   -0.111277
 H    6.669078    1.060348   -0.355392
 H    5.126035   -2.895686    0.198473
 H   -2.945004   -2.103463   -0.185391
 H    4.355945    1.940275   -0.286873
 H   -2.879965    2.670542    0.097537
