70 
4yw6_ligand_xtb.xyz
 C   -6.642168    0.899200    0.517351
 C   -8.104283    0.759342    0.941491
 C   -8.645365   -0.276103   -0.041897
 C   -7.484147   -1.254202   -0.159233
 N   -6.300606   -0.415946    0.007321
 C   -5.097316   -0.902408   -0.284106
 O   -4.914459   -2.044456   -0.679221
 C   -3.877428    0.027887   -0.151860
 C   -3.748944    0.846637   -1.458855
 C   -2.376478    1.492538   -1.680160
 C   -2.069581    2.624817   -0.695520
 C   -0.587247    2.987114   -0.634434
 N    0.206221    1.870420   -0.061351
 N   -2.745551   -0.856059    0.008577
 C   -1.663710   -0.540411    0.708047
 O   -1.565729    0.532623    1.331291
 C   -0.451615   -1.379507    0.577813
 C    0.468070   -1.364408    1.625598
 C    1.770203   -1.760550    1.421179
 C    2.182759   -2.118129    0.139654
 C    1.237919   -2.284827   -0.870122
 C   -0.076199   -1.923642   -0.649642
 O    3.504848   -2.238632   -0.204461
 C    4.377876   -1.315481    0.391461
 O    3.679655   -0.118820    0.621488
 C    4.470352    0.891872    1.209661
 C    3.533707    2.059389    1.544369
 O    2.809541    2.518337    0.425736
 C    5.616468    1.292260    0.268284
 O    5.087603    1.877019   -0.900098
 C    6.443074    0.046033   -0.088617
 O    7.353404    0.436136   -1.081044
 C    5.533446   -1.084397   -0.599038
 O    6.331739   -2.223590   -0.749202
 H   -6.542702    1.650242   -0.274583
 H   -5.997612    1.182548    1.352056
 H   -8.636237    1.706369    0.896537
 H   -8.162978    0.372927    1.958942
 H   -9.553479   -0.756587    0.311656
 H   -8.848299    0.189587   -1.006568
 H   -7.509528   -2.008173    0.633842
 H   -7.435077   -1.772275   -1.117977
 H   -3.941058    0.682567    0.719737
 H   -4.519671    1.616948   -1.463043
 H   -3.942750    0.169952   -2.294130
 H   -1.618131    0.709814   -1.613858
 H   -2.348677    1.884151   -2.698503
 H   -2.633170    3.513208   -0.979357
 H   -2.385020    2.336142    0.306546
 H   -0.455478    3.855252    0.011619
 H   -0.201445    3.230717   -1.625652
 H    1.166274    2.168684    0.242971
 H   -0.363170    1.427590    0.731611
 H    0.339263    1.131900   -0.755287
 H   -2.909194   -1.782870   -0.379110
 H    0.153983   -1.000631    2.591817
 H    2.477745   -1.728902    2.233150
 H    1.561045   -2.638171   -1.836131
 H   -0.789848   -1.993827   -1.457228
 H    4.785127   -1.711642    1.343872
 H    4.916665    0.521609    2.146586
 H    4.132398    2.874113    1.968971
 H    2.799126    1.731293    2.283352
 H    3.435131    2.519875   -0.321083
 H    6.273864    2.011368    0.779573
 H    5.805673    1.880514   -1.550545
 H    6.969466   -0.316521    0.806736
 H    7.843645   -0.345801   -1.363020
 H    5.087691   -0.779825   -1.559849
 H    5.776802   -2.968145   -1.009957
