136 
4ywa_ligand_xtb.xyz
 C    9.026745   -1.175599    0.756763
 C    8.473991   -2.304482   -0.141976
 C    4.877658   -1.704112    0.019316
 C    8.204805    0.111605    0.536218
 C    9.146836   -3.658250    0.141236
 C    6.311672   -1.369182   -0.210385
 N    3.106183   -2.149831    1.139565
 C    3.842575   -1.767675   -0.890044
 C    6.711974   -0.202844    0.702366
 N    2.756759   -2.047965   -0.140936
 O    8.517845    1.108696    1.474132
 O    7.100038   -2.509765    0.063589
 N    4.361291   -1.947351    1.242639
 N   10.410112   -0.949577    0.441035
 C   11.476120   -0.941931    1.265865
 C   12.560427   -0.779200    0.426940
 N   12.088644   -0.692402   -0.832879
 N   10.813154   -0.790130   -0.814220
 C   14.016906   -0.737357    0.753187
 O   14.718128    0.268739    0.039292
 O   13.185861    1.797762    0.812181
 C   14.527438    1.569196    0.482779
 C   13.295863    4.152340    0.152665
 C   12.918665    3.115516    1.227504
 O   12.447926    4.031930   -0.961900
 O   15.008193    4.806917   -1.357317
 C   14.966030    2.485770   -0.670035
 C   14.756507    3.947567   -0.272375
 C   11.424035    3.169015    1.571712
 O   16.321154    2.305956   -0.992958
 O   10.623394    2.646463    0.550448
 O    5.936662    0.918726    0.364864
 O   10.526969   -3.671161   -0.095829
 C    1.386055   -2.162162   -0.547759
 C    0.852374   -3.551024   -0.175887
 C    0.568925   -1.057243    0.146588
 C   -4.760842   -1.876880   -0.568805
 C   -0.672262   -3.627171   -0.376312
 N   -2.749448   -2.398995    0.002317
 N   -4.667509   -3.211759   -0.394697
 N   -3.469604   -3.512619   -0.057788
 C   -1.343398   -2.423896    0.322486
 C   -3.518603   -1.334264   -0.309732
 O   -0.817256   -1.206995   -0.119218
 C    0.960454    0.329549   -0.388642
 O    1.499258   -4.489465   -0.988372
 O   -1.090970   -4.849582    0.154103
 O    0.783494    0.415898   -1.773869
 O   -5.900818    0.168707   -0.685961
 C   -6.028187   -1.204481   -0.974912
 O   -9.609893   -1.453918    0.108256
 O   -7.445509   -3.156824   -0.538335
 N   -9.421853    1.156074   -1.064573
 O   -6.541486    2.523396    0.658039
 C   -8.317490    0.464192   -0.463247
 C   -7.006991    0.937481   -1.120080
 C   -6.694044    2.388466   -0.726947
 C   -7.237543   -1.806328   -0.231105
 C   -8.503979   -1.047569   -0.652655
 N   -9.581652    1.178185   -2.384848
 N  -10.652373    1.822934   -2.660860
 C  -11.224324    2.245732   -1.513001
 C  -10.432950    1.817686   -0.465158
 C  -12.493009    3.030479   -1.472001
 O  -13.093871    3.005049   -0.187070
 O  -14.904530    1.675132   -0.399640
 C  -15.607469    0.502119   -0.050146
 C  -15.818674    0.408972    1.470940
 C  -14.452146    0.466798    2.167530
 C  -13.693851    1.726679    1.713779
 C  -13.618437    1.783675    0.183712
 O  -12.385476    1.706937    2.221715
 O  -14.586683    0.462691    3.564113
 O  -16.589897    1.461163    1.995739
 O  -17.605848    1.787632   -0.535025
 C  -16.938960    0.581314   -0.813105
 H    8.951030   -1.465070    1.809560
 H    8.666917   -2.008603   -1.189383
 H    8.383238    0.467411   -0.489184
 H    8.628357   -4.415864   -0.461319
 H    9.014038   -3.912482    1.194953
 H    6.444790   -1.057742   -1.259634
 H    3.800802   -1.633319   -1.948796
 H    6.525354   -0.500804    1.744807
 H    9.301693    1.601871    1.174424
 H   11.393024   -1.054053    2.325109
 H   14.150495   -0.605435    1.834706
 H   14.493716   -1.670302    0.437156
 H   15.156952    1.769876    1.383710
 H   13.193229    5.160393    0.586999
 H   13.510970    3.350162    2.130204
 H   12.896136    4.473085   -1.697971
 H   15.849345    4.535432   -1.745257
 H   14.323217    2.243678   -1.530812
 H   15.427133    4.184782    0.568175
 H   11.153438    4.213181    1.786614
 H   11.234413    2.561579    2.460232
 H   16.464895    1.358920   -1.108993
 H   10.991436    2.950734   -0.294049
 H    6.320018    1.665878    0.843908
 H   10.696773   -3.413744   -1.010909
 H    1.336513   -2.035403   -1.634251
 H    1.069641   -3.739543    0.887234
 H    0.756069   -1.110720    1.228907
 H   -0.891160   -3.563735   -1.455908
 H   -1.218926   -2.536818    1.416172
 H   -3.152342   -0.333098   -0.324989
 H    2.018266    0.514725   -0.193792
 H    0.363645    1.087038    0.135353
 H    1.144522   -5.361064   -0.773726
 H   -2.060130   -4.905652    0.089642
 H   -0.147576    0.253857   -1.967852
 H   -6.189576   -1.351919   -2.058185
 H   -9.623375   -2.419237    0.095593
 H   -6.600861   -3.628314   -0.442371
 H   -5.875411    1.883670    0.938583
 H   -8.309070    0.695132    0.607031
 H   -7.122053    0.860477   -2.211799
 H   -5.783429    2.703281   -1.254166
 H   -7.517601    3.040777   -1.021142
 H   -7.084011   -1.670226    0.853497
 H   -8.681969   -1.248230   -1.722445
 H  -10.541615    1.918866    0.593104
 H  -13.183003    2.658165   -2.239458
 H  -12.291418    4.087903   -1.667583
 H  -15.043934   -0.388589   -0.373759
 H  -16.302340   -0.556992    1.697522
 H  -13.855145   -0.415649    1.908962
 H  -14.232708    2.622061    2.059900
 H  -12.991565    0.940478   -0.167532
 H  -12.449743    1.421663    3.144168
 H  -15.325058    1.052291    3.773428
 H  -17.248953    1.716357    1.327206
 H  -16.982363    2.501077   -0.733754
 H  -16.738586    0.492901   -1.887928
 H  -17.602936   -0.228708   -0.504689
