20 
4yxi_ligand_xtb.xyz
 C    2.654824    0.006359   -0.014333
 C    1.951722   -1.195823    0.017618
 C   -0.107731   -0.001107    0.107351
 C    1.947096    1.203183    0.019752
 O   -2.361797    1.229966    0.696640
 S   -1.884947   -0.002860    0.139596
 O   -2.361655   -1.247225    0.670013
 N   -2.223509    0.014109   -1.515137
 C    0.570170   -1.203082    0.077598
 C    0.563993    1.202972    0.080173
 C    4.149953   -0.001876   -0.095677
 H    2.495469   -2.128873   -0.003128
 H    2.483150    2.140646    0.001073
 H   -2.710707    0.853796   -1.783011
 H   -2.731733   -0.808418   -1.796510
 H    0.005555   -2.120736    0.115523
 H   -0.004370    2.118175    0.120556
 H    4.569254   -0.702515    0.623436
 H    4.466491   -0.317497   -1.089603
 H    4.558056    0.986745    0.095966
