23 
4yxo_ligand_dft.xyz
 O    2.846505    0.936770   -0.952100
 S    2.300132   -0.131483   -0.129573
 O    2.596730   -1.531836   -0.394844
 N    2.762007    0.237511    1.442327
 C    0.532727    0.041320   -0.075763
 C   -0.266846   -1.091810   -0.062246
 C   -1.652231   -0.946675   -0.021881
 C   -0.028533    1.317370   -0.060351
 C   -1.406866    1.442592   -0.019460
 C   -2.241875    0.316258    0.002553
 C   -3.742665    0.523287    0.044746
 C   -4.595790   -0.741748    0.067666
 H    3.569674    0.852851    1.414858
 H    2.955859   -0.608110    1.970179
 H    0.190577   -2.074753   -0.095473
 H   -2.270102   -1.838394   -0.014653
 H    0.610133    2.193858   -0.090543
 H   -1.852532    2.434260   -0.009587
 H   -4.027196    1.134674   -0.821383
 H   -3.978305    1.133642    0.926231
 H   -4.431723   -1.353760   -0.825591
 H   -4.378880   -1.357379    0.947138
 H   -5.657073   -0.478772    0.099681
