26 
4yxu_ligand_dft.xyz
 C   -4.024045   -0.001923   -0.641389
 C    0.304107   -1.210866    0.128960
 C   -3.261126    0.001264    0.692316
 C   -1.064357    1.203012    0.365393
 C   -1.766234    0.001271    0.491667
 O    3.083086   -1.270771   -0.881960
 S    2.732840    0.000535   -0.266792
 O    3.085102    1.277545   -0.868869
 N    3.386017   -0.009818    1.279668
 C    0.978094    0.000893    0.017791
 C   -1.064428   -1.200764    0.366499
 C    0.304309    1.212738    0.127830
 C   -5.538314   -0.001635   -0.446670
 H   -3.720618   -0.880960   -1.223580
 H   -3.720724    0.874409   -1.227692
 H    0.845032   -2.144419    0.016859
 H   -3.557290   -0.877706    1.278401
 H   -3.557869    0.882621    1.274500
 H   -1.599230    2.145479    0.450380
 H    3.941224   -0.848399    1.417158
 H    3.930693    0.832742    1.433849
 H   -1.599450   -2.143069    0.452373
 H    0.845522    2.146000    0.014786
 H   -5.863702   -0.885367    0.114100
 H   -5.863833    0.884333    0.110482
 H   -6.060844   -0.003636   -1.408367
