84 
4yyi_ligand_xtb.xyz
 N   -0.380726    2.236834    0.101666
 C   -0.734557    1.113408   -0.770061
 C   -1.790136    0.258541   -0.099483
 O   -2.054455    0.377500    1.093077
 O   -2.863143    3.252174   -0.203164
 C   -3.890658    3.623646    0.352492
 C   -3.890389    4.547607    1.543074
 N   -5.106019    3.234420   -0.061313
 C   -5.290378    2.283854   -1.138149
 C   -5.258887    0.838616   -0.625487
 C   -5.038643   -0.157972   -1.764840
 C   -4.641509   -1.558897   -1.289218
 C   -3.407032   -1.553745   -0.382930
 N   -2.393322   -0.637146   -0.881176
 C   -2.708404   -2.919438   -0.323921
 O   -2.628531   -3.649388   -1.294905
 N   -2.110770   -3.179175    0.851087
 C   -1.229845   -4.318035    1.033446
 C    0.135498   -4.010518    0.413116
 O    1.128252   -3.754265    1.073025
 N    0.125356   -4.010031   -0.925977
 C    1.304089   -3.600750   -1.657759
 C    1.843414   -2.294585   -1.057797
 O    1.121490   -1.324585   -0.904940
 O    1.871312    3.039559   -0.928412
 C    2.844076    3.320811   -0.216636
 C    2.700859    3.639558    1.240401
 N    4.080254    3.340606   -0.708649
 C    4.414711    2.903783   -2.046430
 C    5.540096    1.866473   -2.038817
 C    5.330486    0.728793   -1.038246
 C    4.081634   -0.108545   -1.309989
 C    3.889815   -1.184877   -0.225299
 N    3.142919   -2.324529   -0.729246
 C    3.275190   -0.562446    1.042481
 O    3.496629    0.593561    1.342558
 N    2.577032   -1.401264    1.827490
 C    1.954871   -0.909744    3.042074
 C    0.687710   -0.166421    2.651461
 O   -0.388660   -0.923837    2.652306
 O    0.675005    0.992838    2.307011
 H   -0.149014    1.872294    1.048865
 H    0.502832    2.709608   -0.291870
 H   -1.205946    2.868155    0.149368
 H    0.144155    0.483445   -0.941718
 H   -1.098942    1.493925   -1.724405
 H   -4.640026    5.325753    1.427935
 H   -2.911534    5.004675    1.657849
 H   -4.116332    3.977625    2.442751
 H   -5.917039    3.516489    0.465535
 H   -4.463146    2.437493   -1.836372
 H   -6.229131    2.503190   -1.648147
 H   -4.440438    0.776556    0.090848
 H   -6.184985    0.606823   -0.097372
 H   -4.259716    0.230174   -2.424100
 H   -5.950646   -0.240590   -2.357035
 H   -4.431028   -2.186982   -2.157168
 H   -5.463881   -2.016808   -0.738887
 H   -3.665539   -1.222677    0.626208
 H   -2.103161   -0.756214   -1.839382
 H   -2.105105   -2.483645    1.581321
 H   -1.672371   -5.186685    0.539354
 H   -1.111225   -4.510927    2.098712
 H   -0.754357   -4.153715   -1.412394
 H    2.063386   -4.388282   -1.616550
 H    1.025481   -3.421452   -2.696758
 H    2.658709    2.688486    1.772831
 H    3.542387    4.213152    1.614480
 H    1.777166    4.180727    1.426368
 H    4.850142    3.558074   -0.095039
 H    3.502141    2.494301   -2.482755
 H    4.722685    3.766474   -2.647237
 H    6.480037    2.365236   -1.792499
 H    5.635340    1.463573   -3.048201
 H    6.208247    0.079471   -1.072894
 H    5.255535    1.136554   -0.030696
 H    4.169576   -0.600720   -2.281252
 H    3.197221    0.527355   -1.326805
 H    4.873955   -1.561846    0.075183
 H    3.651355   -3.184540   -0.855550
 H    2.265806   -2.309740    1.499445
 H    1.720764   -1.753167    3.688949
 H    2.641825   -0.209581    3.524955
 H   -1.153520   -0.413191    2.273624
