61 
4yz5_ligand_xtb.xyz
 O   -3.459699   -2.047711    1.517143
 C   -4.255789   -1.436750    0.832758
 C   -5.690303   -1.194481    1.251669
 N   -3.979216   -0.948854   -0.406090
 C   -2.631905   -0.850007   -0.941722
 C   -1.756961    0.097226   -0.095977
 O   -0.391604    0.008778   -0.456106
 C   -2.079276    1.596357   -0.321702
 O   -1.067769    2.386178    0.238433
 C   -3.423706    2.039549    0.277517
 O   -4.468644    1.743593   -0.626440
 C   -3.417392    3.546169    0.554159
 O   -4.745293    3.900976    0.903116
 C   -2.018904   -2.263372   -1.061504
 O   -2.676108   -2.992863   -2.073717
 C   -0.541369   -2.182913   -1.430941
 C    0.174333   -1.269347   -0.440115
 C    0.183887   -1.841535    1.000917
 O    0.103933   -3.164340    1.037938
 O    0.330187   -1.160526    1.980260
 O    1.508847   -1.135555   -0.853464
 C    2.311070   -0.194003   -0.137527
 C    3.609681   -0.936426    0.232988
 C    4.641610    0.029772    0.828071
 O    4.876203    1.133346   -0.027934
 C    5.997386   -0.657550    1.033682
 O    6.928565    0.202161    1.629423
 O    4.153949   -1.558921   -0.899011
 C    2.638843    1.024900   -1.006189
 O    1.493895    1.813899   -1.196657
 C    3.720347    1.867593   -0.303245
 O    4.055988    2.916958   -1.151690
 H   -5.883363   -1.706249    2.189791
 H   -5.857213   -0.127775    1.383695
 H   -6.372518   -1.560371    0.488508
 H   -4.610321   -0.239207   -0.756511
 H   -2.713846   -0.441334   -1.954953
 H   -1.876736   -0.153031    0.967794
 H   -2.129166    1.766112   -1.410564
 H   -0.221200    2.036760   -0.092263
 H   -3.599863    1.515495    1.229580
 H   -5.178388    2.368182   -0.415374
 H   -2.713598    3.764535    1.359421
 H   -3.103514    4.077857   -0.352460
 H   -4.759455    4.827412    1.159445
 H   -2.125866   -2.775737   -0.097505
 H   -3.605083   -3.072708   -1.830862
 H   -0.435240   -1.750726   -2.426226
 H   -0.100324   -3.177053   -1.425695
 H    0.112666   -3.481363    1.957835
 H    1.790519    0.147581    0.760985
 H    3.366494   -1.695023    0.996922
 H    4.256519    0.402539    1.791591
 H    5.877635   -1.506940    1.707342
 H    6.346655   -1.013615    0.057750
 H    6.986447    0.989888    1.075910
 H    3.412637   -1.911444   -1.410676
 H    3.043283    0.680050   -1.968920
 H    1.778595    2.629026   -1.630447
 H    3.292498    2.260363    0.646985
 H    4.967348    3.169866   -0.965865
