82 
4yzm_ligand_dft.xyz
 C   -4.564023    0.279536   -0.562104
 C   -5.466873    1.333436   -0.758983
 C   -5.055950    2.565862   -0.259736
 N   -3.871543    2.783346    0.299515
 N   -3.360371    0.479976   -0.033364
 C    7.416352   -1.244816   -1.677577
 C    8.691966   -0.596430   -2.235341
 N    9.234287    0.371746   -1.222805
 C   10.570284    0.881479   -1.642342
 C    8.267353    1.521137   -1.073338
 C    6.848745    0.961304   -0.963239
 N    6.902990   -0.445451   -0.568068
 C    5.662107   -0.925492    0.037354
 C    4.400282   -0.810351   -0.853936
 C    3.287510   -1.744029   -0.340568
 C    5.777939   -2.357682    0.559754
 C    4.593297   -2.651671    1.502406
 N    3.391963   -1.910758    1.109428
 C    2.926413   -0.944907    1.981183
 O    3.486317   -0.688105    3.039687
 C    1.664124   -0.230439    1.607720
 C    1.576168    1.130037    1.925959
 C    0.416496    1.833458    1.658279
 O    0.236339    3.159385    1.912008
 C    1.291461    3.868687    2.524853
 C    0.560731   -0.873756    1.061653
 C   -0.617265   -0.176478    0.802287
 C   -0.705036    1.184944    1.084729
 N   -1.813910    1.995283    0.861690
 C   -3.053808    1.721327    0.349570
 N   -4.898182   -1.025732   -0.926261
 C   -3.777992   -1.933404   -1.131482
 C   -6.082860   -1.558654   -0.343782
 C   -6.017600   -2.746681    0.393884
 C   -7.153293   -3.285173    0.983602
 C   -8.382608   -2.648767    0.852309
 C   -8.458101   -1.483954    0.105588
 C   -7.326592   -0.923558   -0.493305
 C   -7.599374    0.251247   -1.382028
 O   -8.673845    0.346917   -1.956786
 N   -6.636302    1.216946   -1.542340
 C   -6.957396    2.303841   -2.462307
 H   -5.710115    3.430960   -0.345676
 H    7.630493   -2.253458   -1.310096
 H    6.694848   -1.339948   -2.507419
 H    8.547169    0.061635   -3.126841
 H    9.471611   -1.336212   -2.431892
 H    9.282431   -0.107410   -0.322617
 H   11.261107    0.039353   -1.718762
 H   10.374571    1.365908   -2.622496
 H   10.918834    1.596569   -0.894129
 H    8.399692    2.074887   -2.035491
 H    8.583351    2.073511   -0.184348
 H    6.337711    1.097088   -1.932429
 H    6.289723    1.520381   -0.207327
 H    8.818569    1.754744   -3.718768
 H    5.507797   -0.286513    0.917190
 H    4.634088   -1.065525   -1.894065
 H    4.042726    0.225358   -0.851945
 H    3.378975   -2.739891   -0.788117
 H    2.306286   -1.359710   -0.611698
 H    6.722300   -2.487901    1.097878
 H    5.780400   -3.066936   -0.277407
 H    4.831019   -2.348165    2.521732
 H    4.363864   -3.723778    1.502235
 H    2.428201    1.604811    2.397746
 H    1.536091    3.445897    3.506611
 H    2.188840    3.868396    1.894012
 H    0.934885    4.891653    2.647072
 H    0.602953   -1.938760    0.853759
 H   -1.477440   -0.680081    0.386793
 H   -1.698865    2.961701    1.134995
 H   -3.269348   -2.216714   -0.201217
 H   -4.149840   -2.830279   -1.631820
 H   -3.048905   -1.442856   -1.777975
 H   -5.068751   -3.253034    0.522482
 H   -7.069059   -4.205023    1.554544
 H   -9.273735   -3.064313    1.310883
 H   -9.409265   -0.990136   -0.060093
 H   -7.507809    1.894200   -3.308970
 H   -7.586162    3.066748   -1.989274
 H   -6.027006    2.759481   -2.807259
