53 
4yzn_ligand_xtb.xyz
 C    3.435211   -0.464222   -0.153038
 C    4.627998    0.251252    0.131797
 C    4.487855    1.604920    0.400097
 N    3.323300    2.217331    0.406965
 N    2.261313    0.164312   -0.137013
 C    1.389235   -3.069371    0.317777
 C    2.168075   -3.938533   -0.622937
 C    2.211747   -2.455104   -0.782433
 N    3.421087   -1.771143   -0.454514
 C    5.950486   -0.423696    0.132297
 F    6.966680    0.390372    0.429859
 F    6.013451   -1.448570    1.018680
 F    6.253002   -0.988400   -1.061769
 C    2.245536    1.461223    0.141631
 N    1.073764    2.137158    0.176562
 C   -0.221031    1.693888   -0.016411
 C   -1.248658    2.665853    0.014709
 C   -2.562958    2.279296   -0.169439
 O   -0.835759    3.949916    0.230109
 C   -1.802317    4.975555    0.216154
 C   -0.552742    0.365951   -0.235859
 C   -1.877479    0.014050   -0.414242
 F   -2.156458   -1.292946   -0.643168
 C   -2.904304    0.941639   -0.370472
 C   -4.333549    0.607536   -0.677241
 O   -4.894104    1.121558   -1.628283
 N   -4.958532   -0.256835    0.150263
 C   -6.311366   -0.688238   -0.140170
 C   -6.337856   -2.217341   -0.208458
 O   -5.855673   -2.785981    0.989203
 C   -4.530270   -2.381056    1.241775
 C   -4.434454   -0.853246    1.356310
 H    5.350921    2.219426    0.618898
 H    1.752015   -2.966104    1.328433
 H    0.314859   -3.039337    0.229402
 H    1.632582   -4.515411   -1.360353
 H    3.051646   -4.429448   -0.243211
 H    1.685811   -1.999615   -1.613716
 H    4.276759   -2.302457   -0.438780
 H    1.168113    3.128373    0.361099
 H   -3.362503    3.001747   -0.172356
 H   -2.322422    5.020907   -0.744723
 H   -2.531743    4.848619    1.021678
 H   -1.248767    5.899792    0.372958
 H    0.223802   -0.377397   -0.271377
 H   -6.613526   -0.246053   -1.090001
 H   -6.979772   -0.344200    0.657749
 H   -5.723798   -2.554371   -1.056940
 H   -7.358909   -2.580960   -0.330880
 H   -3.870043   -2.727229    0.434361
 H   -4.237973   -2.854559    2.180227
 H   -5.050186   -0.522819    2.203382
 H   -3.404126   -0.544841    1.526578
