38 
4z1j_ligand_dft.xyz
 C    5.391735   -0.751966   -0.201989
 C    4.105860   -0.365059    0.179932
 C    0.845961   -1.363095   -0.236613
 C   -0.560984   -0.833906   -0.141194
 C    3.114301   -1.427975    0.612391
 C    1.652202    0.354709    1.388883
 C    2.375161    1.433440    0.584843
 C    3.764774    0.991160    0.180898
 O    1.120536   -2.180959   -1.101783
 C   -1.296624   -0.905710    1.044745
 C   -2.618209   -0.482366    1.075827
 C   -1.160635   -0.349156   -1.302460
 C   -2.477451    0.095353   -1.278238
 C   -3.192787    0.018784   -0.088604
 S   -4.885660    0.572577   -0.049048
 N   -5.754062   -0.853423   -0.187012
 O   -5.109089    1.372115   -1.243566
 O   -5.162912    1.080594    1.285168
 N    1.749984   -0.927842    0.699213
 C    4.720904    1.932693   -0.207579
 C    5.997588    1.542691   -0.589231
 C    6.335807    0.190933   -0.585388
 H    5.649885   -1.808617   -0.203183
 H    3.401334   -1.820422    1.597996
 H    3.112234   -2.259350   -0.093884
 H    0.608950    0.626551    1.542836
 H    2.115052    0.237932    2.376152
 H    2.426438    2.359124    1.169699
 H    1.780956    1.658719   -0.311375
 H   -0.833113   -1.301239    1.943797
 H   -3.196359   -0.526725    1.992513
 H   -0.589507   -0.325830   -2.224661
 H   -2.947227    0.503622   -2.166357
 H   -6.149048   -0.952500   -1.116923
 H   -6.467116   -0.891197    0.534747
 H    4.454709    2.987307   -0.206332
 H    6.727724    2.289145   -0.887092
 H    7.330312   -0.126091   -0.884463
