38 
4z1j_ligand_xtb.xyz
 C    5.394929   -0.623255   -0.247511
 C    4.083506   -0.325217    0.103697
 C    0.804126   -1.545694   -0.295999
 C   -0.571338   -0.951031   -0.167017
 C    3.125558   -1.456933    0.370905
 C    1.599814    0.177992    1.299391
 C    2.274294    1.353886    0.593180
 C    3.690294    1.004713    0.221146
 O    1.015051   -2.470452   -1.057917
 C   -1.412610   -1.343217    0.870221
 C   -2.703018   -0.846488    0.936738
 C   -1.028652   -0.072318   -1.143237
 C   -2.318364    0.426657   -1.073639
 C   -3.135702    0.034115   -0.033810
 S   -4.807707    0.643641    0.034942
 N   -5.608316   -0.552007   -0.837866
 O   -4.899136    1.871889   -0.699456
 O   -5.279940    0.593282    1.387774
 N    1.756323   -1.008307    0.494028
 C    4.617244    2.011403   -0.022740
 C    5.917718    1.708453   -0.376836
 C    6.308905    0.384041   -0.488397
 H    5.693227   -1.658018   -0.333823
 H    3.423089   -1.970474    1.296538
 H    3.156684   -2.185424   -0.444442
 H    0.542048    0.382823    1.467518
 H    2.084249    0.000981    2.266194
 H    2.260268    2.236319    1.235212
 H    1.712258    1.594841   -0.314859
 H   -1.054212   -2.036338    1.616690
 H   -3.377945   -1.117807    1.732440
 H   -0.374743    0.211237   -1.954337
 H   -2.700704    1.121890   -1.803512
 H   -5.999083   -0.196177   -1.694665
 H   -6.302662   -1.023541   -0.281951
 H    4.307956    3.042920    0.068663
 H    6.625553    2.501962   -0.563644
 H    7.323268    0.138351   -0.763983
