51 
4z1q_ligand_dft.xyz
 C    3.779429    0.066224   -0.148058
 C    5.141573    0.230905   -0.010558
 C    5.923810   -0.894890    0.310229
 N    7.293072   -0.808623    0.409880
 N    5.391729   -2.107714    0.493306
 C    4.074157   -2.238105    0.349086
 C    3.201262   -1.199995    0.026940
 C    1.745875   -1.421863   -0.112257
 C    0.838510   -0.478813    0.373230
 C   -0.539070   -0.636867    0.224676
 C    1.241054   -2.576717   -0.722689
 C   -0.126853   -2.775000   -0.837000
 C   -1.018245   -1.803676   -0.389494
 N   -2.415281   -1.984700   -0.508870
 C   -3.189779   -2.347650   -1.586430
 C   -2.666716   -2.650900   -2.947123
 N   -4.449084   -2.353706   -1.237399
 N   -4.527756   -1.991176    0.089881
 C   -3.312996   -1.767749    0.504939
 C   -2.852769   -1.326718    1.856646
 C   -3.967896   -1.431148    2.895662
 C   -2.317916    0.112666    1.795196
 N   -1.440800    0.369272    0.655832
 C   -1.141846    1.703902    0.335424
 C   -0.565613    2.010779   -0.909152
 C   -0.274694    3.318620   -1.259101
 C   -0.571305    4.352532   -0.374803
Cl   -0.204634    6.005290   -0.816737
 C   -1.155975    4.077234    0.850853
 C   -1.433379    2.759720    1.206841
 H    3.156347    0.916303   -0.415086
 H    5.607006    1.199581   -0.163284
 H    7.730677   -1.602584    0.854341
 H    7.692104    0.087219    0.643588
 H    3.682983   -3.238731    0.527562
 H    1.202046    0.412961    0.874843
 H    1.924482   -3.320462   -1.120109
 H   -0.513735   -3.683126   -1.287003
 H   -3.504051   -2.627992   -3.646387
 H   -1.918885   -1.915043   -3.259148
 H   -2.205837   -3.642991   -2.999606
 H   -2.027065   -1.985518    2.159089
 H   -4.287934   -2.468978    3.012902
 H   -3.619098   -1.061044    3.865377
 H   -4.839915   -0.849128    2.585271
 H   -3.173703    0.790352    1.703328
 H   -1.812674    0.334801    2.749811
 H   -0.351741    1.212749   -1.612056
 H    0.167967    3.538016   -2.224754
 H   -1.386975    4.883445    1.538635
 H   -1.870089    2.571813    2.180451
