51 
4z1s_ligand_dft.xyz
 C   -3.779429    0.066222   -0.148058
 C   -5.141573    0.230902   -0.010558
 C   -5.923809   -0.894894    0.310230
 N   -7.293071   -0.808628    0.409881
 N   -5.391727   -2.107717    0.493307
 C   -4.074155   -2.238107    0.349086
 C   -3.201260   -1.199997    0.026939
 C   -1.745874   -1.421863   -0.112257
 C   -0.838509   -0.478813    0.373230
 C    0.539071   -0.636867    0.224676
 C   -1.241052   -2.576718   -0.722690
 C    0.126855   -2.774999   -0.837001
 C    1.018246   -1.803675   -0.389495
 N    2.415282   -1.984699   -0.508870
 C    3.189781   -2.347649   -1.586430
 C    2.666719   -2.650902   -2.947122
 N    4.449086   -2.353702   -1.237399
 N    4.527758   -1.991171    0.089882
 C    3.312998   -1.767746    0.504939
 C    2.852770   -1.326716    1.856646
 C    3.967897   -1.431145    2.895662
 C    2.317916    0.112668    1.795197
 N    1.440800    0.369273    0.655832
 C    1.141845    1.703903    0.335424
 C    1.433378    2.759722    1.206840
 C    1.155973    4.077235    0.850852
 C    0.571301    4.352533   -0.374804
Cl    0.204627    6.005290   -0.816737
 C    0.274691    3.318619   -1.259101
 C    0.565611    2.010779   -0.909151
 H   -3.156348    0.916302   -0.415087
 H   -5.607007    1.199578   -0.163284
 H   -7.730676   -1.602590    0.854341
 H   -7.692104    0.087213    0.643590
 H   -3.682979   -3.238733    0.527563
 H   -1.202046    0.412961    0.874842
 H   -1.924480   -3.320462   -1.120110
 H    0.513738   -3.683125   -1.287004
 H    3.504054   -2.627992   -3.646386
 H    1.918886   -1.915047   -3.259148
 H    2.205842   -3.642994   -2.999605
 H    2.027067   -1.985517    2.159088
 H    4.287936   -2.468975    3.012902
 H    3.619098   -1.061043    3.865377
 H    4.839915   -0.849124    2.585272
 H    3.173703    0.790354    1.703329
 H    1.812673    0.334802    2.749812
 H    1.870090    2.571815    2.180450
 H    1.386973    4.883447    1.538633
 H   -0.167972    3.538014   -2.224754
 H    0.351739    1.212748   -1.612056
