167 
4z2p_ligand_dft.xyz
 N   -5.375564   -2.783172    0.094361
 C   -6.639650   -2.829178    0.879260
 C   -6.935892   -1.501614    1.599909
 O   -7.760135   -1.499107    2.497935
 C   -6.625226   -4.009489    1.864890
 C   -5.501624   -3.894724    2.899302
 C   -6.578254   -5.353240    1.131509
 N   -6.311590   -0.381412    1.155487
 C   -6.470268    0.889179    1.853258
 C   -6.649170    2.011649    0.821064
 O   -6.032337    3.065850    0.940592
 C   -5.308289    1.170474    2.798345
 N   -7.542399    1.739666   -0.163713
 C   -7.609470    2.357732   -1.496336
 C   -6.530470    1.675188   -2.355245
 O   -6.792012    0.757970   -3.118762
 C   -7.610625    3.904647   -1.537750
 O   -6.355020    4.496782   -1.265898
 C   -8.705247    4.488114   -0.650861
 N   -5.266146    2.080102   -2.078170
 C   -4.120531    1.431812   -2.649255
 C   -4.183874   -0.072403   -2.367848
 O   -4.810627   -0.565709   -1.428190
 C   -2.835065    2.076202   -2.066956
 C   -2.676934    1.811546   -0.569503
 C   -1.572260    1.699027   -2.842901
 N   -3.439842   -0.836968   -3.193513
 C   -3.404006   -2.281244   -3.124209
 C   -2.957697   -2.845271   -1.770164
 O   -3.384740   -3.941628   -1.412046
 C   -2.473799   -2.802275   -4.219144
 O   -1.234964   -2.138461   -4.051269
 N   -2.090400   -2.111611   -1.050522
 C   -1.480934   -2.600626    0.172953
 C   -2.068728   -1.825366    1.367153
 O   -3.296765   -1.791897    1.528512
 C    0.041452   -2.614257    0.043868
 C    0.508511   -3.467895   -1.143901
 C    2.007912   -3.341671   -1.259982
 O    2.660518   -4.441540   -0.954197
 O    2.544314   -2.285660   -1.563999
 N   -1.223366   -1.234596    2.216537
 C   -1.691996   -0.389133    3.314463
 C   -1.143918    1.007983    2.979324
 O   -1.814544    1.791429    2.328491
 C   -1.315621   -0.982117    4.667145
 O    0.079387   -1.231374    4.685428
 N    0.156125    1.226014    3.329168
 C    0.995196    2.008275    2.447270
 C    1.620471    1.028859    1.426331
 O    1.447423   -0.190215    1.522725
 C    2.038265    2.829010    3.236193
 C    2.781988    3.836320    2.386381
 C    4.156757    3.718037    2.172309
 C    2.090053    4.872812    1.749107
 C    4.823870    4.598766    1.324511
 C    2.753662    5.754125    0.900904
 C    4.122405    5.614046    0.680851
 N    2.328649    1.567295    0.421336
 C    3.094492    0.738527   -0.489964
 C    4.336506    0.199753    0.228266
 O    4.933040    0.860242    1.085784
 C    3.472744    1.555530   -1.729199
 C    2.264120    1.902519   -2.610552
 C    2.611739    3.056304   -3.552895
 C    1.778943    0.682954   -3.400987
 N    4.717378   -1.035252   -0.132355
 C    5.812594   -1.717065    0.527854
 C    7.090581   -1.612030   -0.311379
 O    7.299026   -2.368911   -1.259522
 C    5.463466   -3.196483    0.761830
 O    5.193414   -3.832778   -0.482197
 C    4.258037   -3.357844    1.672372
 N    7.942227   -0.637526    0.052908
 C    9.222368   -0.448642   -0.587654
 C   10.221832   -1.470459   -0.043041
 O   10.029541   -2.195614    0.898373
 C    9.732697    0.986912   -0.379988
 C    8.909156    2.047842   -1.124264
 C    7.438516    2.031106   -0.773231
 O    7.223369    2.184909    0.543847
 O    6.548053    1.876253   -1.576247
 O   11.361286   -1.446825   -0.750780
 H   -5.137123   -3.685461   -0.330450
 H   -5.381826   -2.095882   -0.679475
 H   -4.543466   -2.505642    0.676122
 H   -7.447871   -2.980571    0.154802
 H   -7.581115   -3.928828    2.389951
 H   -5.603306   -4.690861    3.642355
 H   -5.538138   -2.937210    3.426639
 H   -4.510296   -3.996876    2.442770
 H   -5.607824   -5.533856    0.649681
 H   -6.726405   -6.169845    1.843565
 H   -7.361857   -5.431379    0.369740
 H   -5.589361   -0.405621    0.442445
 H   -7.399744    0.803561    2.426340
 H   -4.356552    1.233157    2.262347
 H   -5.255363    0.365749    3.537985
 H   -5.461045    2.119182    3.316424
 H   -7.895372    0.791672   -0.148594
 H   -8.563442    2.036600   -1.921247
 H   -7.821390    4.153326   -2.583869
 H   -6.178872    4.316438   -0.320605
 H   -8.748759    5.570364   -0.794556
 H   -9.684080    4.062356   -0.893393
 H   -8.495815    4.288177    0.404715
 H   -5.173606    3.004583   -1.663749
 H   -4.115844    1.554453   -3.742622
 H   -2.982085    3.154828   -2.211274
 H   -2.534877    0.744352   -0.358383
 H   -1.806709    2.339172   -0.172867
 H   -3.545819    2.143714    0.005241
 H   -1.693303    1.850861   -3.922436
 H   -0.738465    2.327252   -2.517495
 H   -1.266979    0.659180   -2.678438
 H   -2.906214   -0.393515   -3.927871
 H   -4.403628   -2.695497   -3.292914
 H   -2.916227   -2.582549   -5.200519
 H   -2.382547   -3.889829   -4.111938
 H   -0.621948   -2.426202   -4.738107
 H   -1.737411   -1.255827   -1.458209
 H   -1.849515   -3.625441    0.291321
 H    0.475186   -3.011480    0.968755
 H    0.429057   -1.596449   -0.071229
 H    0.063352   -3.089387   -2.069819
 H    0.224572   -4.515009   -1.012508
 H    3.639375   -4.245733   -0.914058
 H   -0.226989   -1.165596    2.003374
 H   -2.778616   -0.334331    3.245652
 H   -1.877582   -1.915706    4.801601
 H   -1.612823   -0.278505    5.456807
 H    0.331351   -1.548693    5.559923
 H    0.612855    0.436114    3.777281
 H    0.335496    2.694174    1.908669
 H    1.487987    3.338647    4.034466
 H    2.748522    2.147331    3.717856
 H    4.700963    2.907804    2.646045
 H    1.021921    4.992698    1.917701
 H    5.890805    4.481152    1.161787
 H    2.202716    6.553221    0.414341
 H    4.640521    6.297825    0.015782
 H    2.583198    2.545039    0.482063
 H    2.471475   -0.111955   -0.774870
 H    4.212691    0.998807   -2.312956
 H    3.989009    2.464995   -1.398439
 H    1.450118    2.236218   -1.950525
 H    3.450642    2.784732   -4.204570
 H    1.760227    3.314499   -4.192601
 H    2.899781    3.952766   -2.993114
 H    0.902473    0.936351   -4.008268
 H    1.513408   -0.160243   -2.754021
 H    2.565851    0.336479   -4.081934
 H    4.143569   -1.567215   -0.788277
 H    5.960276   -1.231280    1.496519
 H    6.339474   -3.672707    1.222648
 H    5.934195   -3.592687   -1.079529
 H    3.406173   -2.773314    1.309945
 H    4.501978   -3.010719    2.680717
 H    3.971521   -4.411265    1.727959
 H    7.728001   -0.079244    0.867447
 H    9.100243   -0.649110   -1.657403
 H    9.751699    1.211131    0.692970
 H   10.764805    1.036333   -0.735888
 H    9.313818    3.036399   -0.880600
 H    8.984484    1.907203   -2.204947
 H    6.277654    1.960159    0.715853
 H   11.954733   -2.108404   -0.359814
