70 
4z9l_ligand_dft.xyz
 N    0.331092    1.559001   -0.613053
 C   -0.626308    2.443259   -0.221821
 N   -1.781612    1.860615    0.008463
 C   -1.581487    0.527533   -0.235092
 C   -0.277261    0.313969   -0.639717
 C    1.730228    1.854635   -0.919815
 C    2.658706    1.726264    0.287520
 C    2.312361    2.623956    1.470839
 C   -0.476885    3.933338   -0.108236
 C   -1.294901    4.611454   -1.224510
 C   -1.338447    6.124678   -1.080822
 N   -1.867854    6.483717    0.286651
 C   -1.026100    5.905818    1.399780
 C   -0.983084    4.392481    1.269990
 C   -2.667835   -0.444203   -0.026445
 C    0.369535   -0.916890   -1.135114
 C   -2.408883   -1.717087    0.482183
 C   -3.440619   -2.628574    0.676046
 C   -4.756591   -2.267350    0.375366
 C   -5.020817   -0.989808   -0.113385
 C   -3.987718   -0.086687   -0.311772
Cl   -3.053475   -4.199650    1.303113
Cl   -6.074170   -3.371279    0.601447
 C   -0.317774   -1.742178   -2.019364
 C    0.348064   -2.899582   -2.419239
 N    1.562783   -3.218356   -2.005354
 C    2.146537   -2.344820   -1.156049
 N    1.606676   -1.196241   -0.706194
 N    3.375956   -2.694704   -0.720630
 C    4.222764   -1.910224    0.157718
 C    5.180679   -2.836418    0.911669
 C    6.096004   -2.041786    1.847895
 C    6.860158   -0.948572    1.095482
 C    5.899277   -0.026966    0.338780
 C    4.997445   -0.827026   -0.604399
 H    1.771396    2.862603   -1.345435
 H    2.047358    1.160569   -1.699868
 H    3.673191    1.949068   -0.062598
 H    2.648357    0.677487    0.595472
 H    2.328317    3.687355    1.197531
 H    1.324266    2.378105    1.875895
 H    3.037313    2.485281    2.277852
 H    0.573642    4.225099   -0.210696
 H   -2.311582    4.199731   -1.214081
 H   -0.872074    4.376385   -2.205815
 H   -1.992754    6.596147   -1.817104
 H   -0.345083    6.577089   -1.147572
 H   -2.823650    6.122471    0.376143
 H   -1.930948    7.500818    0.383932
 H   -1.468872    6.231114    2.343463
 H   -0.036930    6.360758    1.296309
 H   -0.333103    4.006245    2.059782
 H   -1.976145    3.960924    1.442500
 H   -1.398436   -2.011092    0.743117
 H   -6.045103   -0.716480   -0.341449
 H   -4.200549    0.906074   -0.693351
 H   -1.310961   -1.501557   -2.375225
 H   -0.121230   -3.597570   -3.109354
 H    3.739120   -3.547299   -1.121575
 H    3.565132   -1.422760    0.888032
 H    5.796709   -3.382912    0.181868
 H    4.605935   -3.581776    1.472154
 H    6.794626   -2.721706    2.346426
 H    5.487801   -1.580643    2.638613
 H    7.550552   -1.415295    0.379636
 H    7.473569   -0.368278    1.793338
 H    6.457010    0.730123   -0.224116
 H    5.275452    0.513157    1.066385
 H    4.287516   -0.173767   -1.124666
 H    5.608531   -1.313221   -1.377172
