56 
4zbf_ligand_dft.xyz
 O    1.672551    0.307493   -1.971935
 C    0.800557   -0.423869   -1.260507
 O    1.018419   -1.575027   -0.945763
 C   -0.426548    0.320876   -0.926803
 N   -1.597976   -0.366695   -0.621329
 C   -2.548142    0.554059   -0.253755
 C   -1.912861   -1.742649   -0.995272
 C   -3.254103   -1.836702   -1.739525
 C   -4.438066   -2.221004   -0.864132
 S   -4.638829   -1.297346    0.713333
 O   -5.838408   -2.672452    1.207868
 C   -3.890599    0.352007    0.119164
 C   -4.617536    1.497619    0.386108
 C   -4.066031    2.794539    0.306784
 C   -2.741212    2.972940   -0.026805
 C   -1.966250    1.838030   -0.323229
 C   -0.607657    1.676002   -0.742375
 C    0.396644    2.789210   -0.787311
 C    0.802208    3.263968    0.622380
 C    1.359713    2.148149    1.488353
 O    2.510413    1.634605    0.838110
 C    3.009118    0.437582    1.227272
 C    4.020952   -0.094922    0.366697
 C    4.469922    0.610751   -0.778807
 C    5.407260    0.056874   -1.616238
 C    5.947676   -1.218853   -1.335367
 C    5.542221   -1.908731   -0.221860
 C    4.568229   -1.371418    0.659679
 C    4.125329   -2.074523    1.811758
 C    3.174403   -1.523287    2.624914
 C    2.603950   -0.259720    2.340315
 H    2.505739   -0.195867   -1.999530
 H   -1.912106   -2.377279   -0.100585
 H   -1.101313   -2.103246   -1.622803
 H   -3.180588   -2.624138   -2.498494
 H   -3.440596   -0.902913   -2.277295
 H   -4.357768   -3.250455   -0.517437
 H   -5.389172   -2.135891   -1.392911
 H   -5.360767   -3.265705    1.803004
 H   -5.659378    1.405677    0.697331
 H   -4.693577    3.652870    0.526575
 H   -2.305703    3.967018   -0.076238
 H    1.285443    2.475872   -1.334311
 H   -0.034851    3.639994   -1.328713
 H   -0.065823    3.685430    1.143300
 H    1.549042    4.061038    0.533417
 H    1.628257    2.520230    2.486327
 H    0.612981    1.351942    1.605081
 H    4.056170    1.592464   -0.979911
 H    5.744344    0.603833   -2.491832
 H    6.689312   -1.647599   -2.002723
 H    5.959632   -2.887563   -0.000591
 H    4.549372   -3.049915    2.031323
 H    2.835918   -2.058027    3.507319
 H    1.848960    0.141603    3.006136
 H   -5.815293   -0.653486    0.704667
