20 
4zcw_ligand_dft.xyz
 C   -0.570773    0.968838   -0.521310
 C   -1.769843   -0.910482    0.236211
 C   -0.642773   -1.434580   -0.661581
 C    0.283894   -0.226935   -0.896560
 N   -1.763645    0.506952   -0.113410
 O   -2.590496    1.347015    0.602643
 O   -0.236398    2.153106   -0.460332
 O   -2.962877   -1.544367   -0.080373
 O    2.781723   -1.192452   -0.393075
 O    2.379626    1.251055   -0.129628
 O    1.347213   -0.439412    1.636808
 P    1.719850   -0.157398    0.233218
 H   -1.534947   -0.997854    1.305522
 H   -0.140997   -2.289114   -0.205996
 H   -1.095833   -1.757549   -1.601797
 H    0.649636   -0.138554   -1.923266
 H   -2.044411    2.150212    0.716269
 H   -3.627361   -1.287191    0.571230
 H    3.113291   -1.778500    0.301175
 H    1.675019    1.930244   -0.216432
