26 
4ze6_ligand_dft.xyz
 C    1.441396    1.054623    0.117193
 C    0.406631   -0.061632    0.285905
 O   -3.670413    1.053476   -0.481976
 C    2.883106    0.655725    0.462431
 C   -1.010186    0.454833    0.034991
 C    3.416681   -0.414722   -0.477428
 C   -2.080815   -0.617614    0.204900
 N    4.875534   -0.704566   -0.170889
 C   -3.469390   -0.067895   -0.103463
 O   -4.491532   -0.928352    0.066957
 H    1.171417    1.892751    0.768219
 H    1.406480    1.443663   -0.908535
 H    0.479268   -0.477038    1.301126
 H    0.612728   -0.889646   -0.408361
 H    2.924787    0.291533    1.497577
 H    3.522811    1.545747    0.399916
 H   -1.083646    0.869848   -0.975955
 H   -1.228956    1.284345    0.716251
 H    3.381736   -0.099808   -1.522958
 H    2.892655   -1.366485   -0.375005
 H   -2.074849   -1.015628    1.229065
 H   -1.890171   -1.470210   -0.462250
 H    5.265486   -1.425330   -0.787003
 H    5.447730    0.139723   -0.278401
 H    4.990112   -1.025930    0.796197
 H   -4.175302   -1.786484    0.379322
