67 
4zeb_ligand_dft.xyz
 O    3.132598    1.767483    1.419253
 C    3.898164    0.588404    1.551554
 C    5.358811    1.027045    1.637984
 O    5.529416    2.038963    2.612859
 C    5.821171    1.563605    0.282287
 O    7.188205    1.903597    0.312101
 C    5.574543    0.571867   -0.858899
 C    6.542832   -0.598832   -0.943402
 O    6.484888   -1.393733    0.226543
 O    4.204349    0.170505   -0.846333
 C    3.722014   -0.379154    0.382397
 O    2.351069   -0.563636    0.246062
 C    1.844412   -1.429404   -0.743320
 C    2.631817   -2.728265   -0.869704
 O    2.793555   -3.352495    0.379331
 C    0.372492   -1.617360   -0.362686
 O    0.235607   -2.018807    0.970836
 O    1.765902   -0.804414   -1.998667
 C    0.621516    0.061556   -2.031208
 C    1.074820    1.508673   -2.197983
 O    1.994280    1.921884   -1.219196
 C   -0.169547   -0.242187   -0.750297
 O   -1.570216   -0.251831   -1.070079
 O   -2.580317   -1.662080    0.715851
 P   -2.628925   -0.163182    0.111846
 O   -2.491884    0.911845    1.107772
 O   -3.976408   -0.117140   -0.764449
 C   -5.152446    0.379900   -0.134695
 C   -5.832546   -0.747465    0.654361
 O   -5.040988   -1.146251    1.761162
 C   -7.218789   -0.308252    1.135183
 O   -7.065224    0.665782    2.152932
 C   -8.012636    0.242157   -0.041779
 O   -7.306789    1.334738   -0.602742
 C   -6.083284    0.939284   -1.207997
 O   -5.486143    2.048922   -1.757439
 H    2.433419    1.651822    0.753519
 H    3.609226    0.056888    2.468457
 H    5.994383    0.187856    1.928985
 H    4.772202    2.634261    2.493274
 H    5.206921    2.450963    0.062873
 H    7.313148    2.358569    1.157798
 H    5.688579    1.110502   -1.805569
 H    6.273973   -1.190073   -1.831520
 H    7.545488   -0.177177   -1.089986
 H    7.158539   -2.079105    0.163563
 H    4.234761   -1.321876    0.588249
 H    2.103627   -3.367279   -1.592722
 H    3.625902   -2.518801   -1.275705
 H    1.972662   -3.223546    0.880362
 H   -0.062823   -2.356047   -1.053066
 H   -0.710271   -2.164133    1.134113
 H    0.003372   -0.221663   -2.891939
 H    0.200352    2.164123   -2.127065
 H    1.501258    1.623438   -3.204922
 H    2.789960    1.363024   -1.309049
 H    0.024233    0.488522    0.039464
 H   -3.342172   -1.745452    1.331787
 H   -4.886763    1.206487    0.534149
 H   -5.915607   -1.625886    0.005368
 H   -5.147267   -0.451175    2.432117
 H   -7.731663   -1.160720    1.589971
 H   -6.975668    1.524102    1.712186
 H   -8.975776    0.633180    0.292282
 H   -8.188654   -0.543017   -0.793810
 H   -6.298912    0.160746   -1.963308
 H   -6.037811    2.363103   -2.484691
