25 
4zei_ligand_xtb.xyz
 O    3.077361   -1.440790   -0.144695
 P    2.187206   -0.166781    0.157970
 O    2.902316    0.938731   -0.732095
 O    1.987501    0.156361    1.572309
 O    0.864107   -0.621413   -0.630280
 C   -0.359648   -0.178932   -0.085139
 C   -1.497295   -1.004881   -0.679794
 O   -1.394861   -2.359179   -0.318371
 C   -2.827616   -0.463245   -0.124912
 O   -2.935468   -0.738327    1.243139
 C   -2.906580    1.053356   -0.342427
 O   -1.782320    1.747411    0.145658
 C   -0.573565    1.309759   -0.406422
 O    0.463529    2.077435    0.090785
 H    3.811671   -1.477073    0.465868
 H    2.475487    1.790266   -0.614832
 H   -0.340491   -0.291623    1.007119
 H   -1.476030   -0.897725   -1.775906
 H   -0.488169   -2.642007   -0.489621
 H   -3.656529   -0.941166   -0.672591
 H   -2.653057   -1.654531    1.372414
 H   -3.751276    1.452538    0.218941
 H   -3.038007    1.254247   -1.415450
 H   -0.561320    1.449003   -1.503036
 H    0.400539    2.081621    1.058109
