34 
4zek_ligand_xtb.xyz
 C   -4.777865    0.451816    0.855521
 C   -3.682750    0.265823   -0.184572
 C   -3.731804    1.320756   -1.279809
 O   -2.424915    0.354735    0.506099
 P   -1.236704   -0.509330   -0.061460
 O   -1.642267   -1.994431    0.355141
 O   -0.894281   -0.350254   -1.479765
 O   -0.126040   -0.035957    0.989783
 C    1.237613   -0.036755    0.633763
 C    1.619869    1.207164   -0.170322
 O    1.315363    2.386125    0.535436
 C    3.142192    1.172316   -0.400411
 O    3.818226    1.379804    0.810710
 C    3.562845   -0.180977   -0.989256
 O    3.054576   -1.286812   -0.276982
 C    1.656211   -1.270577   -0.185887
 O    1.213522   -2.450908    0.387596
 H   -5.753575    0.379261    0.383533
 H   -4.676914    1.427441    1.323596
 H   -4.693987   -0.312674    1.622722
 H   -3.762016   -0.730655   -0.634689
 H   -2.905378    1.162327   -1.966898
 H   -3.643568    2.312651   -0.843315
 H   -4.669799    1.250515   -1.823838
 H   -0.946267   -2.617056    0.130188
 H    1.792676   -0.037727    1.582940
 H    1.084179    1.181857   -1.129667
 H    0.405527    2.310282    0.849517
 H    3.408775    1.964310   -1.118718
 H    3.377510    2.119910    1.251709
 H    3.235663   -0.229513   -2.036972
 H    4.647124   -0.276182   -0.928398
 H    1.196592   -1.216747   -1.183352
 H    1.782677   -2.643842    1.145239
