47 
4zg6_ligand_dft.xyz
 C    8.045885    0.190449    0.697953
 C    2.064645   -1.967822   -0.958444
 C   -5.464818   -1.467212   -0.912156
 C   -0.664580    2.620801    0.289598
 C   -0.818741    1.352681   -0.283139
 C   -3.100513   -1.122744   -1.719696
 C   -4.097540   -1.499757   -0.643043
 C   -3.663468   -1.900170    0.621878
 C   -4.575685   -2.266993    1.602647
 C   -5.929837   -2.230810    1.300924
 C   -6.393380   -1.836203    0.056261
 O    8.451217    1.272413    1.034579
 O    8.898716   -0.851840    0.590544
 C    6.607166   -0.081412    0.378645
 C    6.031399   -1.350618    0.464835
 C    4.687392   -1.536212    0.172152
 C    3.884730   -0.457190   -0.215238
 C    4.471980    0.811854   -0.309859
 C    5.808951    0.999769    0.000840
 C    2.446216   -0.663571   -0.509064
 N    1.746969   -3.025544   -1.317980
 C    1.504778    0.300291   -0.341160
 C    0.088938    0.267508   -0.592219
 C   -1.774433    3.431027    0.449374
 C   -3.042342    2.980669    0.045025
Cl   -4.419761    4.034092    0.275276
 C   -3.240808    1.735773   -0.521904
 C   -2.104641    0.941055   -0.680191
 N   -1.994692   -0.328722   -1.216559
 C   -0.692593   -0.724883   -1.156659
 F   -6.814651   -2.581826    2.243637
 H   -5.816838   -1.147629   -1.889962
 H    0.309459    2.976489    0.612298
 H   -3.601071   -0.564586   -2.519157
 H   -2.666344   -2.017672   -2.176552
 H   -2.601033   -1.915023    0.849251
 H   -4.253867   -2.575396    2.590976
 H   -7.459536   -1.812219   -0.138937
 H    8.464900   -1.597044    0.155058
 H    6.609595   -2.206773    0.804585
 H    4.253176   -2.527985    0.256705
 H    3.884962    1.657862   -0.653491
 H    6.260260    1.984306   -0.060771
 H    1.864097    1.244112    0.063076
 H   -1.678100    4.416247    0.891218
 H   -4.229858    1.397677   -0.808248
 H   -0.409634   -1.697896   -1.531835
