58 
4zg7_ligand_xtb.xyz
 C   -1.871433    0.825735    1.548999
 C   -0.186458    2.274947    0.435019
 C   -0.940333    3.099923   -0.391765
 C   -0.289402    3.961025   -1.256388
 N   -3.302656   -0.823110    0.451917
 C    1.107139    4.011722   -1.305171
 C    1.870681    3.201427   -0.498759
 C    1.227545    2.326991    0.373101
 C    1.685115    1.356674    1.309336
 C    0.587355    0.780656    1.897669
 C    0.550792   -0.289449    2.923003
 O    7.643004   -1.876980   -0.164741
 O    6.779814   -3.346224   -1.560235
 C    3.614444   -0.373800    0.475305
 C    2.596573   -0.977668   -0.252146
 C    2.892135   -2.010253   -1.124951
 C    4.189988   -2.451995   -1.280934
 C    5.236632   -1.869843   -0.561070
 C    4.918326   -0.834355    0.309550
 C    6.608399   -2.427162   -0.805020
 C   -4.480946   -0.171663    1.013961
 C   -5.664936   -1.022109    0.562983
 C   -5.076709   -2.094476   -0.264790
 C   -3.688994   -1.941511   -0.307698
 C   -2.894070   -2.822769   -1.015434
 F   -2.295184    3.065870   -0.358703
Cl   -1.218585    4.987730   -2.289984
 S    3.366483    0.949963    1.625738
 F    5.892728   -0.227438    1.041193
 N   -0.547682    1.354915    1.386417
 C   -2.034553   -0.397843    0.623944
 O   -1.058022   -0.920835    0.124749
 C   -3.519148   -3.866039   -1.684966
 C   -4.894096   -4.022641   -1.648312
 C   -5.686913   -3.134264   -0.934829
 C   -6.996695   -0.398841    0.247861
 C   -6.847263   -1.258455    1.462566
 H   -2.600524    1.598486    1.309339
 H   -2.020382    0.509291    2.585936
 H    1.572121    4.699763   -1.992048
 H    2.947759    3.237608   -0.534434
 H    1.566430   -0.524520    3.230512
 H   -0.014618    0.026446    3.799724
 H    0.091572   -1.190005    2.515767
 H    7.403166   -1.147150    0.423856
 H    1.575744   -0.649493   -0.136120
 H    2.091807   -2.469928   -1.682991
 H    4.436560   -3.255446   -1.956913
 H   -4.565722    0.851036    0.629320
 H   -4.409444   -0.131058    2.106396
 H   -1.824981   -2.701563   -1.046381
 H   -2.916622   -4.565800   -2.243687
 H   -5.355615   -4.841872   -2.178339
 H   -6.759165   -3.255650   -0.905411
 H   -7.548341   -0.786781   -0.594427
 H   -7.097296    0.667395    0.383306
 H   -6.847494   -0.781530    2.431157
 H   -7.295673   -2.240037    1.458035
