58 
4zg7_ligand_dft.xyz
 C   -1.756568    0.717012    1.777666
 C   -0.280292    2.220738    0.451470
 C   -1.176190    2.886851   -0.383209
 C   -0.679596    3.685724   -1.396456
 N   -3.195239   -0.879625    0.581948
 C    0.705551    3.831714   -1.581391
 C    1.600470    3.175116   -0.758431
 C    1.106741    2.357031    0.263803
 C    1.724231    1.523730    1.260368
 C    0.722454    0.926392    1.986437
 C    0.822226   -0.085401    3.073775
 O    7.729057   -1.577484   -0.287035
 O    6.897685   -3.228488   -1.498308
 C    3.672479   -0.199946    0.421831
 C    2.643036   -0.937596   -0.161041
 C    2.937057   -2.058106   -0.934195
 C    4.249276   -2.458030   -1.132710
 C    5.305690   -1.743636   -0.559554
 C    4.977564   -0.628481    0.205077
 C    6.701508   -2.249393   -0.824409
 C   -4.394499   -0.141500    1.022758
 C   -5.565425   -1.012306    0.566001
 C   -4.959675   -2.087601   -0.262565
 C   -3.568565   -1.987363   -0.222411
 C   -2.755079   -2.887347   -0.900465
 F   -2.503561    2.747341   -0.209402
Cl   -1.794176    4.512357   -2.446157
 S    3.443808    1.247574    1.446621
 F    5.965585    0.104875    0.790959
 N   -0.499309    1.374421    1.525485
 C   -1.919856   -0.494029    0.840711
 O   -0.931266   -1.067644    0.406617
 C   -3.379911   -3.901181   -1.628464
 C   -4.766637   -4.011301   -1.676967
 C   -5.566534   -3.098587   -0.988830
 C   -6.909517   -0.410520    0.256586
 C   -6.745865   -1.284574    1.466846
 H   -2.557665    1.444951    1.666490
 H   -1.778903    0.359904    2.812232
 H    1.055588    4.468276   -2.386114
 H    2.670150    3.283230   -0.903557
 H    0.400594   -1.040733    2.742980
 H    1.872304   -0.240985    3.328735
 H    0.294597    0.237535    3.978246
 H    7.412760   -0.818494    0.224567
 H    1.609156   -0.642849   -0.010177
 H    2.123387   -2.619980   -1.380503
 H    4.497076   -3.328106   -1.730017
 H   -4.417225    0.843946    0.543736
 H   -4.387553   -0.006896    2.109228
 H   -1.679239   -2.796114   -0.862213
 H   -2.764643   -4.614453   -2.168166
 H   -5.228154   -4.807831   -2.251935
 H   -6.650067   -3.180112   -1.022921
 H   -7.447520   -0.803236   -0.601617
 H   -7.028384    0.658805    0.410262
 H   -6.755478   -0.810758    2.444986
 H   -7.165331   -2.286429    1.444887
