51 
4zg9_ligand_xtb.xyz
 C   -4.623197   -0.921267    0.578399
 C   -5.283218   -0.078966   -0.511823
 C   -6.739219   -0.433294   -0.674656
 C   -2.663502    0.117368    1.710264
 C   -1.177458    0.215765    1.388035
 C   -0.749731    1.668097    1.109401
 C    0.172391   -0.726704   -0.524356
 C    0.916193    0.560948   -0.417755
 C    1.531004    2.632354    0.179153
 C    1.697201    3.921278    0.683823
 C    3.797641    4.065511   -0.502025
 C    3.657938    2.794764   -1.017575
 C    3.471555   -1.208376   -0.956547
 C    4.759526   -1.806758    0.989599
 C    3.884764   -3.529919   -0.463315
 F    5.145745   -4.084144    1.444945
 C    4.596964   -3.139604    0.655706
 C    4.193121   -0.844464    0.174995
 C    3.320245   -2.553679   -1.265035
 C    2.848930   -0.137668   -1.822829
 N    2.113573    0.817457   -1.037266
 N   -1.065880   -0.596833    0.202033
 C   -2.266294   -1.020251   -0.249800
 O   -2.501732   -1.639215   -1.257345
 C    2.518044    2.077255   -0.675117
 C    2.829633    4.622259    0.337551
 C    0.522948    1.636264    0.328318
 O   -3.249395    0.596585    2.645953
 N   -3.218008   -0.610129    0.696623
 O   -7.308197   -1.339539   -0.132644
 O   -7.350975    0.400841   -1.524581
 H   -4.730053   -1.980535    0.332197
 H   -5.083137   -0.724825    1.549104
 H   -5.207102    0.986610   -0.287110
 H   -4.784580   -0.260309   -1.467557
 H   -0.569699   -0.196987    2.201966
 H   -0.627543    2.203744    2.050951
 H   -1.532307    2.175931    0.535295
 H    0.772265   -1.552621   -0.110243
 H   -0.079952   -0.979003   -1.560434
 H    0.949991    4.354112    1.331564
 H    4.674533    4.644425   -0.750547
 H    4.417428    2.377895   -1.662900
 H    5.320918   -1.538178    1.870136
 H    3.775392   -4.577875   -0.692433
 H    4.308004    0.200473    0.422240
 H    2.757766   -2.844823   -2.139826
 H    2.180474   -0.596005   -2.558841
 H    3.631719    0.400721   -2.364823
 H    2.979836    5.621359    0.718427
 H   -8.283930    0.154867   -1.628922
