42 
4zga_ligand_dft.xyz
 C    0.863545   -1.070249    0.839165
 C    4.093931   -1.123777   -1.020017
 O    2.993002   -2.805560    1.823486
 C    3.099614   -2.125987    0.826928
 N    4.246081   -2.012368    0.019727
 O    4.919170   -0.809646   -1.843838
 C    2.666501   -0.592131   -0.900245
 C    2.607441    0.927680   -0.686715
 C    1.270532    1.264071   -0.100365
 C    0.533499    2.495815   -0.113537
 C    0.769971    3.764575   -0.658784
 C   -0.188663    4.751049   -0.503470
 C   -1.384915    4.493945    0.189579
 C   -1.643377    3.250610    0.743885
 C   -0.670930    2.258775    0.589964
 N    2.161017   -1.320238    0.251766
 C    0.513361    0.362979    0.590570
 N   -0.656928    0.947669    1.029270
 C   -1.740290    0.247349    1.687005
 C   -2.559689   -0.614047    0.746343
 C   -2.847733   -1.939411    1.067814
 C   -3.607651   -2.736300    0.215640
 C   -3.037829   -0.089987   -0.457906
 C   -3.795952   -0.870096   -1.320928
 C   -4.070776   -2.184164   -0.967101
 F   -4.800004   -2.941602   -1.798897
 H    0.935629   -1.300857    1.908392
 H    0.102102   -1.739281    0.412339
 H    5.099375   -2.509710    0.225024
 H    2.105280   -0.858392   -1.804901
 H    3.421869    1.238937   -0.019479
 H    2.771999    1.427913   -1.646222
 H    1.691943    3.968026   -1.196362
 H   -0.020091    5.737157   -0.925041
 H   -2.123187    5.283530    0.291101
 H   -2.574464    3.062427    1.270539
 H   -2.370565    0.999222    2.171370
 H   -1.325385   -0.368948    2.492401
 H   -2.470876   -2.364557    1.994897
 H   -3.832633   -3.770193    0.452228
 H   -2.809077    0.937597   -0.727745
 H   -4.174003   -0.476432   -2.257954
