42 
4zga_ligand_xtb.xyz
 C    0.751529   -1.088684    0.778685
 C    4.006143   -1.240745   -0.998042
 O    2.891894   -2.705990    1.933359
 C    3.003344   -2.097031    0.901619
 N    4.159901   -2.023526    0.109850
 O    4.833484   -1.016316   -1.838822
 C    2.583390   -0.697663   -0.910492
 C    2.568586    0.831402   -0.729984
 C    1.249829    1.219956   -0.146102
 C    0.581330    2.478433   -0.154267
 C    0.884721    3.729418   -0.689631
 C   -0.015522    4.755459   -0.515106
 C   -1.210646    4.559601    0.181526
 C   -1.535411    3.334194    0.722851
 C   -0.632763    2.290841    0.554927
 N    2.066214   -1.367506    0.258038
 C    0.452565    0.353523    0.547503
 N   -0.682399    0.989087    0.984556
 C   -1.765820    0.343139    1.676565
 C   -2.562774   -0.550057    0.753982
 C   -2.862577   -1.858140    1.110158
 C   -3.588981   -2.672744    0.259701
 C   -2.991815   -0.061636   -0.475167
 C   -3.714129   -0.863191   -1.338946
 C   -4.004292   -2.160567   -0.955607
 F   -4.709027   -2.948449   -1.791694
 H    0.758806   -1.347544    1.843280
 H    0.001205   -1.722559    0.279914
 H    5.010593   -2.510382    0.347932
 H    2.003987   -0.968035   -1.801330
 H    3.379923    1.128069   -0.056741
 H    2.739458    1.317623   -1.690685
 H    1.807826    3.883059   -1.227690
 H    0.198772    5.732466   -0.921755
 H   -1.894414    5.387329    0.296543
 H   -2.465260    3.198770    1.255803
 H   -2.415342    1.120511    2.089052
 H   -1.367501   -0.243632    2.510712
 H   -2.528269   -2.246765    2.060729
 H   -3.830135   -3.689630    0.525020
 H   -2.754386    0.952885   -0.759202
 H   -4.053280   -0.497102   -2.294789
