31 
4zh3_ligand_dft.xyz
 F    2.370841   -2.583761    0.819159
 C    2.663201   -1.343638    1.236236
 F    1.999663   -1.140140    2.386110
 F    3.973982   -1.315867    1.521113
 C    2.299046   -0.311477    0.202077
 C    1.376303    0.689077    0.476543
 C    2.888568   -0.348840   -1.059547
 F    3.773059   -1.309994   -1.338313
 C    2.578736    0.583072   -2.035341
 C    1.649276    1.574293   -1.748350
 C    1.041885    1.635687   -0.493148
 C    0.068899    2.712467   -0.191706
 N    0.306053    3.869276   -0.707598
 O   -0.697564    4.777822   -0.344861
 N   -0.963414    2.488277    0.696284
 C   -1.713423    1.306777    0.840462
 C   -1.772873    0.335857   -0.162546
 C   -2.514797   -0.816960    0.055926
Br   -2.559901   -2.137502   -1.302956
 C   -3.230127   -1.020681    1.228623
 C   -3.186575   -0.031901    2.207430
 C   -2.428617    1.117074    2.026667
 H    0.915467    0.728788    1.456354
 H    3.058584    0.515323   -3.004903
 H    1.386251    2.311271   -2.499098
 H   -0.369477    5.607259   -0.709985
 H   -1.416711    3.341099    0.996796
 H   -1.252246    0.474407   -1.101884
 H   -3.805500   -1.927610    1.372031
 H   -3.738688   -0.169855    3.131722
 H   -2.374010    1.869443    2.807926
