32 
4zh4_ligand_dft.xyz
 F   32.038403   96.049465    7.826558
 C   32.296528   96.046815    9.144757
 F   32.875374   94.870817    9.434569
 F   31.116875   96.078289    9.782592
 C   33.173828   97.205490    9.537297
 C   33.622374   98.120987    8.593319
 C   33.546273   97.378409   10.867951
 F   33.119137   96.506176   11.787978
 C   34.350739   98.433017   11.260926
 C   34.803516   99.329811   10.300114
 C   34.449081   99.189806    8.954632
 C   34.926452  100.156117    7.953452
 C   35.027017  101.560044    8.100723
 N   35.463023  102.152586    6.999479
 N   35.640749  101.141756    6.136953
 C   35.344606   99.920260    6.649177
 C   35.504589   98.688830    5.861812
 C   36.089830   97.552494    6.433086
 C   36.244680   96.386496    5.696504
 C   35.819328   96.369652    4.375434
 F   35.971118   95.248608    3.658729
 C   35.240254   97.477444    3.776440
 C   35.079682   98.634562    4.529997
 H   33.318820   98.000609    7.560069
 H   34.621628   98.533080   12.305883
 H   35.454481  100.146181   10.598502
 H   34.769317  102.155251    8.966819
 H   36.426616   97.586155    7.464173
 H   36.693838   95.498956    6.127647
 H   34.911202   97.420975    2.744964
 H   34.595730   99.498203    4.082381
 H   36.041915  101.333660    5.232084
