55 
4zj8_ligand_xtb.xyz
 C    2.451619    0.400285    0.005932
 N    1.137783    0.642200    0.115349
 O    3.008136    0.371808   -1.241736
Cl    8.416039   -0.470293    0.655775
 N    3.282623    0.238988    0.994359
 O   -2.566075    0.052340    2.366296
 C    4.510615    0.096150    0.397103
 N   -1.398543   -0.924339    0.699665
 C    5.771020   -0.104933    0.938150
 N   -3.700280    1.858308   -0.128046
 C    6.818303   -0.217070    0.040978
 N   -2.405173    1.969794    0.068601
 C    6.647793   -0.136242   -1.338145
 N   -4.330706    3.000096   -0.282520
 C    5.389431    0.065996   -1.884226
 C    4.340893    0.178930   -1.000593
 C    0.510423    0.471136    1.405590
 C   -0.205075   -0.880953    1.520389
 C   -1.316092   -1.409358   -0.665695
 C   -0.071246   -0.887560   -1.403406
 C    0.292137    0.562127   -1.055143
 C   -2.524777   -0.401481    1.238386
 C   -3.787624   -0.495920    0.426770
 C   -4.365073    0.633217   -0.153503
 C   -5.614839    0.556036   -0.757338
 C   -6.293136   -0.645156   -0.779498
 C   -5.746312   -1.783311   -0.194427
 C   -4.500182   -1.687342    0.410792
 C   -2.173709    3.272747    0.053796
 C   -3.391903    3.922240   -0.166850
 C   -6.501652   -3.075449   -0.185940
 C   -1.340372   -2.940145   -0.708007
 H    5.920326   -0.168836    2.002330
 H    7.505531   -0.232346   -1.983861
 H    5.242245    0.131491   -2.949855
 H   -0.228342    1.263894    1.544685
 H    1.290795    0.548034    2.161859
 H    0.466745   -1.691607    1.237319
 H   -0.518058   -1.014880    2.558893
 H   -2.204689   -1.030635   -1.182936
 H   -0.264467   -0.964257   -2.474130
 H    0.789228   -1.523439   -1.184129
 H    0.829840    1.018133   -1.888489
 H   -0.613564    1.136160   -0.847210
 H   -6.037133    1.448040   -1.191743
 H   -7.263786   -0.701090   -1.249094
 H   -4.081317   -2.551853    0.904887
 H   -1.190168    3.672445    0.188971
 H   -3.614014    4.965612   -0.243704
 H   -5.825330   -3.923368   -0.112033
 H   -7.103667   -3.177873   -1.085652
 H   -7.173432   -3.104176    0.672186
 H   -1.274819   -3.282407   -1.737404
 H   -0.501729   -3.353462   -0.152761
 H   -2.260718   -3.320761   -0.275322
