49 
4zji_ligand_dft.xyz
 C   -1.061806    0.809334    2.811679
 C   -1.884851    0.795680    0.471702
 C   -2.991898    1.601808    0.738270
 C    2.668444    2.447855   -0.232733
 C    2.096292    2.999942    0.910357
 C    0.953108    2.429244    1.455311
 C    0.380675    1.292395    0.880401
 C    2.367680   -1.848113   -0.165444
 C    1.724326   -2.750896    0.886956
 C    0.513463   -4.895410    1.225990
 C    0.228205   -3.642383   -0.900720
 C    0.902050   -2.671555   -1.868403
Cl    4.089899    3.171962   -0.928242
 C    2.121135    1.314626   -0.815858
 N   -0.785314    0.662202    1.383778
 C   -2.007092   -0.275214    3.312126
 C    0.985892    0.727977   -0.252859
 C    0.434110   -0.525121   -0.822584
 N    1.401654   -1.486754   -1.192250
 N    1.164162   -3.990791    0.234337
 N   -0.793523   -0.803805   -1.044626
 C   -1.831822    0.088773   -0.742557
 C   -2.885407    0.185999   -1.652174
 C   -3.965222    0.997416   -1.355700
 F   -4.967215    1.087165   -2.235659
 C   -4.041911    1.704793   -0.165239
 H   -1.459673    1.803360    3.068879
 H   -0.099651    0.720236    3.326112
 H   -3.044582    2.160405    1.666546
 H    2.534631    3.883201    1.361883
 H    0.501419    2.883369    2.330263
 H    3.222229   -2.348381   -0.637559
 H    2.750719   -0.956950    0.333042
 H    0.881474   -2.241688    1.365308
 H    2.436505   -3.076195    1.649254
 H    1.237230   -5.159798    1.998111
 H   -0.331877   -4.366978    1.668510
 H    0.164378   -5.792472    0.713137
 H   -0.053959   -4.580168   -1.384919
 H   -0.650561   -3.170384   -0.456853
 H    0.163929   -2.378659   -2.615027
 H    1.742527   -3.154067   -2.382671
 H    2.575915    0.877404   -1.698563
 H   -2.988179   -0.210598    2.833989
 H   -1.592204   -1.266909    3.102641
 H   -2.149648   -0.178868    4.392105
 H    1.957746   -4.496268   -0.172700
 H   -2.856323   -0.371282   -2.581181
 H   -4.906459    2.324975    0.040939
