49 
4zji_ligand_xtb.xyz
 C   -1.319467    1.219852    2.694658
 C   -2.045808    0.682707    0.401410
 C   -3.278649    1.307793    0.542960
 C    2.393058    2.714933   -0.383310
 C    1.688586    3.374208    0.614351
 C    0.566760    2.787003    1.166437
 C    0.134864    1.527412    0.752626
 C    2.593641   -1.536386   -0.039950
 C    2.170559   -2.563745    1.022683
 C    1.459982   -4.886964    1.355814
 C    0.732530   -3.637259   -0.625204
 C    1.182488   -2.590850   -1.647327
Cl    3.786602    3.447971   -1.092675
 C    1.990303    1.460454   -0.805025
 N   -0.980341    0.885977    1.319768
 C   -2.114965    0.085495    3.330694
 C    0.876457    0.853906   -0.230826
 C    0.482245   -0.493890   -0.667891
 N    1.536376   -1.350311   -1.001129
 N    1.814466   -3.850764    0.372364
 N   -0.696563   -0.935809   -0.863279
 C   -1.855704   -0.207477   -0.670323
 C   -2.902823   -0.468499   -1.549533
 C   -4.111788    0.172992   -1.376965
 F   -5.113392   -0.085706   -2.235407
 C   -4.316821    1.061141   -0.337616
 H   -1.878769    2.159407    2.787210
 H   -0.373515    1.339632    3.229804
 H   -3.442906    2.005757    1.347654
 H    2.009610    4.347944    0.947616
 H    0.017126    3.321988    1.923655
 H    3.494675   -1.878942   -0.560166
 H    2.820042   -0.588255    0.448991
 H    1.288332   -2.196420    1.552082
 H    2.976021   -2.731380    1.739419
 H    2.280795   -5.045179    2.053288
 H    0.578340   -4.575844    1.913491
 H    1.241015   -5.826286    0.851240
 H    0.498980   -4.584087   -1.112704
 H   -0.155814   -3.262468   -0.112882
 H    0.360018   -2.393613   -2.334631
 H    2.049150   -2.947918   -2.212981
 H    2.531503    0.952801   -1.587698
 H   -3.068216   -0.052380    2.828045
 H   -1.557606   -0.846690    3.272117
 H   -2.303321    0.313042    4.375908
 H    2.643657   -4.166246   -0.146903
 H   -2.759494   -1.157036   -2.366098
 H   -5.271586    1.547412   -0.222384
