61 
4zjj_ligand_dft.xyz
 C    0.746315   -1.276128   -2.501999
 C    2.190839   -1.656777   -0.528844
 C    3.034272   -2.565403   -1.165368
 C   -2.844682    1.685860    2.478089
 C   -1.787226   -0.464571    2.066843
 C   -3.641204    0.395043    0.570635
 C   -4.469296   -1.129146   -1.240321
 C   -4.423243   -0.098787   -2.374076
 C   -4.003154   -2.489088   -1.771501
 C   -5.893264   -1.246526   -0.677369
 C    1.622426    1.183718    0.095035
 C    2.017237    2.510130    0.261164
 C    2.465946    3.234481   -0.834726
 C    2.516066    2.654360   -2.096576
 C    2.143559    1.325123   -2.255066
 C    1.702924    0.571254   -1.165116
Cl    2.954700    4.898859   -0.625611
 N    1.327078   -0.787243   -1.259256
 C   -0.563628   -0.562526   -2.817217
 C    1.016975    0.424835    1.225249
 N    1.279806   -0.781764    1.582336
 C    2.172433   -1.586848    0.879092
 C    3.001551   -2.441859    1.610479
 C    3.826061   -3.331311    0.946363
 F    4.615030   -4.145567    1.667998
 C    3.854124   -3.420134   -0.436241
 N    0.091405    1.137758    1.947383
 C   -0.811105    0.433511    2.846841
 N   -2.855510    0.453849    1.694419
 C   -1.755446    1.427848    3.527992
 O   -4.374505    1.330432    0.266715
 N   -3.514499   -0.762390   -0.176024
 H    0.553204   -2.341687   -2.348481
 H    1.439318   -1.205027   -3.357738
 H    3.054022   -2.607908   -2.250035
 H   -3.824452    1.879811    2.922987
 H   -2.614625    2.544979    1.834046
 H   -1.297883   -0.901019    1.192112
 H   -2.154570   -1.280892    2.705823
 H   -5.090429   -0.414647   -3.183741
 H   -4.738438    0.880958   -2.013890
 H   -3.408623   -0.015092   -2.776117
 H   -4.666449   -2.824829   -2.574346
 H   -2.984971   -2.424482   -2.170165
 H   -4.022268   -3.254110   -0.984702
 H   -6.216672   -0.287127   -0.266734
 H   -5.931547   -2.001085    0.117103
 H   -6.594256   -1.545736   -1.464331
 H    1.964841    2.974914    1.240215
 H    2.857452    3.233593   -2.947531
 H    2.201051    0.872648   -3.239187
 H   -1.032523   -1.006281   -3.701527
 H   -0.409347    0.502098   -3.018285
 H   -1.252664   -0.648301   -1.970455
 H    2.979054   -2.413407    2.693606
 H    4.507860   -4.134874   -0.922687
 H   -0.307125    1.928587    1.459439
 H   -0.205934   -0.143766    3.545814
 H   -2.187920    0.955199    4.415131
 H   -1.243964    2.339868    3.845715
 H   -3.150110   -1.560171    0.325484
