50 
4zjr_ligand_dft.xyz
 O    6.089008    1.579649   -2.237269
 C    6.596374    1.020505   -1.280493
 N    7.878446    1.285853   -0.878240
 C    5.856523   -0.017879   -0.486303
 C    6.485227   -0.963282    0.324236
 C    5.726892   -1.886463    1.030530
 C    4.339040   -1.872465    0.925405
Cl    3.445447   -3.019037    1.892570
 C    4.469281   -0.037103   -0.598294
 C    3.678622   -0.954139    0.097312
 C    2.201345   -0.901092   -0.071697
 C    1.539358    0.306395    0.177392
 C    0.165882    0.400037   -0.016467
 O   -0.571350    1.516628    0.221467
 C    0.094706    2.707604    0.526906
 C   -0.955552    3.801938    0.557104
 F   -0.353283    4.980079    0.789228
 F   -1.603058    3.891337   -0.612578
 F   -1.860559    3.601394    1.516212
 C   -0.555793   -0.706336   -0.483591
 C    0.106757   -1.899492   -0.724612
 C    1.478427   -2.004409   -0.520530
 N   -1.954940   -0.578305   -0.719011
 C   -2.372425    0.264799   -1.834765
 C   -2.804386   -1.021650    0.258899
 O   -2.437584   -1.622290    1.248825
 C   -4.271474   -0.724681    0.046105
 C   -5.175415   -1.666428   -0.440620
Cl   -4.584973   -3.214921   -0.989425
 C   -6.537161   -1.394637   -0.526590
 C   -7.008574   -0.153647   -0.111702
 C   -6.134500    0.813251    0.374140
 C   -4.786773    0.505193    0.441104
 F   -3.925850    1.429686    0.887515
 H    8.326390    2.062842   -1.342091
 H    8.168898    1.097705    0.068239
 H    7.568051   -1.011537    0.390208
 H    6.205385   -2.621422    1.668110
 H    3.998378    0.678535   -1.264921
 H    2.110441    1.152349    0.544639
 H    0.838731    2.967085   -0.236353
 H    0.581799    2.667466    1.508724
 H   -0.469851   -2.748139   -1.077054
 H    1.986577   -2.940463   -0.724358
 H   -2.349782    1.325551   -1.566379
 H   -1.691794    0.090854   -2.671217
 H   -3.379182   -0.010724   -2.152181
 H   -7.213648   -2.148468   -0.912210
 H   -8.070000    0.063208   -0.172305
 H   -6.477118    1.789129    0.698042
