52 
4zjw_ligand_xtb.xyz
 C   -3.064895    0.244352   -0.050355
 C   -4.606513    0.127287   -0.194337
 C   -5.210490    0.097020    1.175120
 C   -5.083445    1.362179   -0.903236
 C   -0.814345   -2.903835    1.316370
 C   -0.923145   -0.827934   -0.146081
 C   -0.174082   -1.776817    0.552048
 C    1.210622   -1.696932    0.516263
 C   -0.271786    0.161670   -0.877266
 C    1.104677    0.230850   -0.893287
 C    1.866141   -0.702266   -0.195081
 C    5.532441   -1.585618   -0.523801
 C    6.119791   -0.393037   -0.151179
 C    5.333075    0.710078    0.167826
 C    6.029644    1.973065    0.563040
 C    3.950364    0.584927    0.146508
 C   -5.659292    1.152723    1.828440
 C   -5.649948    2.510998    1.206815
 C   -5.524644    2.443415   -0.283524
 O    7.110081    1.969686    1.119446
 N    5.372103    3.110701    0.238707
 C    5.900229    4.418763    0.535050
 C    4.150714   -1.691058   -0.553782
Cl    3.447034   -3.181879   -1.078022
 C    3.336350   -0.614455   -0.202265
 C   -2.328491   -2.754191    1.394836
 C   -2.844186   -2.244117    0.050885
 N   -2.339049   -0.898927   -0.151961
 O   -2.570627    1.336090    0.130476
 F   -5.247662   -1.136473    1.742186
Cl   -4.948532    1.290537   -2.625936
 H   -4.883659   -0.759102   -0.768690
 H   -0.564583   -3.841522    0.809012
 H   -0.383130   -2.956731    2.318205
 H    1.785445   -2.420432    1.075503
 H   -0.851286    0.880756   -1.432169
 H    1.596390    0.997388   -1.473553
 H    6.138265   -2.436736   -0.792406
 H    7.193247   -0.295535   -0.105666
 H    3.314918    1.406409    0.445501
 H   -6.057916    1.050108    2.825563
 H   -6.565398    3.044872    1.474725
 H   -4.811355    3.091418    1.608579
 H   -5.817139    3.320425   -0.839550
 H    4.508221    3.059683   -0.275349
 H    5.209229    4.978647    1.168259
 H    6.082473    4.982428   -0.382224
 H    6.841333    4.275966    1.063807
 H   -2.797930   -3.706902    1.639827
 H   -2.602073   -2.034060    2.168043
 H   -3.929611   -2.267760    0.039541
 H   -2.470756   -2.879267   -0.759974
