48 
4zk5_ligand_dft.xyz
 C    5.847324   -0.272317   -0.117487
 C    7.098454   -0.846446   -0.250810
 C    7.291181   -2.220301   -0.231581
 C    0.895983    0.725955    0.430248
 C    3.387177   -0.482495    0.191983
 C    2.350513   -1.130056    0.910140
 C    1.120588   -0.538235    1.030725
 C   -0.334931    1.461675    0.448085
 C   -0.339635    2.696424   -0.163726
 C    4.732480   -1.098306    0.048047
 C    6.176745   -3.037250   -0.075474
 C    4.907005   -2.485752    0.064803
 F    8.164413   -0.044737   -0.400241
 N    0.695532    3.266796   -0.812738
 C    1.828271    2.587568   -0.868963
 C    1.993943    1.290842   -0.245140
 N    3.202912    0.702975   -0.359695
 N    2.877778    3.116062   -1.523484
 C   -1.546964    0.937556    1.134218
 O   -1.511166    0.177632    2.096551
 N   -2.748318    1.366573    0.633429
 C   -3.969327    0.884044    1.221742
 C   -5.264676    1.320358    0.498833
 N   -5.652230   -0.081964    0.429365
 C   -4.375274   -0.589064    0.942905
 C   -6.561357   -0.601115   -0.443405
 O   -7.313655    0.121192   -1.080880
 C   -6.582605   -2.103225   -0.535028
 C   -7.857605   -2.765445   -0.991848
 C   -6.912203   -2.738590   -1.863499
 H    5.737149    0.805430   -0.133994
 H    8.290708   -2.626374   -0.339378
 H    2.540958   -2.082072    1.393525
 H    0.324736   -1.002508    1.599318
 H   -1.233844    3.315311   -0.120971
 H    6.299912   -4.115648   -0.069375
 H    4.049024   -3.143606    0.158985
 H    2.776700    4.009231   -1.975871
 H    3.732034    2.585615   -1.587439
 H   -2.782465    1.727973   -0.307860
 H   -3.963479    1.108413    2.289049
 H   -5.111940    1.767401   -0.493057
 H   -5.950655    1.955134    1.065750
 H   -4.455910   -1.233938    1.822018
 H   -3.750521   -1.075739    0.184447
 H   -5.924351   -2.626177    0.163924
 H   -8.867269   -2.995236   -0.695715
 H   -6.532173   -2.929211   -2.853301
