43 
4zlo_ligand_xtb.xyz
 C   -3.077746   -2.482211    0.464997
 C   -1.714975   -2.177975   -0.147247
 C   -2.528032   -0.106525   -1.007188
 C    2.698416    0.156251   -0.661990
 C    0.979930    1.877646   -0.608734
 C    1.003990    3.273358   -0.566584
 C    0.042163    3.990698    0.116553
 C   -0.944734    3.295807    0.793080
 C   -1.022444    1.918489    0.738739
 C   -0.082735    1.197751    0.007038
 F   -1.877875    3.964892    1.498008
 C   -0.222872   -0.265408   -0.120856
 N   -1.534010   -0.744565   -0.177731
 C   -3.911375   -0.377176   -0.415927
 N   -4.148346   -1.841554   -0.344079
 C   -5.493075   -2.162234    0.159978
 N    1.973140    1.188471   -1.297419
 C    2.051119   -0.923631   -0.037806
 N    0.690346   -1.147842   -0.089446
 C    4.085875    0.190828   -0.693560
 C    4.847430   -0.801301   -0.100713
 C    4.194322   -1.839781    0.535580
 F    4.911751   -2.810352    1.128912
 C    2.816583   -1.921191    0.560330
 H   -3.129697   -2.077231    1.477168
 H   -3.249040   -3.558836    0.501209
 H   -1.636794   -2.620358   -1.151863
 H   -0.915557   -2.602262    0.461089
 H   -2.488521   -0.493908   -2.039669
 H   -2.351512    0.968487   -1.045596
 H    1.795853    3.800516   -1.077319
 H    0.064014    5.067618    0.149438
 H   -1.800163    1.409415    1.286006
 H   -4.686100    0.085520   -1.029086
 H   -3.970854    0.025431    0.596936
 H   -4.060403   -2.208817   -1.300109
 H   -5.605409   -1.782379    1.173959
 H   -6.253706   -1.706466   -0.471345
 H   -5.645425   -3.239897    0.171143
 H    2.595217    1.815008   -1.796875
 H    4.582614    1.009807   -1.193464
 H    5.924011   -0.771603   -0.127633
 H    2.327658   -2.752842    1.040319
