43 
4zlo_ligand_dft.xyz
 C   -3.298983   -2.320933    0.576247
 C   -1.873736   -2.100512    0.099161
 C   -2.503442   -0.054539   -0.986627
 C    2.627072   -0.014183   -0.799427
 C    1.011856    1.753545   -0.729456
 C    1.168525    3.142047   -0.692360
 C    0.339584    3.934560    0.089145
 C   -0.636076    3.323535    0.865067
 C   -0.821622    1.954533    0.843094
 C   -0.010013    1.160632    0.025399
 F   -1.425128    4.074042    1.643664
 C   -0.251316   -0.301767   -0.063682
 N   -1.618828   -0.677472   -0.015090
 C   -3.948135   -0.209660   -0.544223
 N   -4.279305   -1.669077   -0.367621
 C   -5.695389   -1.882465    0.049650
 N    1.839498    0.930157   -1.520588
 C    1.990394   -1.043279   -0.086825
 N    0.602324   -1.246359   -0.102118
 C    4.018671    0.048703   -0.816174
 C    4.790137   -0.890641   -0.142894
 C    4.142414   -1.891332    0.564797
 F    4.866899   -2.801212    1.226253
 C    2.762716   -1.987267    0.591750
 H   -3.463681   -1.863228    1.554728
 H   -3.549380   -3.383212    0.622190
 H   -1.691284   -2.632863   -0.849737
 H   -1.187125   -2.532034    0.828117
 H   -2.369065   -0.490576   -1.993064
 H   -2.287040    1.011825   -1.065918
 H    1.956044    3.606892   -1.278380
 H    0.456207    5.012019    0.121037
 H   -1.592862    1.505533    1.459573
 H   -4.644211    0.198595   -1.280400
 H   -4.116471    0.266987    0.424648
 H   -4.151246   -2.115609   -1.282030
 H   -5.843070   -1.413094    1.023100
 H   -6.357300   -1.428178   -0.688651
 H   -5.888085   -2.953717    0.118869
 H    2.406996    1.469610   -2.162981
 H    4.510108    0.847542   -1.365047
 H    5.872996   -0.850273   -0.158093
 H    2.280767   -2.798294    1.124866
