34 
4zlz_ligand_dft.xyz
 C    4.717531   -1.321909   -0.533306
 C    3.276633    0.277954   -1.237349
 C    2.437769    0.113416   -0.132910
 C    1.249333    0.999428   -0.009140
 C    0.321099    3.238048    0.199603
 C   -2.487954    0.764675    0.003008
 C   -2.515598   -0.632290   -0.141810
 C    1.966714   -1.078462    2.068350
 C    2.792426   -0.838922    0.835482
 C    3.961641   -1.561597    0.608057
 N    4.395093   -0.413211   -1.454017
 C    1.421711    2.361226    0.104112
 C   -0.958550    2.747628    0.177778
 C   -1.182650    1.356431    0.050934
 N   -3.615500    1.487523    0.091444
 N   -1.397473   -1.382462   -0.231430
 N   -0.211479   -0.878904   -0.190879
 C   -0.079788    0.477800   -0.046120
 C   -3.801204   -1.389301   -0.214920
 N   -3.667153   -2.723470   -0.354628
 O   -4.901302   -0.833400   -0.150601
 H    5.632247   -1.883276   -0.712894
 H    3.015035    1.014004   -1.996246
 H    0.493862    4.305354    0.294089
 H    1.589270   -0.139042    2.484941
 H    1.098914   -1.696347    1.816509
 H    2.550354   -1.590160    2.838630
 H    4.288770   -2.308363    1.325985
 H    2.430013    2.763951    0.129824
 H   -1.790824    3.440198    0.256507
 H   -4.492635    0.974604    0.034523
 H   -3.602744    2.488809    0.171487
 H   -4.497254   -3.288054   -0.430412
 H   -2.743676   -3.125561   -0.422182
