61 
4zo5_ligand_dft.xyz
 C    4.786944   -3.584272   -0.175867
 C    4.221365   -2.310144   -0.002214
 C    6.450061   -1.335586   -0.130052
 C    2.444765    1.422288    0.497067
 C    0.837584   -0.929730    0.395987
 C    0.211474   -1.021870   -1.007362
 C    1.852893    2.061866   -0.579264
 C    1.166012    3.259613   -0.399161
 C    1.721163    3.193430    1.954441
 C   -0.219424    5.644693    0.111905
 N   -1.170115   -0.591566   -1.017708
 C   -1.608807    0.602178   -1.580567
 C   -3.078454    0.655229   -1.317389
 C   -3.437688   -0.492767   -0.620685
 C    6.993005   -2.594093   -0.301261
 N    2.847726   -2.205562    0.144949
 O    5.118954    1.182489    0.246201
 C    6.154003   -3.719435   -0.323630
 C    5.064769   -1.189340    0.019122
 C    2.337791   -1.030766    0.297769
 N    3.081165    0.143901    0.319174
 C    4.487369    0.144196    0.199316
 C    1.095793    3.826933    0.872678
 C    2.389243    1.997317    1.766661
 O    0.444058    4.978938    1.163911
 C   -2.212450   -1.314806   -0.412311
 C   -3.987022    1.632985   -1.668995
 C   -5.311539    1.416970   -1.284364
 C   -5.697571    0.276083   -0.584424
 C   -4.760953   -0.715638   -0.236342
 O   -2.064287   -2.375400    0.145833
 O   -0.921278    1.410152   -2.165564
 O   -5.031071   -1.854809    0.413954
 C   -6.348367   -2.127935    0.910052
 C   -6.388289   -3.629357    1.139155
 C   -6.608851   -1.334932    2.185102
 H    4.123047   -4.442225   -0.189145
 H    7.068180   -0.444124   -0.107189
 H    0.481041   -1.768233    0.996735
 H    0.526005    0.000671    0.872415
 H    0.273529   -2.051951   -1.366488
 H    0.733778   -0.376084   -1.716119
 H    1.901877    1.622187   -1.569223
 H    0.681823    3.714605   -1.253846
 H    1.661488    3.656559    2.933367
 H    0.482478    5.959210   -0.670744
 H   -0.998650    5.013436   -0.334241
 H   -0.679761    6.526837    0.558208
 H    8.065370   -2.714699   -0.418031
 H    6.584466   -4.707587   -0.457984
 H    2.867943    1.497075    2.602357
 H   -3.679312    2.518016   -2.214158
 H   -6.070352    2.153316   -1.531508
 H   -6.739688    0.165122   -0.309695
 H   -7.081335   -1.865129    0.135938
 H   -6.188095   -4.164787    0.207595
 H   -5.630068   -3.918209    1.873096
 H   -7.372567   -3.927089    1.513356
 H   -5.880946   -1.618716    2.951422
 H   -6.527834   -0.256612    2.019444
 H   -7.613783   -1.548606    2.562659
