74 
4zpe_ligand_xtb.xyz
 C    1.551119   -0.136980    0.146569
 C    1.877562    2.172264    0.442815
 C    3.015699    0.354774    0.062031
 C    1.383433   -1.216329    1.229376
 N    0.931716    1.123137    0.460214
 N    3.127449    1.622731    0.229761
 C   -0.008082   -1.837992    1.222587
 N   -0.355629   -2.379729   -0.113132
 C   -0.297414   -1.306453   -1.132417
 C    1.102826   -0.713107   -1.210019
 O    1.596023    3.322148    0.597581
 N    4.028985   -0.464059   -0.179438
 C   -0.446639    1.432707    0.522929
 C    5.406629   -0.002615   -0.278887
 C    6.263406   -0.643634    0.811788
 C    7.700043   -0.138439    0.704007
 C    8.274833   -0.446035   -0.675052
 C    7.408741    0.176928   -1.765056
 C    5.971703   -0.327594   -1.661040
 C   -1.073674    2.023352   -0.570683
 C   -2.403411    2.400516   -0.492850
 C   -3.130196    2.185437    0.664848
 C   -2.488325    1.609339    1.746481
 C   -1.157156    1.237077    1.703080
 F   -3.169831    1.399912    2.885322
 C   -1.684762   -3.082412   -0.101992
 C   -2.807096   -2.210459    0.396094
 C   -3.164117   -2.248652    1.736300
 C   -4.216542   -1.466748    2.190456
 C   -4.902254   -0.652713    1.320282
 C   -4.555914   -0.599557   -0.037087
 C   -3.501063   -1.390106   -0.490442
 O   -5.283957    0.245170   -0.780989
 C   -5.100088    0.362246   -2.191300
 C   -5.731337   -0.819826   -2.924448
 C   -5.768126    1.672855   -2.590611
 H    1.561641   -0.771005    2.208755
 H    2.137546   -1.994363    1.081159
 H   -0.764071   -1.093426    1.478870
 H   -0.053932   -2.650393    1.950770
 H    0.355796   -3.076125   -0.362460
 H   -1.020719   -0.537477   -0.852195
 H   -0.578326   -1.727088   -2.100668
 H    1.815932   -1.475334   -1.536758
 H    1.108441    0.081915   -1.956505
 H    3.879519   -1.454422   -0.293706
 H    5.366852    1.079277   -0.134790
 H    6.250595   -1.731165    0.694985
 H    5.852277   -0.398422    1.792491
 H    8.310874   -0.607191    1.476437
 H    7.714069    0.939450    0.872174
 H    8.321868   -1.528001   -0.818949
 H    9.290752   -0.057269   -0.745552
 H    7.811306   -0.068130   -2.748655
 H    7.415413    1.262805   -1.659879
 H    5.353369    0.139686   -2.429759
 H    5.954680   -1.410349   -1.816545
 H   -0.503164    2.220326   -1.465298
 H   -2.871190    2.879096   -1.338742
 H   -4.164339    2.476272    0.746828
 H   -0.677564    0.861281    2.593670
 H   -1.587069   -3.957120    0.544648
 H   -1.885086   -3.421419   -1.120783
 H   -2.646124   -2.900983    2.422475
 H   -4.498177   -1.497323    3.230232
 H   -5.722957   -0.042254    1.658771
 H   -3.232570   -1.396186   -1.535337
 H   -4.023008    0.421744   -2.412570
 H   -5.311253   -1.766374   -2.591483
 H   -6.800600   -0.837215   -2.731428
 H   -5.570233   -0.718975   -3.993827
 H   -6.826030    1.632061   -2.348212
 H   -5.324479    2.504190   -2.050062
 H   -5.654512    1.840533   -3.657137
