77 
4zpf_ligand_xtb.xyz
 C    2.439883    0.080723    0.198361
 N    3.604933    0.437746   -0.583917
 C    3.309575    1.549010   -1.375812
 N    2.078118    2.090395   -0.927038
 C    1.640764    1.374382    0.019576
 C    1.660310   -1.042688   -0.537445
 C    0.323218   -1.389986    0.123274
 N    0.290424   -0.933074    1.530655
 C    1.591130   -1.228839    2.181044
 C    2.687858   -0.293977    1.663582
 O    3.961163    1.999545   -2.263893
 N    0.524132    1.648326    0.811777
 C    4.855777   -0.213799   -0.577108
 C   -0.405828    2.639971    0.210543
 C   -1.207824    3.342572    1.298286
 C   -2.176653    4.339080    0.664137
 C   -3.106430    3.633535   -0.317541
 C   -2.296565    2.920986   -1.395842
 C   -1.332411    1.918699   -0.765376
 C    6.005631    0.499270   -0.912218
 C    7.242808   -0.118360   -0.900004
 C    7.376705   -1.448680   -0.538850
 C    6.230300   -2.138042   -0.200943
 C    4.976257   -1.552355   -0.215667
 F    6.298236   -3.430352    0.166788
 C   -0.857345   -1.509337    2.277394
 C   -2.187950   -0.978197    1.808296
 C   -2.715567    0.160002    2.407928
 C   -3.945190    0.648616    2.006948
 C   -4.666808    0.017067    1.008113
 C   -4.152972   -1.127686    0.412389
 C   -2.912948   -1.620391    0.814251
 O   -4.807538   -1.878220   -0.540603
 C   -5.872940   -1.295856   -1.294137
 C   -6.414495   -2.455122   -2.142243
 C   -5.403324   -0.161882   -2.198766
 N   -6.703647   -3.616464   -1.255668
 H    2.298219   -1.923611   -0.582523
 H    1.493547   -0.724918   -1.567825
 H   -0.505206   -0.910960   -0.401033
 H    0.172177   -2.471903    0.100124
 H    0.190919    0.140258    1.430535
 H    1.491319   -1.112609    3.261026
 H    1.838573   -2.273390    1.978234
 H    3.656649   -0.785963    1.759274
 H    2.738548    0.613728    2.267777
 H    0.836385    2.007666    1.714322
 H    0.184451    3.377122   -0.343959
 H   -1.772198    2.604284    1.872705
 H   -0.535598    3.871474    1.977548
 H   -1.610224    5.107502    0.137119
 H   -2.757906    4.829983    1.444872
 H   -3.772294    4.362451   -0.778565
 H   -3.721392    2.906465    0.220456
 H   -1.725841    3.655186   -1.964689
 H   -2.960396    2.405470   -2.092312
 H   -1.901253    1.151322   -0.228992
 H   -0.736493    1.439956   -1.544745
 H    5.931357    1.534438   -1.197204
 H    8.117412    0.450942   -1.169817
 H    8.333492   -1.942785   -0.519862
 H    4.140039   -2.178867    0.045927
 H   -0.819679   -2.597387    2.179845
 H   -0.732733   -1.255609    3.332244
 H   -2.179529    0.648258    3.207056
 H   -4.357779    1.524396    2.482156
 H   -5.625664    0.420051    0.726624
 H   -2.544163   -2.521405    0.349053
 H   -6.659424   -0.941105   -0.613249
 H   -5.649632   -2.753769   -2.861360
 H   -7.311854   -2.151069   -2.679598
 H   -4.619359   -0.512472   -2.864983
 H   -6.232994    0.207129   -2.793446
 H   -5.010472    0.663111   -1.611485
 H   -6.832889   -4.485546   -1.787937
 H   -5.885499   -3.702641   -0.627420
 H   -7.543268   -3.453414   -0.684692
