77 
4zpf_ligand_dft.xyz
 C    2.440762    0.196591    0.225403
 N    3.622844    0.596288   -0.515216
 C    3.342697    1.771794   -1.229337
 N    2.087849    2.303237   -0.761896
 C    1.649478    1.495113    0.110989
 C    1.663109   -0.898115   -0.566889
 C    0.344679   -1.344224    0.076912
 N    0.314246   -1.034938    1.545539
 C    1.663934   -1.281724    2.159857
 C    2.676571   -0.230244    1.690706
 O    4.018380    2.296801   -2.067199
 N    0.483043    1.692047    0.891540
 C    4.851160   -0.118854   -0.587819
 C   -0.513521    2.625380    0.300309
 C   -1.434943    3.156890    1.394875
 C   -2.514784    4.069597    0.801726
 C   -3.299092    3.367719   -0.311853
 C   -2.358975    2.829831   -1.393722
 C   -1.307603    1.898505   -0.785134
 C    6.023522    0.540561   -0.973031
 C    7.225027   -0.157261   -1.020154
 C    7.306453   -1.502598   -0.676064
 C    6.138459   -2.129275   -0.285540
 C    4.917291   -1.471879   -0.237110
 F    6.157033   -3.420844    0.063540
 C   -0.803271   -1.741429    2.263001
 C   -2.158821   -1.216691    1.857087
 C   -2.719361   -0.158709    2.574832
 C   -3.953832    0.357870    2.202402
 C   -4.646482   -0.171878    1.118544
 C   -4.091578   -1.235662    0.410882
 C   -2.853193   -1.759896    0.775659
 O   -4.720567   -1.858367   -0.646988
 C   -5.680677   -1.132895   -1.417743
 C   -6.223948   -2.178071   -2.386230
 C   -5.074193    0.042538   -2.167487
 N   -6.652604   -3.390307   -1.599124
 H    2.317129   -1.760412   -0.695070
 H    1.461342   -0.516025   -1.570647
 H   -0.514442   -0.834550   -0.359785
 H    0.204925   -2.423076   -0.030511
 H    0.138272    0.004237    1.557342
 H    1.552207   -1.257444    3.245142
 H    1.959265   -2.295235    1.872192
 H    3.678265   -0.650885    1.803692
 H    2.643191    0.645230    2.346742
 H    0.779762    2.063744    1.796547
 H    0.021954    3.465215   -0.158103
 H   -1.907932    2.306914    1.904521
 H   -0.852971    3.709163    2.143952
 H   -2.040456    4.971381    0.395101
 H   -3.190456    4.403610    1.595194
 H   -4.027177    4.059069   -0.747786
 H   -3.867956    2.531331    0.123082
 H   -1.855946    3.667449   -1.892664
 H   -2.919957    2.301570   -2.173017
 H   -1.810195    1.029827   -0.328556
 H   -0.627311    1.530269   -1.562887
 H    5.998138    1.584163   -1.250570
 H    8.122685    0.368508   -1.327507
 H    8.240051   -2.051646   -0.705101
 H    4.061883   -2.056829    0.072847
 H   -0.687878   -2.810311    2.063212
 H   -0.641805   -1.577241    3.330637
 H   -2.199681    0.257457    3.433271
 H   -4.388985    1.180121    2.760296
 H   -5.608340    0.251360    0.852111
 H   -2.451039   -2.595512    0.210370
 H   -6.499314   -0.793288   -0.767679
 H   -5.444958   -2.512172   -3.074157
 H   -7.082285   -1.811153   -2.950155
 H   -4.250776   -0.293206   -2.804642
 H   -5.828720    0.532472   -2.789817
 H   -4.688604    0.785678   -1.465619
 H   -6.820733   -4.206968   -2.195282
 H   -5.899531   -3.607090   -0.930520
 H   -7.508276   -3.217774   -1.060885
