67 
4zpg_ligand_dft.xyz
 C   -1.119368   -0.980114   -0.993825
 C    0.087702   -1.873495   -0.661471
 C   -0.527986   -1.475885    1.698701
 C   -1.113225   -0.092320    1.419902
 C   -1.252090    0.263534   -0.097585
 C   -0.217250    1.348804   -0.388891
 C   -2.125251    2.390386   -0.503841
 C   -3.770498    0.508116   -0.408722
 C   -4.767085    1.169210   -1.136155
 C   -6.049199    0.635667   -1.194978
 C   -6.376292   -0.558588   -0.560016
 C   -5.374834   -1.196980    0.146654
 C   -4.087392   -0.689745    0.242825
 C    2.073784    2.199589   -0.290563
 C    3.453271    1.751126   -0.766016
 C    4.461908    2.899635   -0.672922
 N    0.624926   -1.661311    0.729665
 N   -0.702665    2.521376   -0.505667
 N   -2.453314    1.031224   -0.361300
 O   -2.892724    3.303739   -0.632025
 F   -5.634387   -2.351597    0.774884
 N    1.140139    1.048038   -0.346851
 C    4.525286    3.466522    0.747998
 C    3.138978    3.897670    1.234105
 C    2.131265    2.748095    1.135090
 C    1.620050   -2.737053    1.100008
 C    2.788050   -2.752175    0.153876
 C    3.793888   -1.794097    0.299574
 C    4.866351   -1.761870   -0.584860
 C    4.945982   -2.698020   -1.613036
 C    3.955928   -3.667430   -1.752671
 C    2.878201   -3.694078   -0.872708
 C   -0.119547   -1.612180    3.157964
 H   -2.036698   -1.565427   -0.908315
 H   -1.056535   -0.665450   -2.039223
 H    0.925189   -1.722469   -1.343385
 H   -0.188551   -2.928785   -0.725064
 H   -1.243174   -2.265555    1.441329
 H   -0.482073    0.656653    1.912357
 H   -2.089966   -0.024143    1.900702
 H   -4.545127    2.101808   -1.634567
 H   -6.810455    1.164332   -1.758989
 H   -7.370293   -0.987019   -0.608066
 H   -3.379805   -1.253569    0.836251
 H    1.699121    2.986149   -0.957322
 H    3.791456    0.917489   -0.136680
 H    3.397627    1.375698   -1.797108
 H    5.448665    2.548596   -0.992353
 H    4.168724    3.693817   -1.371640
 H    1.132643   -0.753985    0.702562
 H    1.395339    0.424942   -1.111352
 H    5.218923    4.312468    0.783066
 H    4.926398    2.701008    1.427517
 H    3.189277    4.255630    2.267175
 H    2.782623    4.740008    0.627117
 H    2.432465    1.931882    1.809654
 H    1.136559    3.087673    1.443140
 H    1.072655   -3.683549    1.109710
 H    1.952075   -2.516243    2.114366
 H    3.748886   -1.078110    1.118242
 H    5.644617   -1.015163   -0.464285
 H    5.786191   -2.679880   -2.299411
 H    4.025104   -4.407771   -2.542719
 H    2.112074   -4.458244   -0.979729
 H   -0.979175   -1.338590    3.776108
 H    0.697286   -0.928638    3.414047
 H    0.161873   -2.632348    3.427568
