67 
4zpg_ligand_xtb.xyz
 C   -1.182950   -0.889980   -1.000893
 C   -0.033461   -1.872495   -0.735666
 C   -0.676624   -1.730848    1.602745
 C   -1.203511   -0.301692    1.496905
 C   -1.270467    0.235134    0.035924
 C   -0.176767    1.308103   -0.096552
 C   -2.044800    2.434686   -0.076514
 C   -3.746370    0.643857   -0.343651
 C   -4.649746    1.448846   -1.037125
 C   -5.949469    1.028023   -1.246974
 C   -6.385426   -0.206839   -0.795487
 C   -5.478843   -0.994773   -0.117532
 C   -4.175870   -0.597091    0.122606
 C    2.124267    2.084253   -0.014161
 C    3.165918    1.942738   -1.117937
 C    4.201264    3.060366   -1.007644
 N    0.483027   -1.808245    0.655232
 N   -0.648182    2.491731   -0.044848
 N   -2.427108    1.083859   -0.147499
 O   -2.778202    3.375167   -0.059505
 F   -5.845285   -2.210214    0.337456
 N    1.140845    0.988923   -0.095107
 C    4.862775    3.047984    0.366502
 C    3.813249    3.186250    1.464437
 C    2.786311    2.061794    1.363525
 C    1.473693   -2.899187    0.889382
 C    2.683704   -2.697414    0.014223
 C    3.628246   -1.741160    0.373946
 C    4.740513   -1.523726   -0.419644
 C    4.916643   -2.259864   -1.580395
 C    3.984447   -3.219092   -1.939607
 C    2.870312   -3.437746   -1.146827
 C   -0.303781   -2.044852    3.043412
 H   -2.136565   -1.419087   -1.008508
 H   -1.068347   -0.445151   -1.990842
 H    0.802642   -1.700774   -1.416949
 H   -0.383855   -2.893300   -0.906123
 H   -1.418338   -2.458033    1.258208
 H   -0.559474    0.358916    2.084946
 H   -2.194307   -0.239705    1.945778
 H   -4.335592    2.413058   -1.397256
 H   -6.631519    1.670886   -1.779727
 H   -7.392646   -0.552574   -0.956571
 H   -3.549709   -1.271184    0.683018
 H    1.576898    3.023195   -0.133048
 H    3.666781    0.972895   -1.026504
 H    2.678741    1.987675   -2.094959
 H    4.953482    2.937647   -1.787727
 H    3.708995    4.021119   -1.164348
 H    0.991765   -0.909236    0.760679
 H    1.422572    0.282165   -0.762652
 H    5.578460    3.866809    0.436360
 H    5.412717    2.113243    0.501129
 H    4.290447    3.159237    2.444763
 H    3.305018    4.146119    1.364787
 H    3.287943    1.101896    1.512962
 H    2.024040    2.180436    2.135850
 H    0.992829   -3.857788    0.686766
 H    1.779259   -2.868392    1.935103
 H    3.505547   -1.182843    1.291834
 H    5.476630   -0.791477   -0.125988
 H    5.785661   -2.094142   -2.196977
 H    4.125988   -3.803325   -2.834950
 H    2.154506   -4.197338   -1.424555
 H   -1.160280   -1.824763    3.675943
 H    0.523684   -1.427236    3.385702
 H   -0.060411   -3.093891    3.186346
