41 
4zs3_ligand_xtb.xyz
 O    3.785515    0.642922    2.285604
 C    2.783648   -0.142674    1.838474
 O    2.225482   -0.895992    2.588163
 C    2.471677    0.005702    0.387994
 C    3.545815    0.065150   -0.498659
 C    3.344726    0.175461   -1.870938
 N    4.412327    0.288635   -2.733243
 C    2.030818    0.249793   -2.340180
 C    0.971826    0.196170   -1.462415
 C    1.160908    0.062802   -0.089563
 C   -0.055992    0.006897    0.814088
 C   -0.813514   -1.263214    0.516136
 C   -0.330660   -2.491402    0.947805
 C   -0.977679   -3.666773    0.629589
 C   -2.137279   -3.628893   -0.140872
 O   -2.750222   -4.803434   -0.449075
 C   -2.640781   -2.409873   -0.566684
 C   -1.980882   -1.231188   -0.236575
 O   -2.557478   -0.071829   -0.681407
 C   -0.921358    1.215215    0.563327
 C   -2.088186    1.112692   -0.191904
 C   -2.847377    2.239167   -0.480064
 C   -0.548878    2.464028    1.034698
 C   -1.297607    3.592082    0.759239
 C   -2.451042    3.482364   -0.009984
 O   -3.220894    4.559958   -0.319652
 H    4.131959    1.215666    1.587806
 H    4.559921   -0.022393   -0.128423
 H    5.299732   -0.055099   -2.404084
 H    4.224339    0.100832   -3.704402
 H    1.852711    0.344444   -3.401413
 H   -0.033295    0.252739   -1.851766
 H    0.269203   -0.007286    1.857294
 H    0.567418   -2.509187    1.546104
 H   -0.605204   -4.620872    0.963961
 H   -3.543930   -4.629270   -0.969122
 H   -3.546830   -2.351262   -1.152965
 H   -3.745877    2.146050   -1.066711
 H    0.349050    2.550535    1.629105
 H   -0.988669    4.557145    1.137122
 H   -2.845130    5.353471    0.080065
