66 
4zs9_ligand_dft.xyz
 O    0.162059   -1.982477   -1.943792
 C    0.374906   -2.204593   -0.566055
 C    1.765278   -2.734321   -0.232297
 C    2.022459   -2.619526    1.280198
 O    2.124486   -3.908580    1.844045
 C    3.307691   -1.801455    1.363027
 O    3.335653   -0.970636    2.485829
 O    2.801963   -1.982276   -0.897888
 C    3.375788   -1.089725    0.000977
 C    4.829367   -0.779002   -0.363292
 O    5.378644    0.059798    0.629372
 O    2.616817    0.113645    0.095379
 C    2.484419    0.855518   -1.082395
 C    2.797969    2.318461   -0.770033
 O    4.112826    2.420333   -0.261429
 C    1.777013    2.841788    0.220910
 O    2.125206    4.181869    0.503424
 C    0.388254    2.727109   -0.383990
 O   -0.517760    3.137112    0.617870
 C    0.123932    1.284224   -0.848112
 O    1.192218    0.760914   -1.636543
 C   -1.105719    1.194362   -1.744675
 O   -2.220322    1.691301   -1.020985
 C   -3.154742    0.754452   -0.595025
 O   -2.494381   -0.406528   -0.138990
 C   -3.399788   -1.507279    0.043244
 C   -3.579340   -2.309108   -1.246937
 O   -2.431298   -3.032266   -1.600563
 C   -4.728487   -1.041142    0.662627
 O   -5.682112   -0.787821   -0.354583
 C   -4.486121    0.227971    1.466899
 O   -5.709719    0.571538    2.084351
 C   -3.962987    1.365459    0.565682
 O   -3.236821    2.304360    1.332746
 H    0.675233   -1.188866   -2.167771
 H    0.185465   -1.285855   -0.000530
 H   -0.361105   -2.946364   -0.244039
 H    1.875421   -3.768255   -0.565714
 H    1.218528   -2.047560    1.766658
 H    2.259874   -3.795316    2.792998
 H    4.137877   -2.525208    1.374265
 H    4.133109   -0.428511    2.377417
 H    5.393902   -1.714363   -0.367209
 H    4.923227   -0.337212   -1.363823
 H    4.992925    0.943929    0.477736
 H    3.138345    0.478461   -1.870327
 H    2.717833    2.890392   -1.705229
 H    4.163966    3.279549    0.182590
 H    1.818437    2.229669    1.133219
 H    1.436616    4.530626    1.085234
 H    0.339119    3.402604   -1.253815
 H   -1.416602    3.092792    0.250383
 H   -0.029889    0.669344    0.045890
 H   -0.969138    1.829596   -2.626369
 H   -1.256655    0.160434   -2.062474
 H   -3.832306    0.488423   -1.418219
 H   -2.888829   -2.148474    0.767376
 H   -4.378226   -3.040611   -1.089573
 H   -3.916180   -1.643857   -2.054063
 H   -1.733015   -2.430989   -1.911672
 H   -5.098407   -1.828178    1.334641
 H   -6.440809   -0.382983    0.088870
 H   -3.713340    0.018237    2.223087
 H   -5.592330    1.434491    2.502255
 H   -4.815123    1.913810    0.156681
 H   -2.406944    1.888789    1.611072
