35 
4zsg_ligand_dft.xyz
 C   -4.722919   -1.487325   -0.151955
 C   -6.045008   -1.009344   -0.743893
 C   -2.450229   -0.571233   -0.144205
 C    2.671170    0.830841    0.062685
 C    4.056659    0.713550    0.091629
 C    4.654646   -0.536009    0.000553
 C    3.878146   -1.682999   -0.120063
 C    2.496587   -1.568911   -0.149451
Cl    6.399294   -0.671340    0.037758
 C    1.880377   -0.315315   -0.058842
 N    0.480050   -0.293229   -0.095078
 C   -0.345483    0.775900   -0.036393
 N   -0.041372    2.054926    0.053239
 C   -1.269857    2.659564    0.075527
 N   -1.371777    4.018407    0.216247
 N   -2.313743    1.864993    0.000111
 N   -1.708601    0.617575   -0.069389
 O   -1.885121   -1.660859   -0.202927
 N   -3.778150   -0.375337   -0.153667
 C   -4.889994   -2.068652    1.252758
 H   -4.293218   -2.257171   -0.800355
 H   -6.489732   -0.222460   -0.122087
 H   -5.904543   -0.615225   -1.754894
 H   -6.758021   -1.837422   -0.790794
 H    2.201836    1.803067    0.134313
 H    4.670497    1.602700    0.186528
 H    4.348457   -2.657527   -0.190717
 H    1.888293   -2.464403   -0.244022
 H   -0.018867   -1.177669   -0.163486
 H   -0.555945    4.527448   -0.089051
 H   -2.249544    4.415730   -0.083410
 H   -4.099229    0.577902   -0.040837
 H   -3.924308   -2.404144    1.640537
 H   -5.301253   -1.316760    1.935758
 H   -5.570880   -2.926158    1.233714
