38 
4zsj_ligand_dft.xyz
 C    3.744063   -1.322872   -0.078941
 C    2.354225   -1.260667   -0.110055
 C    1.662406   -0.047033   -0.038989
 C   -0.628378    0.899498   -0.035465
 C   -1.670613    2.721949    0.052415
 C   -2.644262   -0.578345   -0.136898
 C   -4.856167   -1.633212   -0.140865
 C   -4.994728   -2.203346    1.271534
 C   -6.202037   -1.246707   -0.745936
 O   -2.012485   -1.631426   -0.180178
 N   -3.981974   -0.465276   -0.154808
 N   -1.978933    0.655076   -0.072820
 N   -2.662048    1.862542   -0.018991
 N   -1.858913    4.073236    0.178182
 N   -0.406446    2.196279    0.041863
 N    0.263222   -0.115326   -0.079145
 C    2.377971    1.146702    0.067314
 C    3.766467    1.100822    0.099261
 C    4.436203   -0.112130    0.027004
Cl    6.189821   -0.109346    0.070747
 C    4.456112   -2.645987   -0.157419
 H    1.792064   -2.188096   -0.192543
 H   -4.376218   -2.384357   -0.775778
 H   -5.454860   -1.468256    1.941550
 H   -5.621625   -3.101259    1.262375
 H   -4.012251   -2.473073    1.668394
 H   -6.862485   -2.117755   -0.783496
 H   -6.697777   -0.479534   -0.138220
 H   -6.080545   -0.859646   -1.762108
 H   -4.361242    0.467683   -0.052978
 H   -2.758112    4.410806   -0.131090
 H   -1.075165    4.628981   -0.129807
 H   -0.177296   -1.030658   -0.139247
 H    1.854383    2.091433    0.124576
 H    4.333543    2.021702    0.182097
 H    3.740586   -3.468893   -0.233361
 H    5.119600   -2.685208   -1.027758
 H    5.078401   -2.811329    0.728395
