40 
4zt2_ligand_dft.xyz
 C    2.493845   -1.858383   -0.537906
 C    1.302106   -1.874966    0.180163
 C    0.957463   -0.850457    1.053403
 C    1.824435    0.232376    1.207732
 C    1.453959    1.390896    2.107867
 C    0.948685    2.895070    0.235738
 C    0.072773    4.058300   -0.218609
 N   -1.612925    2.619954   -1.385711
 C   -1.403614    3.712962   -0.444251
 C   -2.097262    1.408421   -0.960429
 C   -3.046571   -0.485806   -0.864628
 C   -3.744547   -1.672361   -1.041454
 N   -2.845194    0.610192   -1.686591
 C   -3.737825   -2.570234    0.027571
 C   -3.050536   -2.266803    1.204372
 C   -2.402945   -0.298433    0.379530
 C    3.026650    0.263978    0.502642
 N   -2.371783   -1.127563    1.407754
Cl    0.221843   -3.226323   -0.031769
 C    3.346257   -0.777933   -0.359028
Cl    4.853201   -0.727719   -1.241529
 N    0.468414    2.282226    1.479090
 N   -1.804614    0.943421    0.295170
 H    2.748187   -2.665888   -1.213775
 H    0.017931   -0.902695    1.598053
 H    2.372820    1.938456    2.374781
 H    1.010801    1.013710    3.034989
 H    1.987361    3.252503    0.338854
 H    0.952075    2.122286   -0.540144
 H    0.497440    4.447044   -1.151243
 H    0.124965    4.876186    0.514288
 H   -1.989153    2.868590   -2.289061
 H   -1.918245    4.604476   -0.818835
 H   -1.881570    3.459204    0.508578
 H   -4.265422   -1.888528   -1.968662
 H   -4.263324   -3.516501   -0.048643
 H   -3.039296   -2.976244    2.027607
 H    3.711310    1.098191    0.617879
 H    0.240095    3.015593    2.147027
 H   -1.076249    1.334963    0.910120
