49 
4ztq_ligand_dft.xyz
 O   -2.866363    2.811455    0.859358
 C   -1.986750    1.976780    0.813433
 N   -0.646745    2.268564    0.778089
 C   -0.191085    3.646798    0.657930
 C   -0.379488    4.162052   -0.772971
 O    0.220106    3.350416   -1.747377
 C    1.619349    3.500760   -1.843518
 C    0.239829    1.200520    0.680251
 S   -0.635565   -0.352594    0.630914
 C   -2.255378    0.476800    0.761796
 C   -3.210990    0.154157   -0.398824
 C   -3.620417   -1.296353   -0.413119
 C   -2.980565   -2.229972   -1.226323
 C   -3.375702   -3.563416   -1.166160
 N   -4.344352   -4.017652   -0.369608
 C   -4.954729   -3.118150    0.405941
 C   -4.634725   -1.765466    0.422288
 N    1.492910    1.371622    0.671595
 C    2.356139    0.269189    0.506140
 C    2.461697   -0.377133   -0.728333
 C    3.353737   -1.431214   -0.888027
 C    4.159536   -1.865199    0.165788
 C    5.163103   -2.977113   -0.029300
 C    6.527515   -2.451092   -0.491908
 C    4.050200   -1.202750    1.390771
 C    3.167559   -0.144110    1.564257
 H    0.854069    3.665792    0.968861
 H   -0.782413    4.258815    1.343878
 H   -0.001960    5.196343   -0.825392
 H   -1.448166    4.178194   -1.003523
 H    1.892819    4.551324   -2.026738
 H    2.134459    3.139338   -0.944679
 H    1.941123    2.898899   -2.696339
 H   -2.722724    0.188188    1.708420
 H   -2.728589    0.427757   -1.343140
 H   -4.087668    0.798825   -0.274192
 H   -2.182711   -1.925755   -1.897256
 H   -2.886839   -4.305433   -1.793857
 H   -5.745656   -3.500391    1.047797
 H   -5.175842   -1.085083    1.074738
 H    1.843013   -0.042957   -1.556413
 H    3.423826   -1.927149   -1.853582
 H    4.780689   -3.693071   -0.766433
 H    5.286273   -3.530641    0.909127
 H    6.434707   -1.916720   -1.443396
 H    6.942979   -1.752514    0.242156
 H    7.240903   -3.270883   -0.627150
 H    4.669018   -1.521663    2.226512
 H    3.092083    0.367050    2.518930
