56 
4ztr_ligand_xtb.xyz
 C    8.170804   -3.182830    0.346045
 C    8.296672   -1.981429    1.285499
 C    7.239118   -0.962460    0.974030
 C    7.471914    0.041274    0.039924
 C    6.489616    0.954587   -0.279127
 C    5.230648    0.870869    0.317523
 C    4.993314   -0.127175    1.261804
 C    5.990979   -1.026867    1.580716
 N    4.310698    1.838261   -0.036272
 C    3.061158    1.739835   -0.071445
 S    2.005442    0.326517    0.245015
 C    0.528606    1.206430   -0.336403
 C   -0.051075    0.600176   -1.623107
 C   -0.704430   -0.720483   -1.340372
 C   -2.060500   -0.783162   -1.059354
 C   -2.627744   -2.026273   -0.769990
 N   -3.967275   -2.227984   -0.509171
 C   -4.950499   -1.386760   -0.077449
 C   -4.729971   -0.132456    0.516481
 C   -5.822038    0.610909    0.892960
 C   -7.115721    0.114090    0.684088
 C   -7.218138   -1.170685    0.155490
 N   -6.180741   -1.892531   -0.209508
 C   -8.269091    0.953378    1.094831
 O   -9.475421    0.610684    0.602437
 O   -8.155866    1.901915    1.823261
 N   -1.919193   -3.153677   -0.793776
 C   -0.629012   -3.084808   -1.059511
 C    0.035003   -1.899952   -1.325252
 C    0.945075    2.645234   -0.586192
 O    0.174396    3.514105   -0.917828
 N    2.283874    2.819896   -0.427846
 C    2.909035    4.100620   -0.666591
 H    7.191337   -3.643765    0.451891
 H    8.290096   -2.867918   -0.688235
 H    8.931704   -3.925885    0.573480
 H    9.286757   -1.536031    1.169272
 H    8.192842   -2.320254    2.318190
 H    8.439927    0.110182   -0.435928
 H    6.671538    1.735521   -1.001388
 H    4.037842   -0.181771    1.761710
 H    5.796843   -1.793016    2.317976
 H   -0.222798    1.174799    0.457316
 H    0.753786    0.476791   -2.351443
 H   -0.780616    1.310204   -2.020521
 H   -2.666009    0.106568   -1.116472
 H   -4.269878   -3.185259   -0.645485
 H   -3.731723    0.218215    0.714919
 H   -5.710972    1.578646    1.358591
 H   -8.170377   -1.677217    0.035232
 H   -9.433918   -0.139024   -0.004750
 H   -0.106904   -4.031961   -1.061906
 H    1.093142   -1.894498   -1.530163
 H    3.425898    4.432253    0.233269
 H    3.633606    4.012058   -1.475455
 H    2.122048    4.803336   -0.934876
