57 
4zts_ligand_xtb.xyz
 C    6.191674  -24.287454  -13.028754
 C    7.331702  -24.239942  -12.009043
 C    6.797634  -24.386218  -10.613574
 C    6.619218  -25.643643  -10.050133
 C    6.091310  -25.790630   -8.783158
 C    5.731182  -24.664849   -8.042473
 C    5.924488  -23.398396   -8.595201
 C    6.438611  -23.268484   -9.867965
 N    5.262508  -24.727762   -6.745977
 C    4.483308  -25.579134   -6.255683
 S    3.594851  -26.912418   -7.087576
 C    2.783960  -27.358558   -5.610136
 C    1.878333  -28.330251   -5.385841
 C    1.296982  -29.290588   -6.291978
 C    0.397960  -30.223652   -5.771671
 C   -0.171812  -31.167412   -6.626746
 N   -1.080913  -32.119109   -6.229778
 C   -1.317161  -32.674920   -4.990930
 C   -0.385746  -32.647899   -3.949575
 C   -0.676129  -33.232208   -2.735140
 C   -1.898476  -33.869920   -2.525549
 C   -2.818605  -33.928032   -3.576081
 C   -2.530329  -33.345103   -4.786428
 C   -2.240058  -34.490654   -1.270765
 N   -1.476815  -34.524817   -0.141399
 N   -2.166949  -35.200984    0.786293
 N   -3.262533  -35.549005    0.259526
 N   -3.356148  -35.140049   -0.994147
 N    0.063236  -31.171448   -7.940704
 C    0.906866  -30.282182   -8.431558
 C    1.567047  -29.340389   -7.666237
 C    3.231066  -26.496871   -4.495265
 O    2.849341  -26.583186   -3.349493
 N    4.145237  -25.573057   -4.931467
 C    4.728794  -24.604506   -4.034667
 H    6.580778  -24.182771  -14.038858
 H    5.659089  -25.232999  -12.957210
 H    5.484498  -23.482180  -12.843301
 H    8.036942  -25.045907  -12.221731
 H    7.860060  -23.289327  -12.104803
 H    6.903448  -26.523229  -10.610208
 H    5.986869  -26.775277   -8.351672
 H    5.650856  -22.529891   -8.016030
 H    6.575175  -22.282535  -10.288985
 H    1.545274  -28.393909   -4.355074
 H    0.119439  -30.181794   -4.731313
 H   -1.594197  -32.517044   -7.005351
 H    0.584028  -32.203047   -4.103951
 H    0.068285  -33.198504   -1.952668
 H   -3.754187  -34.438281   -3.411755
 H   -3.244397  -33.397205   -5.595156
 H   -0.564836  -34.143615    0.048753
 H    1.058105  -30.333938   -9.501445
 H    2.252114  -28.650881   -8.128482
 H    4.282967  -24.761592   -3.053598
 H    5.808840  -24.743484   -3.986496
 H    4.519216  -23.596859   -4.392393
