33 
4zun_ligand_xtb.xyz
 C    4.660185   -1.185985    0.539055
 C    4.119196    0.015857   -0.086531
 C    2.593613    0.207476    0.323818
 C    0.055486    1.975498    0.073835
 C   -0.794805    0.776495   -0.159501
 C   -2.279945    1.062875    0.128107
 C   -3.144829   -0.173055   -0.105928
 C   -4.608745    0.112309    0.182936
 N    7.437736   -1.307979   -0.279949
 N    1.977498    1.365553   -0.260466
 S   -5.600706   -1.402983   -0.129842
 H    4.304163   -2.132961    0.162419
 H    4.791487   -1.159650    1.610189
 H    4.152766   -0.045502   -1.177206
 H    4.650522    0.914957    0.235893
 H    2.543463    0.292769    1.409369
 H    2.043298   -0.679939    0.011619
 H    0.132157    2.305896    1.097226
 H   -0.029419    2.774250   -0.646248
 H   -0.468860   -0.037523    0.491901
 H   -0.700686    0.442915   -1.195553
 H   -2.620565    1.875588   -0.517662
 H   -2.386667    1.393539    1.163595
 H   -2.805322   -0.987633    0.537772
 H   -3.042787   -0.504013   -1.142029
 H   -4.990536    0.899309   -0.468111
 H   -4.754234    0.395063    1.225712
 H    6.454387   -1.345295    0.065817
 H    7.396426   -1.362444   -1.291494
 H    7.796560   -0.388591   -0.047145
 H    1.953370    1.301357   -1.273240
 H    2.455184    2.219161    0.010987
 H   -6.770988   -0.875358    0.221807
