31 
4zun_ligand_dft.xyz
 C  -10.514538    0.707306  -28.094754
 C  -10.366079    1.743020  -26.985295
 C  -11.281686    2.947225  -27.172715
 C  -11.993775    5.051703  -26.150935
 C  -11.693489    6.044293  -27.273056
 C  -12.602571    7.271976  -27.223506
 C  -12.322524    8.260324  -28.357003
 C  -13.231713    9.484414  -28.286234
 N   -9.659879   -0.447555  -27.828546
 N  -11.055780    3.936926  -26.128801
 S  -12.849908   10.619142  -29.673077
 H  -10.320002    1.192492  -29.068609
 H  -11.552906    0.354352  -28.122893
 H  -10.575050    1.251885  -26.026120
 H   -9.328370    2.098549  -26.941207
 H  -11.070558    3.410788  -28.144416
 H  -12.336810    2.609184  -27.210660
 H  -11.908663    5.574790  -25.190496
 H  -13.046140    4.715714  -26.240134
 H  -11.809158    5.554643  -28.248738
 H  -10.642156    6.346884  -27.195174
 H  -12.476873    7.780626  -26.257234
 H  -13.653353    6.952695  -27.270373
 H  -12.460022    7.758515  -29.323369
 H  -11.273849    8.580641  -28.313640
 H  -13.081362   10.009593  -27.338151
 H  -14.280275    9.177829  -28.348663
 H   -9.787764   -1.148314  -28.552945
 H   -8.684102   -0.164825  -27.875453
 H  -11.124749    3.470792  -25.228542
 H  -13.754897   11.563393  -29.365262
