28 
4zur_ligand_dft.xyz
 O   -5.322418    0.077707   -0.350621
 N   -4.099593   -0.577619   -0.377522
 C   -3.049273    0.078872    0.174497
 O   -3.146448    1.267214    0.461608
 C   -1.772080   -0.719420    0.339456
 C   -0.565240    0.109534   -0.102961
 C    0.768733   -0.563707    0.214593
 C    1.954550    0.302851   -0.214231
 C    3.304062   -0.341091    0.124837
 C    4.452223    0.555670   -0.307967
 N    5.789029   -0.078077    0.036664
 H   -5.066449    0.957894   -0.005466
 H   -4.226153   -1.574130   -0.271783
 H   -1.826086   -1.663334   -0.215843
 H   -1.678739   -0.970566    1.404092
 H   -0.623878    1.083949    0.393371
 H   -0.636151    0.302239   -1.180836
 H    0.826898   -1.539306   -0.287012
 H    0.832357   -0.760630    1.293520
 H    1.883518    1.281275    0.278012
 H    1.899311    0.488211   -1.294693
 H    3.381156   -1.315351   -0.376127
 H    3.359498   -0.522043    1.206647
 H    4.434944    1.522877    0.199131
 H    4.463865    0.721951   -1.387361
 H    6.580196    0.509158   -0.247061
 H    5.868355   -0.240748    1.046024
 H    5.894390   -0.987194   -0.425844
