34 
4zvi_ligand_dft.xyz
 C  -13.674661   17.970954   21.671674
 C  -12.348014   20.019743   22.214111
 C  -12.533142   20.014211   23.601127
 C  -11.950863   21.014271   24.366722
 C  -11.196291   22.033750   23.786829
 C  -11.007073   22.023015   22.403270
 C  -14.087368   17.140723   20.523473
 C  -13.884574   17.173047   19.156329
 C  -14.567668   16.063251   18.616171
 C  -15.162944   15.391158   19.663788
 O  -14.033652   17.668089   22.801588
 N  -12.895088   19.050323   21.356118
 C  -11.575640   21.027370   21.625094
 C  -10.612821   23.071407   24.695127
 O  -10.471342   22.883810   25.895657
 N  -10.242447   24.246816   24.111709
 C   -9.746153   25.324364   24.924160
 C   -9.689290   26.580000   24.090040
 O   -9.170690   27.606017   24.775323
 O  -10.066940   26.665213   22.944691
Br  -14.665395   15.571006   16.821286
Br  -16.202106   13.857479   19.643529
 N  -14.865498   16.051617   20.808018
 H  -13.122134   19.234126   24.061637
 H  -12.074912   21.015627   25.444523
 H  -10.386795   22.771646   21.918883
 H  -13.318720   17.894943   18.584494
 H  -12.678816   19.173166   20.377921
 H  -11.411009   21.027751   20.550103
 H  -10.561056   24.503868   23.187854
 H   -8.746417   25.106469   25.317298
 H  -10.387178   25.498739   25.797952
 H   -9.176063   28.373511   24.180968
 H  -15.149241   15.816520   21.749532
