69 
4zwx_ligand_xtb.xyz
 C    0.844577   -1.908517    0.660995
 C    1.812201   -1.384179   -0.395516
 C    1.889946    0.146532   -0.348829
 C    2.140066    0.614518    1.091818
 C   -0.318631    0.837970    1.735637
 O    3.099882   -1.948845   -0.186278
 C    5.201030   -2.710032   -0.879689
 C    3.828144   -2.246103   -1.281807
 O    3.424331   -2.152635   -2.405061
 O    2.942718    0.557811   -1.208041
 C    2.985488    1.866412   -1.530119
 O    2.174817    2.667046   -1.152216
 C    4.177208    2.152429   -2.391572
 O    3.354339    0.070179    1.602624
 C    4.499295    0.727975    1.384825
 O    4.584462    1.778689    0.808369
 C    5.650598   -0.021974    1.998583
 C    1.011677    0.111981    1.995612
 O   -0.157888    2.238665    1.587868
 C   -0.472812    2.766231    0.387354
 O   -0.832310    2.097796   -0.547336
 C   -0.319888    4.249520    0.377774
 O    0.844722   -1.295894    1.902546
 S   -0.821951   -1.957301   -0.184929
 O   -0.866583   -3.217652   -0.868990
 O   -0.938964   -0.770911   -1.000189
 N   -1.918793   -1.939469    1.043645
 C   -2.894780   -3.014660    1.111662
 C   -4.309978   -2.522043    0.813627
 C   -4.433126   -1.887994   -0.573381
 C   -5.730412   -1.092599   -0.737698
 C   -5.780810    0.197824    0.085646
 O   -5.109657    1.286718   -0.524061
 S   -3.540997    1.511567   -0.310816
 O   -3.115136    0.656578    0.765568
 O   -3.395449    2.919358   -0.156226
 N   -2.977516    0.987081   -1.756421
 H    1.046339   -2.965866    0.851610
 H    1.455990   -1.698135   -1.386554
 H    0.944188    0.572418   -0.707437
 H    2.199504    1.709773    1.114639
 H   -0.997515    0.669064    2.574507
 H   -0.777600    0.448630    0.825328
 H    5.160564   -3.215115    0.079942
 H    5.844355   -1.836492   -0.792772
 H    5.603515   -3.365327   -1.646277
 H    3.985167    3.023443   -3.010219
 H    4.416895    1.283844   -2.996932
 H    5.012434    2.367449   -1.726506
 H    5.803718    0.351737    3.009460
 H    5.419701   -1.080889    2.045432
 H    6.555427    0.159428    1.426000
 H    1.322202    0.262067    3.036481
 H   -1.268981    4.676895    0.061860
 H    0.443952    4.504263   -0.354042
 H   -0.039997    4.611688    1.360793
 H   -2.339466   -1.018454    1.146478
 H   -2.583280   -3.772765    0.390333
 H   -2.855308   -3.447410    2.117387
 H   -4.572383   -1.788829    1.577471
 H   -5.001417   -3.362463    0.901505
 H   -3.592777   -1.219018   -0.752697
 H   -4.395612   -2.673933   -1.330177
 H   -6.577063   -1.716176   -0.440568
 H   -5.856949   -0.820601   -1.786116
 H   -5.349839    0.049479    1.079128
 H   -6.817110    0.533341    0.190445
 H   -2.685117    1.786048   -2.293771
 H   -2.175239    0.375401   -1.621524
