50 
4zwz_ligand_xtb.xyz
 C    1.120166   -1.328850    0.413297
 C    1.990561   -2.307800   -0.391840
 C    3.033346   -1.545092   -1.238369
 C    3.755369   -0.528470   -0.326637
 C    2.700265    0.426512    0.254236
 C    3.308548    1.492652    1.177415
 O    2.618739   -3.232307    0.451792
 O    3.922559   -2.427328   -1.851964
 O    4.434639   -1.229096    0.695092
 O    3.898821    0.911288    2.318560
 O    1.792327   -0.317756    1.069899
 S   -0.150705   -0.589661   -0.704825
 O   -1.178574   -1.578534   -0.910361
 O    0.457469   -0.047631   -1.889579
 N   -0.624306    0.738480    0.200211
 C   -1.551216    0.486203    1.282178
 C   -2.904125    0.912370    0.700553
 O   -3.361572   -0.042770   -0.234659
 S   -3.974256   -1.420821    0.371542
 O   -3.151886   -1.881404    1.438174
 O   -5.350682   -1.183921    0.648490
 N   -3.835672   -2.409497   -0.914217
 C   -2.532819    2.179652   -0.075656
 C   -1.084024    1.900112   -0.542884
 C   -0.177626    3.091285   -0.251077
 O    0.586629    3.171569    0.672740
 O   -0.361307    4.051018   -1.152097
 C    0.415517    5.234906   -0.985345
 H    0.546675   -1.877758    1.163731
 H    1.326002   -2.882325   -1.046055
 H    2.526900   -0.999332   -2.038320
 H    4.474945    0.043554   -0.931129
 H    2.160205    0.913800   -0.564862
 H    4.104722    2.024228    0.652535
 H    2.522269    2.199575    1.458824
 H    3.328296   -2.754081    0.921691
 H    4.243991   -3.042973   -1.176923
 H    4.635931   -0.590710    1.402808
 H    3.191719    0.480637    2.815567
 H   -1.551145   -0.565746    1.554068
 H   -1.281086    1.108767    2.139410
 H   -3.674598    1.065143    1.462142
 H   -2.853027   -2.460535   -1.153681
 H   -4.396525   -2.082081   -1.682264
 H   -3.205056    2.339020   -0.913969
 H   -2.565311    3.042740    0.588912
 H   -1.029650    1.686128   -1.612978
 H    0.077789    5.927241   -1.751413
 H    1.475766    5.010051   -1.111715
 H    0.259349    5.653583    0.010298
