53 
4zx0_ligand_xtb.xyz
 C    0.406151   -1.777591   -0.390214
 C    0.239122   -3.113829    0.322935
 C   -1.163430   -3.272352    0.964309
 C   -2.240719   -2.827694   -0.044522
 C   -1.902024   -1.490663   -0.649756
 C   -2.796365   -0.521522   -0.821180
 O    0.457243   -4.139761   -0.620417
 O   -1.366858   -4.623033    1.298349
 O   -2.361069   -3.817808   -1.045592
 O   -2.489935    0.630678   -1.495586
 C   -3.383486    1.643761   -1.457344
 O   -4.383277    1.611869   -0.788337
 C   -2.938651    2.783505   -2.316875
 O   -0.639299   -1.371024   -1.196879
 S    0.637877   -0.498327    0.927770
 O    1.986018   -0.565975    1.438141
 O   -0.380707   -0.666758    1.925827
 N    0.219468    0.950851    0.175784
 C    0.930076    1.359325   -1.018586
 C    2.060204    2.247917   -0.492039
 O    3.067459    1.491737    0.158959
 S    3.893295    0.346197   -0.610161
 O    4.852546    0.983110   -1.446785
 O    3.006772   -0.590682   -1.223270
 N    4.635184   -0.365898    0.652809
 C    1.336919    3.047657    0.596055
 C    0.250587    2.083162    1.107549
 C   -1.139429    2.729757    1.074009
 O   -1.453225    3.589781    0.288273
 O   -1.925482    2.223840    1.996780
 C   -3.268645    2.707144    2.062687
 H    1.320466   -1.778873   -0.988462
 H    1.001965   -3.153123    1.115246
 H   -1.217444   -2.668886    1.872238
 H   -3.216669   -2.782311    0.445913
 H   -3.813897   -0.600337   -0.463801
 H    0.322207   -4.979630   -0.156721
 H   -1.904715   -5.008800    0.585481
 H   -1.525546   -3.847434   -1.540279
 H   -3.804549    3.324727   -2.686656
 H   -2.351550    3.456806   -1.691482
 H   -2.321197    2.425851   -3.134388
 H    1.285417    0.496664   -1.570493
 H    0.247032    1.948544   -1.637180
 H    2.523938    2.863600   -1.269291
 H    3.901599   -0.709288    1.260521
 H    5.249343    0.275829    1.125168
 H    2.024358    3.346408    1.382418
 H    0.861776    3.926745    0.158629
 H    0.434013    1.697584    2.112230
 H   -3.649359    2.402667    3.033597
 H   -3.871696    2.269580    1.265420
 H   -3.280150    3.793841    1.962119
