43 
4zx5_ligand_dft.xyz
 C   -3.094053   -3.220725    0.043971
 C   -4.001861   -2.013871    0.344323
 C   -5.400060   -2.267444   -0.226853
 C   -4.098164   -1.789461    1.864505
 C   -3.421940   -0.759265   -0.327170
 O   -4.022695   -0.135556   -1.199554
 N   -2.187988   -0.368203    0.086750
 C   -1.481336    0.743499   -0.545955
 C   -2.024165    2.065096    0.022209
 O   -1.568814    2.667552    0.989225
 N   -3.098749    2.533309   -0.653027
 O   -3.785306    3.578579   -0.048055
 C    0.009954    0.573558   -0.385755
 C    0.790204    0.243927   -1.493498
 C    2.157505    0.036853   -1.363708
 C    0.627833    0.684886    0.862730
 C    1.993067    0.467763    0.992367
 C    2.780964    0.139122   -0.116477
 C    4.232391   -0.091189    0.032004
 C    5.070235    0.615088    0.957969
 C    6.371690    0.221595    0.906392
 S    6.613808   -1.019977   -0.264513
 C    4.947871   -1.006911   -0.692571
 H   -2.093231   -3.107668    0.475225
 H   -2.982560   -3.371032   -1.034848
 H   -3.535520   -4.128306    0.469408
 H   -6.065194   -1.421878   -0.032555
 H   -5.361824   -2.416918   -1.308866
 H   -5.829250   -3.162828    0.235739
 H   -4.573128   -2.657413    2.334098
 H   -3.116539   -1.660365    2.333866
 H   -4.701482   -0.905448    2.095680
 H   -1.695133   -0.886887    0.797248
 H   -1.737490    0.711700   -1.610019
 H   -3.724188    1.861146   -1.095593
 H   -3.205744    3.777773    0.715088
 H    0.326329    0.157671   -2.472662
 H    2.752592   -0.186054   -2.244582
 H    0.041127    0.970220    1.729106
 H    2.453070    0.544788    1.973258
 H    4.710989    1.402532    1.610587
 H    7.205553    0.602441    1.479606
 H    4.571572   -1.699309   -1.433470
