36 
4zx9_ligand_xtb.xyz
 C   -0.912119    0.700876   -0.574992
 N   -1.733628   -0.371117   -0.034245
 C   -3.011023   -0.565502   -0.420518
 O   -3.557475    0.190283   -1.206443
 C   -3.701492   -1.782327    0.197445
 C   -5.107001   -1.892285   -0.395518
 C   -3.799766   -1.584814    1.715010
 C   -2.906496   -3.051207   -0.130662
 C   -1.275854    2.022027    0.138281
 O   -0.604735    2.564361    0.998896
 N   -2.425619    2.534555   -0.306935
 O   -2.932591    3.671001    0.328447
Br    5.085689   -0.554621    0.139306
 C    0.546254    0.387155   -0.408337
 C    1.385124    0.309920   -1.512419
 C    2.730601    0.030594   -1.357197
 C    3.235006   -0.165370   -0.083058
 C    2.418495   -0.084729    1.031731
 C    1.074032    0.190371    0.863286
 H   -1.170570    0.809605   -1.635352
 H   -1.308758   -0.965864    0.657977
 H   -5.052257   -2.012557   -1.474236
 H   -5.629776   -2.745538    0.028838
 H   -5.676020   -0.990220   -0.187405
 H   -2.819189   -1.556124    2.185783
 H   -4.318593   -0.656495    1.944123
 H   -4.360361   -2.406750    2.154678
 H   -3.443949   -3.922960    0.235699
 H   -1.920329   -3.046720    0.328943
 H   -2.783180   -3.153122   -1.206582
 H   -3.109820    2.012581   -0.852952
 H   -2.225700    3.922043    0.955722
 H    0.986956    0.468955   -2.503409
 H    3.381174   -0.031737   -2.215754
 H    2.829465   -0.229548    2.018820
 H    0.440353    0.278710    1.732124
