77 
4zxx_ligand_dft.xyz
 C   -0.998810   -2.451714   -0.476378
 C    1.176906   -1.884564    1.722760
 C    1.273079   -1.884341    0.182982
 C   -3.343851   -2.759542    0.054408
 C    0.648870    1.243842    1.001409
 C   -0.672131    0.954047    1.321209
 C   -1.749517    1.608661    0.711090
 C   -1.499856    2.595021   -0.247389
 C   -2.658029   -0.952120   -1.432369
 C   -1.321495   -1.375621   -1.279919
 C   -4.233887    1.848692    0.813235
 N    1.383496   -0.714713    2.370234
 C    1.779588    0.560784    1.766027
 C    2.226477    1.381726    2.994969
 C    1.352949    0.842219    4.129254
 C    1.274598   -0.654845    3.830970
 N   -5.345535   -0.138812   -1.668658
 C   -4.333969    0.549091   -2.261733
 C   -3.019473    0.186082   -2.203977
 C   -5.037754   -1.207828   -0.967579
 C   -3.691029   -1.665397   -0.772556
 C   -2.035540   -3.141467    0.204165
 N    0.333292   -2.872066   -0.330147
 O    0.887019   -2.916616    2.317458
 N   -6.088796   -1.861490   -0.339766
 C   -0.186814    2.870949   -0.596356
 C    0.880505    2.207671    0.004568
 S    2.514273    2.620676   -0.608237
 O    2.371764    3.782615   -1.485072
 O    3.447404    2.671145    0.520412
 C    2.977676    1.196117   -1.641802
 C    1.980905    0.998804   -2.776199
 C    4.408632    1.405774   -2.130195
 N   -3.036235    1.214987    1.087287
 O   -4.310501    2.893533    0.196806
 C    2.684114   -2.118224   -0.339013
 C    2.846062   -2.421371   -1.693629
 C    4.116070   -2.518879   -2.248951
 C    5.245191   -2.320565   -1.455017
 C    5.092063   -2.038003   -0.102774
 C    3.817808   -1.940332    0.453541
 C   -5.452725    1.158106    1.387410
 H    0.949455   -0.907407   -0.187619
 H   -4.111250   -3.283894    0.616211
 H   -0.873775    0.186368    2.063325
 H   -2.324225    3.116965   -0.710368
 H   -0.539881   -0.843020   -1.815298
 H    2.636160    0.405262    1.110288
 H    2.125879    2.452820    2.821754
 H    3.283793    1.174307    3.188089
 H    0.355519    1.292881    4.085330
 H    1.770423    1.045572    5.117945
 H    0.343767   -1.127045    4.156112
 H    2.102306   -1.210305    4.287998
 H   -4.641913    1.436622   -2.806994
 H   -2.255410    0.770574   -2.705597
 H   -1.773512   -3.955357    0.874103
 H    0.394813   -3.688819    0.272672
 H   -6.982467   -1.528883   -0.679389
 H   -6.035321   -2.870319   -0.321630
 H    0.027493    3.616658   -1.354449
 H    2.954430    0.337819   -0.965155
 H    1.987109    1.859104   -3.451952
 H    2.262587    0.104547   -3.340902
 H    0.961073    0.859538   -2.403783
 H    4.718803    0.516249   -2.686368
 H    5.094704    1.545278   -1.291532
 H    4.469736    2.277447   -2.788721
 H   -3.093124    0.341805    1.590378
 H    1.961574   -2.586844   -2.301437
 H    4.227310   -2.752015   -3.303938
 H    6.237512   -2.395186   -1.889191
 H    5.964658   -1.893896    0.526861
 H    3.715735   -1.724691    1.513676
 H   -5.764608    1.687712    2.293571
 H   -6.253713    1.228954    0.650276
 H   -5.292750    0.102989    1.625075
