46 
4zy1_ligand_xtb.xyz
 C   -4.110380   -1.726757    1.845236
 C   -4.130020   -1.897935    0.321703
 C   -5.574828   -2.053544   -0.155118
 C   -3.318133   -3.130315   -0.092654
 C   -3.536492   -0.648460   -0.334091
 O   -4.168263    0.075412   -1.086713
 N   -2.252003   -0.392053   -0.023101
 C   -1.507186    0.715378   -0.605147
 C   -1.901078    2.016827    0.123169
 O   -1.226217    2.597409    0.955640
 N   -3.092109    2.475533   -0.275783
 O   -3.622358    3.586441    0.388764
 C   -0.030535    0.461267   -0.511642
 C    0.572298    0.281433    0.728197
 C    1.931254    0.057636    0.820083
 C    0.755173    0.411356   -1.655360
 C    2.113590    0.182295   -1.565190
 C    2.725087    0.002945   -0.325024
 C    4.156094   -0.231239   -0.231070
 C    4.993497   -0.018279    0.853107
 C    5.024807   -0.731361   -1.224614
 N    6.260872   -0.812690   -0.779616
 N    6.234201   -0.373843    0.474516
 C    7.438552   -0.309814    1.249858
 H   -3.096125   -1.677412    2.236076
 H   -4.610878   -2.571099    2.314405
 H   -4.634024   -0.817122    2.131575
 H   -5.605875   -2.150812   -1.237099
 H   -6.158805   -1.178993    0.119154
 H   -6.027247   -2.935011    0.292261
 H   -3.289139   -3.217144   -1.176595
 H   -3.783803   -4.027259    0.310018
 H   -2.294991   -3.086845    0.274863
 H   -1.755240   -0.969243    0.635617
 H   -1.821361    0.810341   -1.651797
 H   -3.778059    1.912881   -0.777446
 H   -2.896363    3.862299    0.983714
 H   -0.020805    0.340495    1.628676
 H    2.383508   -0.082866    1.790264
 H    0.298972    0.556458   -2.624179
 H    2.712001    0.156315   -2.463007
 H    4.797050    0.373415    1.830657
 H    4.792239   -1.048198   -2.221236
 H    7.688952    0.725572    1.490843
 H    7.329492   -0.873779    2.177857
 H    8.238280   -0.743299    0.653081
