46 
4zy4_ligand_dft.xyz
 C   -2.178961    1.673690    0.092500
 C   -3.280893    0.829285    0.276321
 C   -1.927384   -0.873782    0.859631
 C    3.638887    0.630805   -0.230902
 C    5.103350    0.551235   -0.046889
 C   -0.463045   -2.670547    1.652616
 C    0.588126   -2.772468    0.541139
 C   -1.432659   -3.016638   -1.079988
 C   -4.519990    1.508959   -0.006110
 C   -4.326034    2.791911   -0.388171
 S   -2.651334    3.263923   -0.437035
 N   -3.171923   -0.457100    0.646323
 N   -0.803110   -0.144745    0.713257
 C   -0.907249    1.103980    0.283733
 N    0.246080    1.781002   -0.014778
 C    1.500538    1.174350   -0.174489
 C    2.728829    1.570503    0.306464
 N    3.009634   -0.272924   -0.975910
 N    1.714909    0.092457   -0.963229
 C    5.926503    1.812690    0.067341
 C    5.727073    0.941382    1.272478
 N   -1.774627   -2.218058    1.201687
 C    0.061679   -3.284903   -0.816434
 C   -2.302927   -3.122287    0.176840
 N    0.835180   -2.602540   -1.867777
 H    5.554271   -0.282791   -0.575788
 H   -0.104159   -1.991974    2.429765
 H   -0.631014   -3.646432    2.124380
 H    1.409664   -3.416563    0.877212
 H    1.004475   -1.778116    0.394676
 H   -1.796950   -3.699429   -1.858217
 H   -1.532021   -1.999877   -1.480140
 H   -5.487340    1.032005    0.084890
 H   -5.080776    3.521729   -0.649281
 H    0.162448    2.734660   -0.332398
 H    2.927045    2.407036    0.960771
 H    5.394244    2.758856    0.024572
 H    6.903543    1.825881   -0.405788
 H    6.566804    0.353466    1.630009
 H    5.058542    1.290829    2.054270
 H    0.204091   -4.378462   -0.846289
 H   -2.297796   -4.138483    0.587894
 H   -3.337426   -2.851152   -0.038621
 H    0.611727   -2.988361   -2.782349
 H    1.050419   -0.566712   -1.378258
 H    1.833499   -2.744518   -1.722228
