46 
4zy4_ligand_xtb.xyz
 C   -1.446141    2.313887   -0.014337
 C   -2.632030    1.648693    0.327179
 C   -1.481653   -0.280965    0.567079
 C    4.006275    0.414849   -0.094612
 C    5.037848   -0.594487    0.155713
 C   -0.347793   -2.444767    0.587374
 C   -0.635830   -3.286842   -0.657348
 C   -3.069761   -3.142676   -0.119015
 C   -3.755853    2.528633    0.304539
 C   -3.412632    3.787301   -0.041145
 S   -1.725142    3.995254   -0.357177
 N   -2.652863    0.348541    0.619592
 N   -0.293053    0.277906    0.264218
 C   -0.252990    1.568534   -0.022634
 N    0.920513    2.179924   -0.327754
 C    2.191331    1.650917   -0.324822
 C    2.643076    0.395337    0.119504
 N    4.287436    1.625473   -0.628340
 N    3.197593    2.390830   -0.774509
 C    4.900020   -1.518087    1.338124
 C    4.708857   -2.051997   -0.042024
 N   -1.471214   -1.593907    0.892447
 C   -1.917864   -4.100021   -0.468479
 C   -2.706852   -2.307199    1.109931
 N   -2.152748   -4.911782   -1.651703
 H    6.039028   -0.272884   -0.107340
 H    0.521045   -1.811019    0.423794
 H   -0.166057   -3.101018    1.446353
 H    0.196447   -3.960714   -0.860146
 H   -0.755112   -2.622604   -1.516295
 H   -3.984864   -3.706689    0.075982
 H   -3.252723   -2.472031   -0.962658
 H   -4.754586    2.209776    0.537161
 H   -4.052372    4.643276   -0.137297
 H    0.872537    3.148991   -0.611007
 H    2.042866   -0.379524    0.540108
 H    4.029629   -1.396373    1.963395
 H    5.795387   -1.786259    1.877755
 H    5.471270   -2.691046   -0.460416
 H    3.707400   -2.294638   -0.361260
 H   -1.774485   -4.797990    0.366912
 H   -2.572605   -2.965913    1.975859
 H   -3.484747   -1.575515    1.325427
 H   -2.994671   -5.466241   -1.538539
 H   -2.284102   -4.315326   -2.462718
 H    5.185301    1.984104   -0.908057
