49 
4zy5_ligand_xtb.xyz
 N   -1.744997   -1.167289    0.312440
 C   -1.409466   -2.434570    0.564181
 C   -3.237061   -3.299157   -0.442608
 C    0.660498   -1.668403    1.671986
 C    3.795613   -0.221418   -1.024745
 C    2.799401   -1.257451   -1.545071
 C   -1.281961    1.677095    0.092497
 C    0.950412    3.413071    1.570673
 C   -3.701439   -2.037240   -0.738180
 C   -2.885257   -0.962799   -0.338305
 N   -2.099428   -3.520538    0.199683
 N   -0.287894   -2.671940    1.276024
 C    1.909469   -1.625801    0.777301
 C    2.903532   -0.591163    1.305868
 C    4.154211   -0.544404    0.434010
 C    1.549500   -1.302555   -0.672657
 N    4.943039   -0.169216   -1.917117
 N   -3.271518    0.310597   -0.625181
 C   -2.580909    1.481159   -0.410709
 N   -3.151602    2.637841   -0.725864
 N   -2.235926    3.572321   -0.430629
 C   -1.093287    3.043115    0.063519
 C    0.061881    3.862007    0.439965
 C    1.448935    3.339207    0.166152
 H   -3.788881   -4.185919   -0.729188
 H    0.964990   -1.861777    2.707200
 H    0.138461   -0.711913    1.634493
 H    3.328737    0.770961   -1.060540
 H    3.280012   -2.239142   -1.549839
 H    2.536370   -1.010874   -2.574031
 H   -0.613525    0.912550    0.417074
 H    0.689083    2.494121    2.072016
 H    1.358346    4.168563    2.224768
 H   -4.629758   -1.873071   -1.259653
 H   -0.031028   -3.642826    1.356535
 H    2.384398   -2.614265    0.805698
 H    3.180638   -0.833367    2.334703
 H    2.431744    0.393901    1.311060
 H    4.846169    0.209935    0.819136
 H    4.661368   -1.513329    0.469096
 H    0.858176   -2.053840   -1.058072
 H    1.040853   -0.337805   -0.714038
 H   -2.449809    4.542764   -0.589845
 H    5.614512    0.517383   -1.590264
 H    5.409552   -1.070684   -1.936748
 H   -4.168977    0.434008   -1.070964
 H   -0.097361    4.928145    0.326641
 H    1.526274    2.368854   -0.299492
 H    2.203506    4.041039   -0.154511
