49 
4zy5_ligand_dft.xyz
 N   -2.225513    0.076046    0.369025
 C   -2.873110   -1.081483    0.543826
 C   -4.819251   -0.302770   -0.282480
 C   -0.780095   -2.018567    1.501143
 C    2.744252   -1.452608   -1.026320
 C    1.401168   -1.629069   -1.731268
 C    0.091224    2.131808    0.593414
 C    3.042733    2.860464    1.850192
 C   -4.252002    0.929305   -0.558139
 C   -2.895368    1.059475   -0.217895
 N   -4.162247   -1.332806    0.253638
 N   -2.151549   -2.117631    1.047300
 C    0.304197   -2.342492    0.459251
 C    1.678482   -2.229264    1.134990
 C    2.835644   -2.429277    0.154120
 C    0.231881   -1.425177   -0.768191
 N    3.835404   -1.551043   -1.996094
 N   -2.194435    2.221629   -0.484598
 C   -0.784597    2.204739   -0.507657
 N   -0.139421    2.246346   -1.665013
 N    1.157653    2.208420   -1.306436
 C    1.352663    2.122284    0.032613
 C    2.703803    2.047342    0.620429
 C    2.902988    1.372047    1.956552
 H   -5.866835   -0.483257   -0.517727
 H   -0.665999   -2.693372    2.358394
 H   -0.622416   -0.997270    1.863622
 H    2.773596   -0.432771   -0.615643
 H    1.362301   -2.640690   -2.166419
 H    1.330781   -0.920384   -2.563355
 H   -0.177822    2.062900    1.635878
 H    2.250030    3.478152    2.261060
 H    4.036135    3.293696    1.911580
 H   -4.814805    1.730677   -1.022238
 H   -2.663476   -2.977124    1.164440
 H    0.167516   -3.383792    0.126330
 H    1.755094   -2.945187    1.963605
 H    1.764776   -1.225891    1.576921
 H    3.794997   -2.299751    0.673610
 H    2.822012   -3.457905   -0.237374
 H   -0.716488   -1.579592   -1.292491
 H    0.224425   -0.384857   -0.427792
 H    1.861808    2.204339   -2.027126
 H    4.728393   -1.515785   -1.508626
 H    3.800287   -2.465656   -2.443174
 H   -2.608769    2.808595   -1.194906
 H    3.502479    1.919100   -0.106491
 H    2.017479    0.976690    2.445399
 H    3.797587    0.771855    2.090290
