36 
4zyr_ligand_dft.xyz
 C    2.126115    2.624007    0.733240
 C    1.929845    1.116216    0.657237
 C    3.221227    0.313362    0.869245
 C    2.972113   -1.162591    0.558914
 C    2.330358   -1.299039   -0.824518
 C    1.057550   -0.464537   -0.896155
 O   -6.005729   -0.434905    0.734513
 N   -5.275047    0.289878    0.075161
 O   -5.654518    1.261998   -0.561734
 C   -3.848297   -0.027608    0.047611
 C   -2.990886    0.779273   -0.685931
 C   -1.632871    0.489593   -0.710496
 C   -1.156057   -0.619548   -0.005254
 C   -2.033334   -1.422569    0.732213
 C   -3.383556   -1.128037    0.762553
 O    0.147391   -0.994298    0.040103
 O    2.037155   -2.635622   -1.125360
 O    4.168999   -1.909300    0.599146
 O    4.287304    0.705389    0.028057
 O    1.355773    0.882854   -0.631384
 O    2.985908    3.090361   -0.296611
 H    1.149908    3.121933    0.677457
 H    2.598508    2.893231    1.681422
 H    1.215453    0.815154    1.435808
 H    3.510676    0.420512    1.926936
 H    2.300387   -1.599877    1.303820
 H    3.021028   -0.863681   -1.562708
 H    0.616476   -0.487414   -1.897586
 H   -3.389023    1.632505   -1.221133
 H   -0.953185    1.136867   -1.249660
 H   -1.632050   -2.278931    1.262204
 H   -4.081063   -1.737654    1.323336
 H    2.811304   -3.139587   -0.835414
 H    4.836182   -1.352939    0.167183
 H    4.215196    1.662200   -0.131862
 H    2.574028    2.825573   -1.131736
