47 
4zzd_ligand_xtb.xyz
 N    0.980264   -2.435402   -0.447499
 C    1.757390   -3.516976   -0.170242
 O    1.361316   -4.652885   -0.246247
 N    3.086451   -3.266663    0.222191
 C    3.698221   -2.054677    0.415577
 O    4.848907   -1.956898    0.766548
 C    2.787547   -0.909593    0.152535
 N    3.203827    0.301419    0.342039
 C    2.344368    1.319637    0.136539
 C    2.766616    2.627521    0.422517
 C    1.926238    3.701957    0.264770
 C    2.394819    5.087271    0.577773
 C    0.602161    3.477966   -0.180238
 C   -0.347029    4.622893   -0.316546
 C    0.173456    2.201331   -0.484890
 C    1.027338    1.103939   -0.354108
 N    0.656353   -0.180959   -0.659498
 C    1.458019   -1.226612   -0.315739
 C   -0.596385   -0.481099   -1.322100
 C   -1.720384   -0.830033   -0.325224
 O   -1.839963   -2.204280   -0.110980
 C   -3.054878   -0.296848   -0.867629
 O   -2.994721    1.110458   -0.885618
 C   -4.268398   -0.764880   -0.048609
 O   -5.371352   -0.033459   -0.543456
 C   -4.109964   -0.510887    1.454548
 O   -5.385285   -0.700176    2.039698
 H    3.649429   -4.092745    0.396144
 H    3.775833    2.748887    0.782820
 H    1.794292    5.524159    1.374683
 H    2.301500    5.729783   -0.296592
 H    3.434162    5.076843    0.892839
 H   -0.452573    5.146732    0.632294
 H    0.026057    5.340195   -1.046475
 H   -1.325306    4.275343   -0.635733
 H   -0.852930    2.057990   -0.783532
 H   -0.429910   -1.348751   -1.965556
 H   -0.886086    0.374805   -1.928711
 H   -1.508312   -0.303968    0.622999
 H   -0.951289   -2.607438   -0.161790
 H   -3.194329   -0.675508   -1.892357
 H   -3.917383    1.400436   -0.957261
 H   -4.416045   -1.839678   -0.210624
 H   -6.080367   -0.146844    0.103091
 H   -3.766131    0.519953    1.622538
 H   -3.379503   -1.215819    1.860773
 H   -5.295401   -0.700694    2.996645
