34 
4zzx_ligand_dft.xyz
 C    0.130081    0.360814   -0.277157
 N   -0.748801   -0.670125   -0.416149
 C    1.492216   -0.252837   -0.110907
 C    1.315499   -1.638628   -0.132686
 C    2.779335    0.292759    0.049962
 C   -0.137414   -1.974305   -0.314838
 C    3.207459    1.754929    0.100974
 O   -0.207843    1.541370   -0.292933
 O    4.393551    2.027996    0.241007
 N    2.252486    2.695561   -0.011569
 C   -2.176792   -0.471414   -0.542097
 C    2.375074   -2.521084   -0.000410
 C    3.837351   -0.609468    0.182323
 C   -2.904691   -0.553938    0.801871
 C    3.648687   -1.987952    0.159161
 O   -4.714878    0.767344    0.013709
 C   -4.411801   -0.453820    0.638900
 C   -6.090460    0.940176   -0.198903
 H   -0.317687   -2.564341   -1.223347
 H   -0.536920   -2.539606    0.538190
 H    2.563636    3.653960    0.026773
 H    1.262266    2.473732   -0.124104
 H   -2.568037   -1.225460   -1.236982
 H   -2.336394    0.512531   -0.985742
 H    2.214611   -3.595360   -0.020899
 H    4.827897   -0.186408    0.305237
 H   -2.550485    0.257967    1.445621
 H   -2.671885   -1.501835    1.303467
 H    4.504487   -2.647385    0.266167
 H   -4.906400   -0.518699    1.622482
 H   -4.786468   -1.297252    0.030383
 H   -6.502297    0.153475   -0.850963
 H   -6.651174    0.931810    0.748995
 H   -6.224851    1.909742   -0.682682
