53 
5a00_ligand_dft.xyz
 C   -4.806977   -1.035012   -0.976392
 C   -6.334243   -1.025868   -0.848732
 C   -6.815119    0.340322   -0.387347
 F   -8.161869    0.331767   -0.254160
 F   -6.503941    1.254222   -1.364028
 C   -6.170771    0.797445    0.911276
 C   -4.642901    0.792368    0.780479
 C   -4.174120   -0.597583    0.347619
 N   -2.655383   -0.705312    0.266247
 C   -1.983943    0.351949   -0.576770
 C   -0.507861    0.027641   -0.751179
 C   -1.995980   -0.797379    1.619521
 C   -0.515256   -1.127991    1.479878
 C    0.194725   -0.088959    0.610558
 N    1.603115   -0.353198    0.477917
 C    2.205499   -1.650487    0.244062
 C    2.481506    0.694850    0.311387
 O    2.111466    1.862301    0.370300
 C    3.819465    0.099584    0.050329
 C    3.645312   -1.287331    0.003788
 C    4.689300   -2.163792   -0.230387
 C    5.938404   -1.593565   -0.423024
 F    6.975813   -2.394489   -0.653859
 C    6.148563   -0.221845   -0.383066
 C    5.098101    0.659816   -0.146478
 C    5.532304    2.125859   -0.133374
 O    6.711298    2.390795   -0.306261
 N    4.589825    3.064947    0.070044
 H   -4.523707   -0.350459   -1.782619
 H   -4.468750   -2.040851   -1.253468
 H   -6.671223   -1.776399   -0.125995
 H   -6.798514   -1.256640   -1.810417
 H   -6.498896    0.131726    1.716583
 H   -6.527056    1.803471    1.144995
 H   -4.195096    1.086431    1.734674
 H   -4.360266    1.536826    0.029578
 H   -4.450152   -1.324925    1.120503
 H   -2.472230   -1.599275   -0.201673
 H   -2.116641    1.300789   -0.052532
 H   -2.509102    0.401493   -1.531198
 H   -0.047168    0.833859   -1.328611
 H   -0.385537   -0.898605   -1.329239
 H   -2.527594   -1.563667    2.187714
 H   -2.144919    0.168205    2.108334
 H   -0.404422   -2.134499    1.053299
 H   -0.075613   -1.156196    2.481292
 H    0.128135    0.889415    1.101130
 H    1.765500   -2.152685   -0.628844
 H    2.094102   -2.311681    1.112124
 H    4.563016   -3.240346   -0.265774
 H    7.141513    0.186035   -0.533830
 H    4.907937    4.022441    0.074178
 H    3.605594    2.852080    0.203566
