44 
5a0a_ligand_xtb.xyz
 F   -6.262434   -0.229881    0.706461
 C   -5.323932   -0.520309   -0.215031
 F   -5.452519    0.393171   -1.183744
 F   -5.681947   -1.701563   -0.746796
 C   -3.945657   -0.563144    0.385964
 C   -3.761885   -1.258793    1.574016
 C   -2.498968   -1.315742    2.136949
 C   -1.432620   -0.690382    1.517700
 C   -2.888546    0.074928   -0.243907
 C   -1.625299    0.010405    0.331110
 N   -0.508073    0.610961   -0.299799
 C   -0.274404    0.266247   -1.643416
 O   -1.073760   -0.368994   -2.289595
 C    0.250513    1.567114    0.363350
 C   -0.460373    2.272994    1.477454
 C    1.490658    1.864713   -0.084804
 C    2.460126    2.842096    0.440023
 O    3.356603    3.249714   -0.273208
 C    2.391545    3.261767    1.886647
 C    2.003196    1.123736   -1.310554
 N    0.889362    0.739694   -2.139221
 C    2.841874   -0.050858   -0.846798
 C    4.188738    0.141440   -0.527189
 N    4.970277   -0.806920   -0.064595
 C    4.457869   -2.024013    0.104347
 C    5.318319   -3.035362    0.612819
 N    5.974808   -3.876977    1.027595
 C    3.129902   -2.335686   -0.191829
 C    2.314968   -1.325490   -0.672570
 H   -4.599684   -1.746926    2.046922
 H   -2.344018   -1.859078    3.055820
 H   -0.442094   -0.748863    1.944655
 H   -3.041115    0.605593   -1.169496
 H   -0.209062    1.847904    2.447707
 H   -1.536616    2.188201    1.344314
 H   -0.197330    3.325504    1.485856
 H    1.729190    4.117886    1.997666
 H    2.048489    2.456550    2.527107
 H    3.387278    3.577417    2.190957
 H    2.642540    1.813163   -1.874690
 H    1.080292    0.485899   -3.097123
 H    4.650094    1.112219   -0.649099
 H    2.756725   -3.337997   -0.048495
 H    1.283913   -1.540048   -0.916504
