89 
5a2i_ligand_xtb.xyz
 N   -1.184450    1.351561   -1.179869
 C   -2.614526    1.600838   -0.934990
 C   -3.353414    0.539229   -1.769497
 O   -2.812560    0.126202   -2.784707
 C   -2.986183    2.990445   -1.442544
 N   -4.546680    0.119105   -1.346948
 C   -5.205062    0.454192   -0.099889
 C   -4.498151   -0.087593    1.158885
 O   -4.874189    0.221447    2.264339
 C   -6.585435   -0.207104   -0.231035
 C   -6.294636   -1.431526   -1.095236
 C   -5.284076   -0.892222   -2.099288
 N   -3.494727   -0.962527    0.929271
 C   -2.621824   -1.415370    1.986139
 C   -1.458629   -0.405853    2.125971
 O   -1.571566    0.731181    1.717016
 C   -2.155142   -2.840479    1.661515
 C   -1.069126   -2.764529    0.604290
 O    0.048663   -3.303785    0.999489
 O   -1.231600   -2.213405   -0.468652
 N   -0.350445   -0.857028    2.745749
 C    0.862464   -0.067023    2.764521
 C    1.405967    0.091360    1.330492
 O    0.721198   -0.193169    0.356730
 C    1.887700   -0.709683    3.705167
 O    2.922643    0.218683    3.939763
 N    2.630047    0.620901    1.249703
 C    3.385391    0.625606    0.010433
 C    4.227986   -0.668093   -0.038513
 O    4.916173   -0.963699    0.918479
 C    4.393441    1.783331   -0.051680
 C    3.797762    3.131282   -0.454588
 C    3.016764    3.826875    0.673765
 N    2.039161    4.766714    0.161647
 C    0.939665    4.341828   -0.521280
 N    0.522401    3.122910   -0.538225
 N    0.276392    5.286042   -1.238765
 N    4.235780   -1.361464   -1.192272
 C    3.195007   -1.362279   -2.204055
 C    1.899252   -1.881003   -1.578290
 O    1.934057   -2.692878   -0.675137
 C    3.701323   -2.376816   -3.241439
 C    4.443363   -3.397932   -2.382689
 C    5.104802   -2.531517   -1.317341
 O    0.808067   -1.399756   -2.102793
 H   -0.522069    2.255836   -1.009611
 H   -0.805185    0.648793   -0.529058
 H   -1.122895    0.967932   -2.137286
 H   -2.809005    1.518643    0.133895
 H   -2.479099    3.745170   -0.847496
 H   -2.705113    3.095368   -2.488288
 H   -4.056835    3.154791   -1.360376
 H   -5.299662    1.535822    0.034307
 H   -7.001724   -0.452937    0.743068
 H   -7.272774    0.463719   -0.746243
 H   -7.186144   -1.821309   -1.578881
 H   -5.850053   -2.223032   -0.491331
 H   -4.591812   -1.642613   -2.484751
 H   -5.780354   -0.416644   -2.950641
 H   -3.154429   -1.129490   -0.008020
 H   -3.202201   -1.385260    2.917066
 H   -3.003895   -3.402841    1.267963
 H   -1.776696   -3.361416    2.539770
 H    0.798645   -3.177171    0.334882
 H   -0.249352   -1.836934    2.957262
 H    0.615548    0.939042    3.129271
 H    2.283222   -1.627360    3.246641
 H    1.384396   -0.969326    4.646076
 H    3.604148   -0.189839    4.485264
 H    3.176304    0.671819    2.107405
 H    2.666143    0.682376   -0.808420
 H    5.151569    1.512512   -0.789334
 H    4.895422    1.860295    0.913793
 H    4.605272    3.787336   -0.783246
 H    3.131091    2.984966   -1.308161
 H    3.695977    4.375429    1.326551
 H    2.497822    3.087388    1.289952
 H    2.381216    5.689113   -0.057816
 H    1.094055    2.488657    0.000350
 H   -0.634994    5.046288   -1.587863
 H    0.441611    6.258034   -1.045064
 H    3.027048   -0.380075   -2.651178
 H    4.389990   -1.876874   -3.922240
 H    2.888424   -2.810724   -3.820165
 H    3.735973   -4.086072   -1.921036
 H    5.168414   -3.971280   -2.954204
 H    6.097950   -2.193697   -1.628073
 H    5.194521   -3.026386   -0.349506
 H   -0.008011   -1.713922   -1.616399
