49 
5a3n_ligand_dft.xyz
 N    2.800235    2.019319   -0.695947
 C    2.174023    1.705298    0.569239
 C    0.782433    1.743381    0.604035
 C    0.025653    1.616905    1.846737
 C   -1.292686    1.870578    1.883403
 N   -2.004219    2.313977    0.726010
 C   -1.395662    1.950790   -0.510786
 C   -2.297167    1.721781   -1.681036
 N   -3.248387    0.600707   -1.482091
 C   -2.857461   -0.460385   -0.583910
 C   -1.517715   -1.149296   -0.853298
 N   -0.939320   -1.817392    0.199797
 C   -1.390449   -1.752205    1.592703
 C   -2.551613   -2.691444    1.902310
 C    0.337107   -2.450629   -0.035454
 C    1.503961   -1.536030    0.375545
 N    2.651386   -1.644956   -0.590720
 C    3.933490   -1.195881    0.041308
 C    2.370544   -0.897257   -1.862512
 O   -1.021615   -1.171387   -1.976838
 C   -0.064004    1.776928   -0.580915
 O    2.957421    1.327166    1.487146
 H    3.763271    2.270661   -0.497519
 H    2.340765    2.788542   -1.173387
 H    0.552217    1.345511    2.756777
 H   -1.879050    1.827752    2.795963
 H   -1.656678    1.546047   -2.553256
 H   -2.905412    2.614992   -1.886041
 H   -3.471710    0.207123   -2.389280
 H   -2.993213    2.100186    0.752733
 H   -3.632556   -1.235937   -0.637851
 H   -2.874744   -0.084133    0.440653
 H   -1.609807   -0.714717    1.861659
 H   -0.532048   -2.025935    2.214419
 H   -3.454880   -2.409701    1.353860
 H   -2.301145   -3.723681    1.635137
 H   -2.785361   -2.659667    2.971461
 H    0.382735   -2.688143   -1.101441
 H    0.374735   -3.394298    0.521020
 H    1.898648   -1.780971    1.363703
 H    1.203121   -0.478795    0.386687
 H    2.753006   -2.632431   -0.832172
 H    3.752719   -0.227961    0.541769
 H    4.229696   -1.946133    0.777379
 H    4.691830   -1.113184   -0.738738
 H    1.332975   -1.069818   -2.159000
 H    2.536728    0.170122   -1.655121
 H    3.062899   -1.258394   -2.625880
 H    0.354230    1.509948   -1.549560
