44 
5a3o_ligand_xtb.xyz
 C    3.638435    0.364490   -1.236636
 C    3.279854    1.656058   -0.487675
 C    2.957040    1.344725    0.977305
 C    1.890211    0.246040    1.034862
 C    2.441670   -0.986349    0.297352
 C    1.461099   -2.167234    0.302915
 C    5.488276   -1.048739   -1.592811
 O    4.914510   -0.017331   -0.813385
 O    2.182179    2.255736   -1.121737
 O    2.482748    2.526804    1.578623
 O    1.592660   -0.000241    2.381651
 O    2.693781   -0.655235   -1.062523
 C   -0.826463   -1.350580    0.549806
 N    0.173025   -1.817353   -0.239430
 O   -0.723282   -1.315723    1.772156
 C   -2.041355   -0.939968   -0.167792
 C   -3.108746   -0.507323    0.515222
 C   -4.383438   -0.068012   -0.015206
 C   -5.424055    0.203134    0.878022
 C   -6.660209    0.617241    0.422460
 C   -6.881503    0.776221   -0.936022
 C   -5.857670    0.517762   -1.834064
 C   -4.621894    0.099305   -1.381837
 H    3.620590    0.563706   -2.320200
 H    4.156908    2.319640   -0.526831
 H    3.865563    0.990401    1.484531
 H    1.001833    0.610810    0.493746
 H    3.375569   -1.298689    0.787974
 H    1.884191   -2.978172   -0.293369
 H    1.313151   -2.503837    1.331420
 H    4.859087   -1.943322   -1.589559
 H    5.631413   -0.716337   -2.626666
 H    6.450744   -1.270531   -1.137873
 H    1.845115    2.916021   -0.498466
 H    2.082154    2.260856    2.416941
 H    0.765519   -0.524327    2.418960
 H    0.141191   -1.651256   -1.232760
 H   -2.021984   -1.008808   -1.244825
 H   -3.017326   -0.494740    1.595487
 H   -5.253665    0.079982    1.937871
 H   -7.453932    0.819256    1.126575
 H   -7.846466    1.102791   -1.294079
 H   -6.026228    0.645407   -2.893403
 H   -3.832868   -0.090081   -2.093137
