65 
5a3q_ligand_xtb.xyz
 N   -2.823244    3.086046    1.794196
 C   -1.579124    2.812649    2.139313
 N   -0.601699    2.366489    1.373155
 C   -0.965789    2.198453    0.103278
 C   -2.238278    2.500156   -0.405524
 C   -3.203854    2.929813    0.525069
 N   -4.475201    3.221645    0.195079
 N   -2.278882    2.196691   -1.746227
 C   -1.095409    1.739218   -2.025743
 N   -0.245582    1.717882   -0.959164
 P   -2.659023   -0.967479    0.721593
 P   -4.225110   -0.381497   -1.551347
 P   -5.847755   -1.783422    0.573665
 C   -5.840232   -1.067159   -1.101058
 C    1.093867    1.177511   -1.016745
 O   -2.657532   -0.357092    2.151375
 O   -4.605455    1.029760   -2.142663
 C    3.769466   -0.033199    0.281387
 O   -7.423497   -1.902839    0.775242
 C    1.649861    0.827689    0.381564
 O    3.025034    1.128171    0.487174
 O   -2.976061   -2.385169    0.522009
 O   -3.310323   -1.200705   -2.341775
 C    4.924205   -0.125004    1.263769
 N    4.637954    0.232122    2.637934
 O    5.589375    0.435306    3.351980
 O   -5.390577   -3.287584    0.471792
 C    1.577314   -0.708709    0.442623
 O    2.929366   -1.131437    0.489899
 O   -3.549893    0.051015   -0.138190
 C    6.108443   -0.657964    0.939912
 O    3.479624    0.278264    2.970054
 O   -5.192959   -1.017037    1.652856
 C    0.899513   -1.117066   -0.878616
 O    1.112266   -0.018040   -1.754965
 C    6.345034   -1.153763   -0.392141
 N    7.543881   -1.951881   -0.615497
 O    7.727981   -2.353836   -1.739116
 C   -0.577174   -1.476197   -0.696956
 O   -1.169604   -0.625130    0.279132
 C    5.473603   -0.954546   -1.394716
 O    8.257164   -2.153999    0.334661
 C    4.327030   -0.042406   -1.198161
 N    4.786928    1.381505   -1.451171
 O    5.851683    1.695619   -1.003906
 O    4.019394    2.075433   -2.055066
 H   -1.331094    2.962944    3.180378
 H   -4.833014    2.883882   -0.682664
 H   -5.114631    3.366441    0.958606
 H   -0.793191    1.396847   -2.995683
 H   -6.112595   -1.839731   -1.815357
 H   -6.577788   -0.268716   -1.126832
 H    1.748396    1.892355   -1.537801
 H   -3.556681   -0.399603    2.502091
 H   -3.778636    1.576341   -2.257773
 H   -7.645436   -2.238413    1.644453
 H    1.114437    1.352974    1.177715
 H   -4.413247   -3.293979    0.508619
 H    1.060698   -1.097164    1.318701
 H    6.887061   -0.772414    1.683440
 H    1.408104   -1.972037   -1.334463
 H   -0.671974   -2.511511   -0.361045
 H   -1.104932   -1.373515   -1.650527
 H    5.649126   -1.381352   -2.372131
 H    3.495887   -0.233326   -1.884007
