65 
5a3r_ligand_xtb.xyz
 N   -2.819877    3.103160    1.781170
 C   -1.574611    2.836003    2.127010
 N   -0.597533    2.384130    1.363695
 C   -0.962990    2.204594    0.095840
 C   -2.236407    2.500219   -0.414316
 C   -3.202049    2.934586    0.514094
 N   -4.475134    3.219167    0.184370
 N   -2.277089    2.186821   -1.752722
 C   -1.093189    1.728940   -2.029499
 N   -0.242841    1.716590   -0.963224
 P   -2.658930   -0.963072    0.724661
 P   -4.229832   -0.386971   -1.548812
 P   -5.847006   -1.785208    0.578087
 C   -5.848387   -1.060693   -1.092969
 C    1.096571    1.175775   -1.016565
 O   -2.656633   -0.346063    2.151748
 O   -4.603155    1.022435   -2.148653
 C    3.768510   -0.032816    0.285411
 O   -7.421377   -1.911730    0.785655
 C    1.649603    0.828832    0.383890
 O    3.024681    1.128746    0.492266
 O   -2.970615   -2.382970    0.532351
 O   -3.319002   -1.215979   -2.333541
 C    4.925436   -0.126266    1.264914
 N    4.642798    0.230358    2.639938
 O    5.596191    0.430803    3.352128
 O   -5.383655   -3.286600    0.466872
 C    1.576357   -0.707465    0.448000
 O    2.928256   -1.130523    0.496524
 O   -3.553248    0.050301   -0.137649
 C    6.108001   -0.661362    0.937933
 O    3.485267    0.279130    2.974367
 O   -5.190269   -1.020514    1.657254
 C    0.899816   -1.118329   -0.873022
 O    1.115431   -0.021732   -1.751809
 C    6.340831   -1.156602   -0.395027
 N    7.538536   -1.955307   -0.622833
 O    7.715453   -2.361451   -1.746133
 C   -0.577324   -1.475388   -0.692297
 O   -1.171037   -0.618634    0.277888
 C    5.467376   -0.955495   -1.395328
 O    8.258218   -2.153276    0.323348
 C    4.322613   -0.042058   -1.195427
 N    4.784441    1.381411   -1.447985
 O    5.849279    1.694128   -1.000038
 O    4.018237    2.076410   -2.052360
 H   -1.325230    2.997438    3.166083
 H   -4.833662    2.874404   -0.690266
 H   -5.113264    3.367918    0.948266
 H   -0.790966    1.380035   -2.997170
 H   -6.131875   -1.827521   -1.809099
 H   -6.579484   -0.256197   -1.109180
 H    1.752435    1.889077   -1.537931
 H   -3.554375   -0.391390    2.505260
 H   -3.774324    1.566647   -2.263464
 H   -7.638505   -2.251950    1.654296
 H    1.112872    1.356730    1.177446
 H   -4.406138   -3.289433    0.505648
 H    1.059331   -1.094136    1.324631
 H    6.888128   -0.777672    1.679496
 H    1.407983   -1.975132   -1.326000
 H   -0.673255   -2.508779   -0.350787
 H   -1.103352   -1.377782   -1.647278
 H    5.640222   -1.381494   -2.373626
 H    3.489768   -0.231026   -1.879822
