63 
5a3s_ligand_dft.xyz
 P   -6.160855   -0.929776    0.986096
 O   -7.743838   -0.961856    0.948135
 O   -5.805901   -2.326729    1.603358
 O   -5.563138    0.278933    1.605720
 P   -4.375841   -0.935179   -1.354670
 O   -4.664276    0.236580   -2.371355
 O   -3.807464   -2.194235   -1.841949
 O   -5.796863   -1.046740   -0.599739
 P   -2.670407   -0.658129    1.058698
 O   -2.843561    0.585138    2.003406
 O   -3.134828   -1.989368    1.515536
 O   -3.431598   -0.168528   -0.278924
 O   -1.132570   -0.567069    0.686386
 C   -0.496306   -1.718486    0.095535
 C    0.937770   -1.373481   -0.279814
 O    1.067823   -0.781062   -1.581315
 C    1.630763   -0.392376    0.686663
 O    2.931967   -0.835925    1.039331
 C    1.861947    0.884619   -0.141056
 O    3.260352    0.881624   -0.409629
 C    1.145516    0.614702   -1.469004
 N   -0.193271    1.199522   -1.568921
 C   -1.091381    0.790300   -2.518256
 N   -2.258452    1.368720   -2.416743
 C   -2.136245    2.209628   -1.323772
 C   -3.069829    2.982872   -0.604199
 N   -4.375467    3.067205   -0.944680
 N   -2.641679    3.666491    0.464406
 C   -1.362493    3.544857    0.830042
 N   -0.411670    2.791843    0.283085
 C   -0.859186    2.127565   -0.784436
 C    3.886929   -0.158621    0.287921
 C    4.967872    0.428457    1.171693
 C    6.245889    0.506690    0.804890
 C    6.653686   -0.053386   -0.474883
 C    5.861112   -0.795214   -1.247700
 C    4.488419   -1.139910   -0.768747
 N    4.550228    1.094131    2.404329
 N    8.026136    0.235437   -0.931683
 N    4.536767   -2.530762   -0.150098
 O    5.397826    1.278976    3.259664
 O    3.381275    1.440013    2.481084
 O    8.723751    0.903822   -0.188513
 O    8.364357   -0.208935   -2.013959
 O    5.391923   -2.733259    0.687541
 O    3.701711   -3.327659   -0.534255
 H   -8.114353   -0.101047    1.185018
 H   -4.822189   -2.430830    1.681510
 H   -3.787418    0.642937   -2.668969
 H   -3.811484    0.757971    2.090706
 H   -0.496892   -2.526320    0.831891
 H   -1.051294   -2.041790   -0.791077
 H    1.497723   -2.310243   -0.326653
 H    1.076951   -0.216827    1.606944
 H    1.573337    1.808790    0.355393
 H    1.743936    0.975337   -2.307628
 H   -0.832268    0.038025   -3.249663
 H   -4.780266    2.337122   -1.515054
 H   -4.978144    3.493197   -0.255928
 H   -1.066697    4.124550    1.700122
 H    6.979111    1.002483    1.428926
 H    6.220755   -1.196604   -2.188039
 H    3.765225   -1.217681   -1.580650
