63 
5a3s_ligand_xtb.xyz
 P    5.865452   -1.417158   -0.544089
 O    7.418067   -1.258625   -0.349359
 O    5.749109   -2.956282   -0.721880
 O    5.325028   -0.519861   -1.576099
 P    4.044350   -0.340475    1.430586
 O    4.646729    0.926473    2.123344
 O    3.081276   -1.133495    2.174099
 O    5.340692   -1.104475    0.951826
 P    2.761710   -0.789274   -0.940732
 O    2.809410   -0.085581   -2.324901
 O    3.277076   -2.152324   -0.778631
 O    3.438262    0.261461    0.068433
 O    1.217123   -0.666118   -0.608362
 C    0.646524   -1.667044    0.238789
 C   -0.826523   -1.348251    0.504742
 O   -1.018708   -0.468036    1.609269
 C   -1.508706   -0.656902   -0.694918
 O   -2.819943   -1.131429   -0.923824
 C   -1.694819    0.804408   -0.248326
 O   -3.098187    0.983212   -0.171806
 C   -1.063357    0.856018    1.156949
 N    0.248430    1.463365    1.166605
 C    1.108306    1.392229    2.225030
 N    2.234338    2.009179    2.031454
 C    2.144976    2.524585    0.759279
 C    3.051730    3.190942   -0.086748
 N    4.297648    3.543232    0.284425
 N    2.639533    3.519522   -1.312444
 C    1.421304    3.190500   -1.698855
 N    0.501914    2.528601   -1.020964
 C    0.902225    2.185313    0.201926
 C   -3.734879   -0.250049   -0.351549
 C   -4.935276   -0.028448   -1.256404
 C   -6.168460    0.174888   -0.778633
 C   -6.412568    0.156837    0.642179
 C   -5.476440   -0.229680    1.523759
 C   -4.217826   -0.831554    1.036089
 N   -4.666401    0.130293   -2.671571
 N   -7.705458    0.638111    1.115120
 N   -4.451631   -2.310830    0.775224
 O   -5.613450    0.036000   -3.413251
 O   -3.529416    0.360578   -2.999423
 O   -8.487677    1.023945    0.284090
 O   -7.889631    0.616350    2.307966
 O   -5.477862   -2.608515    0.235891
 O   -3.565303   -3.042832    1.107991
 H    7.744433   -0.451140   -0.744057
 H    4.816883   -3.195469   -0.816623
 H    3.882158    1.460207    2.445758
 H    3.732335   -0.009412   -2.599125
 H    0.734315   -2.634247   -0.260024
 H    1.191443   -1.708324    1.186743
 H   -1.340009   -2.278483    0.770201
 H   -0.942057   -0.772575   -1.616656
 H   -1.268514    1.549651   -0.925067
 H   -1.710275    1.414463    1.851147
 H    0.858370    0.860828    3.121574
 H    4.710128    3.080639    1.077147
 H    4.901539    3.872466   -0.450717
 H    1.143679    3.490681   -2.699355
 H   -6.991250    0.403181   -1.444438
 H   -5.668992   -0.190602    2.586717
 H   -3.393512   -0.764850    1.752499
