21 
5a5o_ligand_xtb.xyz
 C    3.123450    1.289386   -0.000164
 C    1.770874    0.650892   -0.000093
 C    0.620974    1.360174   -0.000160
 C   -0.663275    0.733930   -0.000041
 C   -1.865913    1.449051    0.000213
 C   -3.072813    0.788895    0.000263
 C   -3.107854   -0.604105   -0.000033
 C   -1.939275   -1.332870   -0.000269
 C   -0.709052   -0.673129   -0.000173
 N    0.471379   -1.363515   -0.000154
 C    1.735525   -0.812559    0.000122
 O    2.713641   -1.538696    0.000461
 H    3.252930    1.915829   -0.881436
 H    3.253115    1.915593    0.881250
 H    3.884437    0.513046   -0.000319
 H    0.654655    2.441662   -0.000321
 H   -1.830314    2.528508    0.000425
 H   -3.996420    1.347290    0.000495
 H   -4.058286   -1.116111   -0.000046
 H   -1.962900   -2.413072   -0.000523
 H    0.438166   -2.376560   -0.000127
