38 
5a5q_ligand_xtb.xyz
 C   -5.532489   -0.609331    0.249416
 C   -4.087260   -0.277199    0.121824
 C   -3.612660    0.982099    0.008237
 C   -2.214171    1.258710   -0.107510
 C   -1.683553    2.551482   -0.241096
 C   -0.323189    2.696593   -0.346681
 N    0.531420    1.672274   -0.299122
 C    0.057957    0.446628   -0.176457
 N    0.985492   -0.594459   -0.181950
 C    2.375625   -0.240084   -0.273597
 C    3.208697   -1.452839   -0.697275
 C    4.667708   -1.054190   -0.857274
 N    5.175775   -0.496473    0.426644
 C    4.408288    0.710034    0.850009
 C    2.947928    0.338717    1.034636
 C   -1.324375    0.173623   -0.096281
 N   -1.829148   -1.095079   -0.002099
 C   -3.170524   -1.421196    0.104372
 O   -3.495856   -2.588363    0.174090
 H   -6.147215    0.285758    0.253698
 H   -5.832494   -1.256457   -0.573858
 H   -5.698883   -1.173831    1.165948
 H   -4.292286    1.822406    0.004665
 H   -2.340049    3.405348   -0.263169
 H    0.139068    3.666619   -0.460510
 H    0.776157   -1.357208    0.447165
 H    2.425325    0.539592   -1.040994
 H    2.835728   -1.840015   -1.644415
 H    3.113642   -2.249238    0.044883
 H    4.766468   -0.284815   -1.625055
 H    5.278139   -1.913831   -1.139264
 H    6.172158   -0.269049    0.342002
 H    5.071486   -1.214702    1.154680
 H    4.506814    1.468953    0.072308
 H    4.836683    1.096188    1.776342
 H    2.834526   -0.382629    1.847536
 H    2.376278    1.231261    1.287873
 H   -1.207370   -1.889577   -0.080805
