51 
5a5r_ligand_dft.xyz
 C   -6.413857   -3.159520   -0.861465
 O   -5.042070   -2.831912   -0.994328
 C   -4.540471   -1.865510   -0.198856
 C   -5.263012   -1.155306    0.765221
 N   -4.711400   -0.209827    1.529133
 C   -3.425809    0.072236    1.363843
 C   -2.612632   -0.568633    0.417915
 C   -3.189631   -1.556691   -0.369734
 C   -1.172999   -0.236184    0.292019
 C   -0.224182   -1.233956    0.436206
 N    1.101049   -1.039337    0.318965
 C    1.536457    0.185713    0.097290
 N    2.926520    0.412607   -0.003851
 C    3.808487   -0.705908    0.241995
 C    3.861615   -1.726501   -0.909251
 C    4.809832   -2.871447   -0.595711
 N    6.183362   -2.322356   -0.276115
 C    6.171033   -1.334805    0.868220
 C    5.216617   -0.190706    0.558532
 C    0.668438    1.291640    0.000147
 N    1.156525    2.568418   -0.170188
 C    0.379731    3.712753   -0.312530
 O    0.903332    4.809274   -0.394384
 C   -1.076963    3.472965   -0.352366
 C   -1.928928    4.682181   -0.576199
 C   -1.568039    2.228161   -0.164016
 C   -0.712279    1.080989    0.049116
 H   -6.638609   -3.532834    0.144701
 H   -7.052525   -2.296542   -1.084061
 H   -6.603155   -3.947127   -1.590354
 H   -6.317959   -1.345970    0.936909
 H   -3.008579    0.834175    2.019401
 H   -2.618727   -2.085572   -1.126837
 H   -0.537376   -2.251365    0.653538
 H    3.175123    0.939022   -0.836724
 H    3.410671   -1.220985    1.123364
 H    4.166166   -1.231034   -1.842206
 H    2.861182   -2.138018   -1.063169
 H    4.927546   -3.567703   -1.428536
 H    4.492768   -3.428025    0.290350
 H    6.555346   -1.858192   -1.111106
 H    6.826368   -3.090600   -0.064380
 H    7.198973   -0.997822    1.016319
 H    5.852563   -1.899057    1.748799
 H    5.185993    0.475185    1.425029
 H    5.607041    0.400475   -0.282086
 H    2.141645    2.746904   -0.024796
 H   -1.667757    5.163320   -1.524301
 H   -2.990201    4.423628   -0.585815
 H   -1.747483    5.424436    0.207672
 H   -2.641950    2.069444   -0.179888
