51 
5a5r_ligand_xtb.xyz
 C   -6.311138   -3.247167   -0.850243
 O   -4.944799   -2.910355   -0.960723
 C   -4.461613   -1.913641   -0.184807
 C   -5.194532   -1.175596    0.747284
 N   -4.654480   -0.222044    1.483993
 C   -3.381445    0.071801    1.336421
 C   -2.551966   -0.578998    0.417368
 C   -3.110548   -1.596533   -0.341127
 C   -1.132798   -0.229056    0.289054
 C   -0.162403   -1.204750    0.412306
 N    1.145464   -0.973256    0.325401
 C    1.567687    0.263158    0.138423
 N    2.948136    0.469762    0.107747
 C    3.791241   -0.681929    0.280311
 C    3.812818   -1.621591   -0.941097
 C    4.705059   -2.818398   -0.665829
 N    6.082107   -2.345156   -0.343507
 C    6.098189   -1.464118    0.856793
 C    5.222520   -0.246018    0.606444
 C    0.678523    1.351320    0.020973
 N    1.113176    2.637744   -0.151197
 C    0.303534    3.747404   -0.322997
 O    0.811361    4.842923   -0.445881
 C   -1.132515    3.460743   -0.348646
 C   -2.024503    4.627486   -0.591604
 C   -1.585388    2.203515   -0.149524
 C   -0.701762    1.099007    0.066720
 H   -6.556776   -3.595229    0.157120
 H   -6.953268   -2.401381   -1.112003
 H   -6.470526   -4.055557   -1.561383
 H   -6.247184   -1.345751    0.919893
 H   -2.995632    0.844472    1.987312
 H   -2.526908   -2.138190   -1.070069
 H   -0.432909   -2.235658    0.591833
 H    3.261651    1.128113   -0.592772
 H    3.362334   -1.232659    1.124141
 H    4.155622   -1.081521   -1.826877
 H    2.793031   -1.961695   -1.120489
 H    4.751430   -3.482565   -1.530371
 H    4.326772   -3.379258    0.190215
 H    6.431048   -1.805008   -1.145341
 H    6.706624   -3.145912   -0.200889
 H    7.127079   -1.167337    1.067713
 H    5.715826   -2.036130    1.703958
 H    5.219831    0.384034    1.494890
 H    5.627818    0.347213   -0.217011
 H    2.102123    2.841553   -0.082721
 H   -3.070916    4.351417   -0.503588
 H   -1.789600    5.420207    0.116826
 H   -1.837423    5.031502   -1.586071
 H   -2.647108    2.005605   -0.165882
