45 
5a69_ligand_xtb.xyz
 C    1.350936    0.274131   -0.650789
 C    2.774412    0.122301   -0.076234
 C    3.491854   -0.978050   -0.885484
 C    2.768211   -2.271655   -0.524351
 C    1.262248   -2.158625   -0.640559
 C    0.604608   -2.507319    0.707391
 C    3.318668    2.517486    0.314203
 C    4.367838    3.565563    0.269160
 N    3.593728    1.321526   -0.144415
 O    4.845969   -1.019207   -0.574222
 O    3.369939   -3.228029   -0.127108
 O    0.864079   -0.918045   -1.198502
 O    1.073628   -1.612244    1.702963
 O    2.189863    2.846816    0.807544
 N   -2.892669    0.998155   -0.318109
 C   -1.793903    0.520633    0.260884
 O   -0.710442    1.330296   -0.092194
 O   -1.632301   -0.420505    0.995690
 C   -4.217304    0.521039   -0.207900
 C   -5.189309    1.147531   -0.980411
 C   -6.502614    0.721515   -0.914753
 C   -6.853070   -0.326754   -0.079706
 C   -5.883290   -0.945656    0.689927
 C   -4.564515   -0.528784    0.631679
 N    0.530745    0.862399    0.408257
 H    1.341777    0.984599   -1.490807
 H    2.700843   -0.203390    0.971882
 H    3.358412   -0.784019   -1.961621
 H    0.912241   -2.897743   -1.370804
 H    0.879819   -3.537774    0.954750
 H   -0.482048   -2.422529    0.603674
 H    3.923829    4.516076   -0.020404
 H    5.180428    3.309903   -0.403031
 H    4.771757    3.703225    1.273283
 H    4.540986    1.109112   -0.455153
 H    5.051505   -1.907572   -0.233237
 H    0.623135   -1.825627    2.528468
 H   -2.766329    1.807953   -0.912002
 H   -4.915760    1.966076   -1.630525
 H   -7.252450    1.210172   -1.517166
 H   -7.878257   -0.657879   -0.029084
 H   -6.151095   -1.760511    1.344451
 H   -3.813941   -1.011874    1.233954
 H    0.288928    0.128430    1.106213
 H    1.449095    2.126017    0.795323
