27 
5a6a_ligand_xtb.xyz
 C   -0.380095   -0.810440    0.979099
 C   -0.874710    0.653083    0.945387
 C   -0.073250    1.498858   -0.064195
 C    1.426515    1.204408    0.034374
 C    1.638401   -0.298825   -0.156933
 C    3.117261   -0.683948   -0.070472
 C   -2.596838   -0.326776   -0.151584
 C   -3.923907   -0.483160   -0.784514
 N   -2.245586    0.674477    0.526994
 S   -1.408331   -1.633242   -0.341299
 O   -0.261100    2.874104    0.158177
 O    2.135707    1.901377   -0.950596
 O    0.970329   -1.012101    0.879219
 O    3.322523   -2.039734   -0.347034
 H   -0.682228   -1.298574    1.913286
 H   -0.780591    1.107001    1.937161
 H   -0.406456    1.233554   -1.083118
 H    1.775474    1.490215    1.040826
 H    1.239706   -0.605212   -1.135132
 H    3.673191   -0.114616   -0.816076
 H    3.483862   -0.426529    0.933309
 H   -3.803493   -0.639114   -1.854996
 H   -4.524576    0.403620   -0.603397
 H   -4.425554   -1.358121   -0.375219
 H   -1.209561    3.043633    0.204080
 H    1.826309    2.816638   -0.928816
 H    2.746371   -2.550328    0.234814
