58 
5a7i_ligand_dft.xyz
 C    0.736145    0.339932    0.543174
 C    1.356595    1.482889    0.031855
 C    2.733541    1.608513    0.095359
 O    3.299782    2.780964   -0.401750
 P    4.389420    2.778181   -1.576829
 C    3.533859    0.613091    0.649556
 O    4.893201    0.812912    0.723189
 P    6.026858   -0.222658    0.147409
 C    2.908541   -0.531721    1.146069
 O    3.712157   -1.489817    1.673075
 P    3.611717   -3.060353    1.158275
 C    1.527667   -0.657561    1.112392
 C   -0.734577    0.164416    0.460670
 C   -1.597760    1.261963    0.490002
 C   -2.970478    1.082886    0.398603
 O   -3.813075    2.141513    0.261677
 P   -4.405669    3.012448    1.532629
 C   -3.514694   -0.200884    0.329870
 O   -4.859657   -0.439908    0.373699
 P   -5.959651    0.240015   -0.620688
 C   -2.646138   -1.285013    0.262371
 O   -3.169287   -2.572348    0.171892
 P   -3.765988   -3.128189   -1.212456
 C   -1.274344   -1.118513    0.322788
 O    4.521860    1.510820   -2.319571
 O    5.769961    3.217670   -0.890588
 O    4.027171    4.083741   -2.401935
 O    5.351919   -0.792836   -1.185815
 O    6.501171   -1.312534    1.011501
 O    7.159787    0.815729   -0.217681
 O    3.613964   -2.917211   -0.433122
 O    5.031881   -3.539196    1.648420
 O    2.441734   -3.799058    1.641244
 O   -5.180707    1.916657    2.398173
 O   -3.391278    3.765873    2.268554
 O   -5.495761    3.844449    0.734971
 O   -5.167976    0.562899   -1.956440
 O   -6.919724   -0.991472   -0.891025
 O   -6.658691    1.390218   -0.007569
 O   -4.401478   -4.495597   -0.707927
 O   -2.555730   -3.587377   -2.123600
 O   -4.652194   -2.194531   -1.948581
 H    0.786525    2.275899   -0.438670
 H    1.095173   -1.550869    1.549543
 H   -1.233449    2.276700    0.606996
 H   -0.639155   -1.994562    0.250383
 H    5.678362    3.882522   -0.191839
 H    3.227587    3.997860   -2.940657
 H    5.004016   -0.074664   -1.771232
 H    6.831547    1.686401   -0.510620
 H    4.326623   -2.359549   -0.798618
 H    5.710940   -2.831603    1.530927
 H   -5.918919    1.538024    1.883276
 H   -6.080769    3.240666    0.231939
 H   -4.776138   -0.254153   -2.325459
 H   -6.413994   -1.705976   -1.329182
 H   -4.888208   -4.415489    0.125111
 H   -1.982803   -4.255326   -1.719590
