58 
5a7i_ligand_xtb.xyz
 C    0.672592   -0.183116   -0.062928
 C    1.327218    0.795626   -0.808784
 C    2.711892    0.820268   -0.854744
 O    3.380252    1.798991   -1.509901
 P    4.787955    2.412256   -0.924670
 C    3.437533   -0.159316   -0.188369
 O    4.805082   -0.147147   -0.322232
 P    5.542457   -1.157013   -1.332012
 C    2.801541   -1.069952    0.642641
 O    3.548493   -1.901802    1.413548
 P    4.838872   -1.275219    2.216222
 C    1.416366   -1.090857    0.689653
 C   -0.798068   -0.229437   -0.023266
 C   -1.546802    0.945908   -0.053744
 C   -2.927288    0.889437    0.005757
 O   -3.730424    1.971348   -0.118453
 P   -3.869732    3.026030    1.144229
 C   -3.569028   -0.336469    0.148737
 O   -4.924501   -0.411602    0.338607
 P   -5.980516    0.523319   -0.490109
 C   -2.836339   -1.513397    0.092307
 O   -3.479005   -2.723333    0.105373
 P   -4.938008   -2.920437   -0.551702
 C   -1.454710   -1.459063    0.018431
 O    6.001064    1.952703   -1.608556
 O    4.676112    2.382821    0.642339
 O    4.547426    3.933588   -1.241933
 O    4.620729   -1.056657   -2.630042
 O    5.661174   -2.535696   -0.834890
 O    6.888367   -0.443379   -1.585496
 O    4.609071   -1.855853    3.665902
 O    6.066089   -2.099739    1.703811
 O    4.882520    0.189075    2.233257
 O   -4.673786    2.201010    2.234678
 O   -2.593695    3.532830    1.606647
 O   -4.863626    4.056261    0.499747
 O   -5.391479    0.708600   -1.934107
 O   -7.182534   -0.501173   -0.593341
 O   -6.411324    1.731852    0.207254
 O   -5.979788   -2.949876    0.644956
 O   -4.873017   -4.439049   -0.934338
 O   -5.260442   -2.067870   -1.705137
 H    0.774210    1.535828   -1.361741
 H    0.930865   -1.792113    1.347355
 H   -1.080060    1.915664   -0.086144
 H   -0.901773   -2.382266   -0.030197
 H    4.875148    1.583975    1.174830
 H    3.870154    4.339032   -0.699875
 H    4.679417   -1.850030   -3.161181
 H    6.737876    0.540389   -1.668996
 H    4.759234   -2.799617    3.721409
 H    6.038205   -2.345662    0.747212
 H   -5.534490    1.941333    1.875782
 H   -5.645914    3.603890    0.157894
 H   -5.171118   -0.139162   -2.342142
 H   -6.974851   -1.235956   -1.185138
 H   -6.316531   -2.092417    0.911415
 H   -4.747313   -5.021960   -0.185548
