36 
5a7j_ligand_xtb.xyz
 O   -1.289264    1.709514    1.244080
 P   -2.491977    2.061178    0.317720
 O   -2.548783    3.641676    0.193200
 O   -3.756821    1.474279    0.775603
 O   -2.080413    1.647609   -1.203310
 C   -1.112533    0.677514   -1.271597
 C    0.211051    1.068985   -1.331683
 C    1.215663    0.146840   -1.106281
 O    2.505555    0.555711   -0.904150
 P    2.653485    1.790178    0.177736
 O    3.960550    1.439428    0.960753
 O    3.101660    3.008251   -0.723404
 O    1.417417    2.057275    0.913034
 C    0.893782   -1.191072   -0.918849
 O    1.882872   -2.102326   -0.654055
 P    3.095252   -1.761741    0.347624
 O    3.463750   -3.239542    0.804166
 O    4.361853   -1.398826   -0.516020
 O    2.804033   -0.842532    1.449216
 C   -0.428904   -1.604915   -0.951475
 C   -1.443506   -0.667207   -1.086909
 O   -2.756499   -0.987181   -1.013281
 P   -3.320855   -1.912792    0.225885
 O   -3.260496   -1.007262    1.485410
 O   -4.850057   -1.957061   -0.195365
 O   -2.666996   -3.213595    0.334454
 H   -0.367611    1.992833    1.079225
 H   -3.454794    3.940736    0.132079
 H    0.456485    2.112751   -1.446101
 H    3.780454    0.612871    1.445935
 H    4.003640    2.932522   -1.035395
 H    2.880441   -3.564939    1.488794
 H    4.621583   -2.110816   -1.101877
 H   -0.684447   -2.634594   -0.763118
 H   -3.572165   -0.083518    1.316423
 H   -5.022375   -2.714405   -0.752335
