36 
5a7j_ligand_dft.xyz
 O   -1.751070    3.195741    0.714333
 P   -2.437572    2.033706   -0.132514
 O   -1.460625    1.769315   -1.356579
 O   -3.860962    2.200140   -0.466819
 O   -2.369630    0.689358    0.809133
 C   -1.232413   -0.066405    0.722537
 C   -0.044867    0.458192    1.178935
 C    1.157724   -0.075187    0.748083
 O    2.291364    0.716791    0.875931
 P    2.294763    2.003383   -0.140268
 O    3.395413    2.915811    0.549182
 O    2.835383    1.437744   -1.505344
 O    0.992044    2.698275   -0.287595
 C    1.161836   -1.264459    0.027453
 O    2.306166   -1.864027   -0.473156
 P    3.835677   -1.623312   -0.077303
 O    3.910426   -1.638379    1.510004
 O    4.437455   -3.016123   -0.563858
 O    4.505526   -0.442369   -0.673089
 C   -0.042877   -1.877259   -0.308203
 C   -1.250497   -1.249774   -0.021566
 O   -2.383090   -1.732049   -0.587058
 P   -3.882528   -1.678614    0.114469
 O   -4.660480   -0.517215   -0.637656
 O   -4.541443   -2.938496   -0.611030
 O   -3.812818   -1.736494    1.576070
 H   -0.804631    3.325004    0.510634
 H   -0.521126    2.009320   -1.197963
 H   -0.048933    1.388302    1.731866
 H    4.221501    2.448510    0.742538
 H    3.536073    0.743365   -1.375912
 H    3.627584   -2.471914    1.912575
 H    5.203072   -2.887887   -1.141110
 H   -0.036929   -2.787037   -0.896462
 H   -4.453680    0.422561   -0.420654
 H   -5.040749   -2.672505   -1.394486
