47 
5a7y_ligand_xtb.xyz
 N    2.886264    0.214713   -1.136108
 C    3.028048   -0.700729    0.021524
 C    2.431589   -2.082716   -0.273390
 C    0.919486   -2.154928   -0.110579
 S    0.010840   -1.075269   -1.294302
 C    4.541674   -0.832511    0.243317
 O    4.850133   -1.466165    1.346414
 O    5.313720   -0.390768   -0.566994
 C   -1.532931   -2.004656   -1.506330
 C   -2.592662   -1.686569   -0.451501
 O   -2.025752   -1.586806    0.848393
 C   -3.365311   -0.381938   -0.713597
 O   -4.562353   -0.699407   -1.362835
 C   -3.602504    0.178272    0.710453
 O   -4.791333   -0.295992    1.259299
 C   -2.399145   -0.384966    1.480518
 N   -1.249581    0.502756    1.466194
 C   -0.092703    0.211761    2.135040
 N    0.943396    0.888605    1.742604
 C    0.464160    1.710289    0.752955
 C    1.059793    2.597173   -0.141075
 N    2.452620    2.724134   -0.231587
 N    0.315772    3.221232   -1.036416
 C   -0.986871    2.975740   -1.069825
 N   -1.658182    2.112708   -0.334031
 C   -0.918375    1.479809    0.569522
 H    3.779573    0.144391   -1.661344
 H    2.770695    1.248856   -0.822564
 H    2.083583   -0.054327   -1.718464
 H    2.548425   -0.266809    0.909478
 H    2.713668   -2.389499   -1.283106
 H    2.865050   -2.797311    0.429135
 H    0.586666   -3.172245   -0.309022
 H    0.619600   -1.875319    0.897340
 H    5.810858   -1.558273    1.471098
 H   -1.265759   -3.060348   -1.483796
 H   -1.913730   -1.750540   -2.495012
 H   -3.319880   -2.512090   -0.452563
 H   -2.757455    0.324636   -1.293185
 H   -5.004889    0.109818   -1.646581
 H   -3.598154    1.273862    0.727170
 H   -5.259146   -0.812745    0.582713
 H   -2.657037   -0.606991    2.521763
 H   -0.067471   -0.526033    2.913621
 H    2.904235    2.767606    0.675866
 H    2.710742    3.509019   -0.822190
 H   -1.555845    3.528529   -1.802507
