58 
5a85_ligand_xtb.xyz
 C    7.491553   -0.608171   -0.232405
 C    6.004290   -0.594358   -0.185433
 C    5.249461   -1.692340    0.035960
 C    3.820649   -1.638528    0.073563
 C    3.006800   -2.753871    0.323309
 C    1.645523   -2.581151    0.351023
 N    1.050433   -1.409262    0.122599
 C    1.789828   -0.349166   -0.134049
 N    1.123627    0.866930   -0.351967
 C   -0.318389    0.795977   -0.522533
 C   -0.871367    2.117594   -1.061186
 C   -0.700408    3.246352   -0.050681
 N   -1.314034    2.842903    1.237767
 C   -0.630878    1.654515    1.803719
 C   -0.977696    0.510648    0.849191
 O   -2.387532    0.511585    0.756988
 C   -2.975889   -0.749001    0.442929
 C   -4.491901   -0.581676    0.355780
 C   -4.886184    0.310077   -0.823325
 C   -6.402741    0.460907   -0.902227
 C   -7.067485   -0.904921   -1.036333
 C   -6.678812   -1.800216    0.135493
 C   -5.162369   -1.949489    0.217403
 C    3.199777   -0.398554   -0.145911
 N    3.985822    0.702125   -0.359502
 C    5.371093    0.712429   -0.384070
 O    5.951849    1.763561   -0.557641
 H    7.830974   -0.241030   -1.200149
 H    7.887796    0.076055    0.516773
 H    7.884862   -1.605767   -0.062085
 H    5.718591   -2.653083    0.192814
 H    3.451354   -3.719901    0.495292
 H    0.969900   -3.399540    0.552677
 H    1.561736    1.405000   -1.091004
 H   -0.589193   -0.022105   -1.204261
 H   -0.373264    2.388102   -1.992260
 H   -1.931029    1.978413   -1.280821
 H   -1.182384    4.156011   -0.413164
 H    0.357324    3.450765    0.126486
 H   -1.336731    3.623400    1.898960
 H   -2.274431    2.498277    1.055261
 H    0.446378    1.810903    1.844439
 H   -1.021897    1.449426    2.800315
 H   -0.596807   -0.443913    1.227393
 H   -2.580474   -1.118105   -0.510033
 H   -2.715462   -1.470328    1.227366
 H   -4.833417   -0.110672    1.283804
 H   -4.519295   -0.138768   -1.749294
 H   -4.421844    1.294170   -0.716918
 H   -6.665752    1.089458   -1.754714
 H   -6.766745    0.953475    0.002349
 H   -8.151101   -0.787381   -1.070296
 H   -6.752099   -1.372294   -1.971396
 H   -7.051788   -1.365067    1.065107
 H   -7.136256   -2.783433    0.020306
 H   -4.796067   -2.437755   -0.688200
 H   -4.897184   -2.579688    1.068332
 H    3.559718    1.613003   -0.471427
