52 
5a8x_ligand_xtb.xyz
 C    1.584253    1.214312   -0.617907
 C    1.844298    0.017542   -1.520270
 C    0.366654    1.383750   -0.038751
 N   -0.682579    0.548098   -0.380069
 C    0.035575    2.516215    0.880508
 C    2.405478   -1.119113   -0.684326
 C    1.570151   -2.036877   -0.057044
 C    2.098435   -3.036132    0.736463
 C    3.478604   -3.121882    0.915782
 C    4.320869   -2.201214    0.290884
 C    3.781969   -1.210546   -0.504341
 C    2.758296    2.075113   -0.462800
 O    3.792559    1.887595   -1.071064
 O    2.616492    3.084292    0.408119
 C    3.757309    3.930195    0.566851
 C    3.396419    5.042028    1.533263
 C    4.023334   -4.140024    1.731910
 N    4.464465   -4.962786    2.397074
 N    0.608551   -0.334790   -2.157166
 C   -0.602174   -0.128639   -1.589910
 N   -1.580756   -0.600411   -2.319815
 C   -0.977441   -1.142979   -3.414735
 C    0.374926   -0.991762   -3.335622
 C   -1.785141    0.318759    0.460869
 C   -1.578380    0.128835    1.827177
 C   -2.646799   -0.128067    2.664550
 C   -3.931388   -0.215749    2.155468
 C   -4.128611   -0.041960    0.792116
 C   -3.070064    0.223402   -0.062933
 C   -5.513553   -0.172806    0.220927
 F   -6.469292    0.169092    1.101807
 F   -5.706600    0.592588   -0.861876
 F   -5.788301   -1.436536   -0.152676
 H    2.585808    0.300095   -2.277415
 H    0.327054    3.453545    0.412020
 H   -1.028720    2.545467    1.096045
 H    0.592282    2.442299    1.812018
 H    0.499551   -1.986052   -0.192856
 H    1.449340   -3.751602    1.219228
 H    5.389143   -2.272809    0.430681
 H    4.425803   -0.488780   -0.983209
 H    4.042620    4.328179   -0.413316
 H    4.592919    3.329118    0.942720
 H    4.253101    5.694642    1.671950
 H    3.108374    4.625741    2.494770
 H    2.566347    5.625320    1.143783
 H   -1.566543   -1.602718   -4.180901
 H    1.169569   -1.278650   -3.991232
 H   -0.575618    0.169144    2.225137
 H   -2.476771   -0.274970    3.719678
 H   -4.769050   -0.419288    2.803538
 H   -3.225769    0.334744   -1.123334
