46 
5aae_ligand_xtb.xyz
 C    7.872384  -22.996179   -6.512650
 C    8.250391  -24.236309   -5.795720
 C    7.523795  -25.144796   -5.078513
 C    8.489202  -26.092644   -4.656630
 C    8.262338  -27.325909   -3.847664
 N    7.079476  -28.012074   -4.292968
 C    6.777823  -28.362276   -5.555521
 C    5.528342  -28.956514   -5.521321
 C    4.745803  -29.508665   -6.614333
 C    4.656975  -28.949366   -7.891086
Cl    5.501934  -27.484819   -8.260776
 C    3.869132  -29.529050   -8.888377
 N    3.159711  -30.625996   -8.735569
 C    3.216491  -31.193734   -7.537961
 N    2.593091  -32.330719   -7.131210
 C    2.949980  -32.511750   -5.883642
 C    2.510961  -33.614303   -5.080044
 C    1.695073  -34.648671   -5.520192
 N    1.514945  -35.475044   -4.482444
 C    0.750585  -36.687982   -4.446177
 N    2.155518  -35.050694   -3.394717
 C    2.768998  -33.927983   -3.719177
 C    3.577663  -33.191711   -2.710050
 N    3.793981  -31.528832   -5.424996
 C    3.986963  -30.664290   -6.462595
 C    5.168388  -28.904900   -4.157963
 N    6.108977  -28.324814   -3.442324
 N    9.675714  -25.762362   -5.096358
 O    9.539091  -24.614208   -5.795331
 H    8.290682  -23.005441   -7.517134
 H    6.791134  -22.917043   -6.568325
 H    8.269416  -22.125854   -5.991462
 H    6.472645  -25.150882   -4.883633
 H    9.144164  -27.970300   -3.927703
 H    8.102747  -27.072003   -2.795393
 H    7.455843  -28.193993   -6.366417
 H    4.256220  -29.224786   -3.693808
 H    3.817816  -29.067342   -9.864637
 H    4.215905  -31.475842   -4.513782
 H    1.264658  -34.809223   -6.486129
 H    0.816137  -37.089414   -3.437177
 H   -0.293782  -36.490649   -4.692981
 H    1.151387  -37.415637   -5.153894
 H    3.522039  -33.724728   -1.764848
 H    4.623405  -33.134550   -3.013864
 H    3.191857  -32.182724   -2.563506
