46 
5aan_ligand_dft.xyz
 C    2.753828   -1.493599    0.468289
 C    3.314752   -2.766456    0.555868
 C    2.861725   -3.775845   -0.287744
 C    1.870330   -3.518473   -1.232985
 C    1.319911   -2.245439   -1.330445
 C    1.749279   -1.241874   -0.469345
 C    2.036896    1.173879   -0.480961
 C    1.853384    2.242665   -1.350921
 C    2.687014    3.351961   -1.263570
 C    3.712542    3.377645   -0.320169
 C    3.917574    2.297441    0.532498
 C    3.073469    1.191212    0.455558
 C   -1.166387    0.355693   -0.025679
 C   -2.196127    0.562834    1.104335
 C   -3.912478   -1.129315    0.472229
 C   -5.390825   -1.306660    0.106156
 C   -5.870019   -0.169321   -0.796416
 C   -5.790815    1.177347   -0.049976
 C   -4.639036    1.202639    0.965320
 N    1.134842    0.055707   -0.548032
 N    0.093899    0.182675    0.382773
 N   -3.521434    0.334177    0.471841
 O   -1.572217    0.384372   -1.180038
 S    3.291457   -0.191147    1.554251
 H    4.109000   -2.961163    1.269708
 H    3.302610   -4.765059   -0.219188
 H    1.537783   -4.305876   -1.901229
 H    0.556302   -2.006905   -2.063959
 H    1.053301    2.185084   -2.081983
 H    2.546261    4.190244   -1.937719
 H    4.372775    4.236713   -0.259515
 H    4.736137    2.306720    1.245358
 H   -2.144718    1.596411    1.456709
 H   -2.061209   -0.108061    1.954553
 H   -3.248672   -1.608724   -0.250823
 H   -3.693151   -1.519653    1.468606
 H   -6.000315   -1.335914    1.015645
 H   -5.508787   -2.275994   -0.384147
 H   -6.895660   -0.352406   -1.123312
 H   -5.260781   -0.139389   -1.708769
 H   -6.717911    1.364334    0.499014
 H   -5.673776    1.998179   -0.763280
 H   -4.930404    0.810482    1.943214
 H   -4.244289    2.210670    1.104161
 H    0.331005    0.168945    1.372198
 H   -3.312329    0.568819   -0.521275
