49 
5aba_ligand_xtb.xyz
 N   -3.976372    0.488354    0.563746
 C   -4.223760   -0.194647   -0.695536
 C    4.606763   -0.556878   -0.643423
 C    2.648045   -1.098751    0.658938
 N    0.360955   -2.001488    0.815941
 O    1.168782    0.614069    1.360193
 C    4.309163    0.794525   -0.585376
 C    1.753615   -2.087063    1.339214
 C    0.264129   -2.362619   -0.614749
 C    3.802173   -1.502962   -0.041088
 C   -4.671167    1.761546    0.621954
 C    3.148854    1.185442    0.101668
 C   -6.182088    1.633915    0.397402
 C   -6.453155    0.934757   -0.933754
 O   -7.854492    0.779561   -1.065183
 C   -5.715659   -0.406706   -0.971535
 C    2.318134    0.261708    0.714397
 C   -2.238449   -2.602485   -0.326520
 C   -2.039153   -2.375088    1.141675
 C   -0.616290   -2.767038    1.615576
Cl    6.021344   -1.067565   -1.494927
Br    2.688421    3.040797    0.192712
 C   -1.141035   -1.959183   -1.121380
 H   -4.314463   -0.104194    1.318532
 H   -3.688723   -1.166998   -0.670433
 H   -3.791763    0.421125   -1.490865
 H    0.088078   -1.008088    0.890618
 H    1.079863    1.580589    1.350388
 H    4.939887    1.529231   -1.054123
 H    1.705845   -1.875273    2.412507
 H    2.120280   -3.104390    1.192279
 H    0.410442   -3.440978   -0.705500
 H    1.059455   -1.844939   -1.156837
 H    4.056139   -2.548126   -0.093407
 H   -4.240529    2.404709   -0.152429
 H   -4.474402    2.219674    1.594788
 H   -6.657515    2.614903    0.398662
 H   -6.631364    1.039079    1.195813
 H   -6.076155    1.571088   -1.754190
 H   -8.031228    0.243183   -1.845501
 H   -6.140685   -1.064928   -0.209266
 H   -5.847791   -0.884113   -1.945466
 H   -2.387012   -3.651191   -0.579977
 H   -2.761167   -2.947158    1.724973
 H   -2.175287   -1.313746    1.379220
 H   -0.466301   -2.529396    2.672169
 H   -0.434752   -3.832160    1.457457
 H   -1.216035   -2.227971   -2.174997
 H   -1.209509   -0.867172   -1.048234
