46 
5abf_ligand_dft.xyz
 O    2.587534    2.366705    0.046414
 C    1.381531    2.371425    0.293379
 N    0.656613    3.501108    0.322362
 C    1.267938    4.808996    0.133103
 C    0.621557    1.072010    0.573679
 C    0.848418    0.077754   -0.566380
 C    2.326478   -0.430045   -0.702144
 O    3.093091   -0.227896    0.441859
 C    2.171079   -1.943943   -0.906939
 O    1.703398   -2.223691   -2.214257
 C    0.997661   -2.315854   -0.007726
 C    1.292494   -2.384972    1.481731
 O    0.114441   -2.817524    2.124153
 N    0.032130   -1.219230   -0.429353
 C   -1.303336   -1.163343    0.250829
 C   -2.312579   -0.378640   -0.575989
 C   -3.665129   -0.293006    0.135913
 C   -4.704373    0.490192   -0.667911
 C   -6.050297    0.581753    0.047711
 H   -0.313273    3.461804    0.594379
 H    0.502412    5.513270   -0.194727
 H    2.042328    4.732597   -0.630801
 H    1.723206    5.170822    1.059754
 H   -0.443995    1.276518    0.699178
 H    1.000958    0.666992    1.515845
 H    0.515606    0.527123   -1.504536
 H    2.784968    0.036633   -1.581807
 H    3.268053    0.736244    0.471478
 H    3.090976   -2.479775   -0.656755
 H    2.409285   -2.068332   -2.854106
 H    0.546614   -3.261205   -0.319476
 H    2.110981   -3.109352    1.594497
 H    1.656904   -1.427069    1.865986
 H    0.318221   -3.026325    3.043387
 H   -0.155669   -1.480613   -1.403860
 H   -1.622511   -2.198840    0.381340
 H   -1.156162   -0.754253    1.250010
 H   -2.444462   -0.865719   -1.552174
 H   -1.947073    0.636165   -0.780948
 H   -3.530552    0.181006    1.118032
 H   -4.040674   -1.306127    0.329979
 H   -4.321950    1.500670   -0.864924
 H   -4.838695    0.013525   -1.647290
 H   -5.947782    1.072698    1.021764
 H   -6.476407   -0.412942    0.216733
 H   -6.768866    1.156637   -0.542923
