58 
5adq_ligand_dft.xyz
 C    5.521438   -0.740373    0.437218
 N    4.499617   -0.207922   -0.308267
 O    5.442809   -1.726037    1.150577
 C    6.794065   -0.001448    0.314738
 N   -1.833919   -0.939117   -1.217615
 O    6.852541    1.099428   -0.487811
 C    8.117977    1.571555   -0.414676
 O   -1.232048   -3.054702   -0.637391
 C    8.870234    0.801270    0.414020
 O   -3.051071    4.950474    0.002594
 C    8.004438   -0.227826    0.891376
 O   -5.410022   -2.969657    1.221454
 C    3.175271   -0.656528   -0.421750
 C    2.690195   -1.797264    0.228703
 C    1.364393   -2.166936    0.053184
 C    0.495520   -1.420770   -0.742895
 C    0.992634   -0.291824   -1.398202
 C    2.316580    0.085941   -1.241250
 C   -0.922743   -1.890383   -0.859077
 C   -3.253812   -1.212832   -1.254110
 C   -4.013615   -0.682906   -0.007243
 C   -3.762427    0.826972    0.067583
 C   -2.882851    1.399198    0.984526
 C   -2.613950    2.769576    1.002649
 C   -3.233185    3.607535    0.079293
 C   -2.187352    5.552557    0.939561
 C   -4.112487    3.054893   -0.857760
 C   -4.363264    1.694453   -0.859122
 C   -3.543399   -1.408574    1.271006
 C   -4.003968   -2.862744    1.329314
 C   -5.863141   -2.457440   -0.008155
 C   -5.524630   -0.975083   -0.170627
 H    4.734571    0.616035   -0.844442
 H   -1.563727    0.030745   -1.142988
 H    8.325730    2.451702   -1.002964
 H    9.912745    0.947611    0.655074
 H    8.232217   -1.035359    1.570591
 H    3.351211   -2.377969    0.856184
 H    0.979927   -3.057423    0.539406
 H    0.360835    0.286248   -2.066658
 H    2.691885    0.960850   -1.766809
 H   -3.358045   -2.293699   -1.356501
 H   -3.679088   -0.748587   -2.152032
 H   -2.380384    0.778318    1.718269
 H   -1.923832    3.158771    1.742538
 H   -2.539641    5.400448    1.967958
 H   -1.162879    5.168247    0.849282
 H   -2.191919    6.619153    0.712002
 H   -4.588707    3.714675   -1.575712
 H   -5.047675    1.300875   -1.605304
 H   -3.954167   -0.883981    2.142296
 H   -2.451517   -1.386251    1.355857
 H   -3.507681   -3.455846    0.546956
 H   -3.738399   -3.298977    2.295701
 H   -6.947885   -2.596419   -0.021376
 H   -5.443036   -3.046161   -0.841525
 H   -5.887592   -0.639392   -1.149864
 H   -6.072034   -0.406510    0.590043
