52 
5aeh_ligand_xtb.xyz
Cl    4.019555    2.050545    1.465743
 C    3.214278    1.979789   -0.068287
 C    2.710656    3.142656   -0.626000
 C    2.032839    3.093396   -1.831556
 C    1.863836    1.882651   -2.482422
 C    2.378875    0.723904   -1.933779
 C    3.057069    0.752485   -0.717818
 N    3.564165   -0.438447   -0.163461
 C    4.909595   -0.503434    0.191671
 N    5.232502   -1.333929    1.173244
 C    6.505257   -1.400523    1.507135
 N    7.496585   -0.711516    0.976273
 C    7.172598    0.127022   -0.000122
 C    5.876080    0.278171   -0.451432
 C    2.772491   -1.598699   -0.128733
 O    3.252958   -2.701916   -0.170708
 C    1.315525   -1.335239   -0.057516
 C    0.793250   -0.340612    0.766259
 C   -0.568505   -0.147447    0.837376
 C    0.442236   -2.147600   -0.776013
 C   -0.921434   -1.946348   -0.724231
 C   -1.441217   -0.933802    0.080937
 N   -2.801435   -0.661681    0.176074
 C   -3.853486   -1.265520   -0.466855
 O   -3.739431   -2.209020   -1.219822
 C   -5.175007   -0.663907   -0.141541
 C   -6.296298   -1.494437   -0.186899
 C   -7.548880   -1.002136    0.091158
 C   -7.724607    0.349949    0.402838
 O   -8.997134    0.738306    0.658302
 C   -9.250626    2.091071    0.955957
 C   -6.614208    1.190016    0.421150
 C   -5.355119    0.682435    0.154647
 H    2.844261    4.077959   -0.106073
 H    1.638504    4.001663   -2.259617
 H    1.338744    1.839808   -3.423758
 H    2.264056   -0.221152   -2.442314
 H    6.755672   -2.084229    2.307623
 H    7.990032    0.689170   -0.433356
 H    5.620424    0.952114   -1.253251
 H    1.449616    0.263453    1.373635
 H   -0.967795    0.620007    1.486206
 H    0.850544   -2.938405   -1.386934
 H   -1.590922   -2.567315   -1.295034
 H   -3.037011    0.072741    0.829103
 H   -6.156054   -2.533573   -0.441779
 H   -8.419007   -1.638384    0.069502
 H   -8.726791    2.408551    1.863105
 H   -8.969409    2.744393    0.123979
 H  -10.324777    2.159679    1.119138
 H   -6.717909    2.242060    0.635616
 H   -4.519675    1.369208    0.143942
