43 
5ael_ligand_dft.xyz
 C    5.220169   -1.589424    0.454188
 C    5.157224   -0.062983    0.481177
 C    3.722710    0.450600    0.385760
 C    3.608996    1.984736    0.412152
 C    2.214193    2.406480    0.293578
 C    1.031136    2.643354    0.194953
 C   -0.369463    2.799583    0.003565
 C   -1.239409    3.159564    0.975265
 C   -2.658917    2.935424    0.794978
 C   -3.053870    2.045894   -0.146197
 N   -2.189458    1.599190   -1.132595
 C   -2.076852    0.172773   -1.325097
 C   -1.161887   -0.508190   -0.245689
 P   -2.102592   -1.526069    0.930514
 O   -3.417217   -1.017655    1.352558
 O   -1.092056   -1.825808    2.131807
 O   -2.210889   -2.934123    0.086942
 P    0.292529   -1.293159   -1.011623
 O    1.063400   -1.883138    0.308975
 O   -0.248015   -2.575267   -1.792081
 O    1.131602   -0.408411   -1.838043
 C   -0.987641    2.413700   -1.330792
 H    4.667803   -2.021087    1.298635
 H    4.785236   -1.983039   -0.472593
 H    6.250666   -1.952388    0.516444
 H    5.743816    0.343921   -0.352254
 H    5.622667    0.311066    1.402323
 H    3.135230    0.053895    1.227956
 H    3.257363    0.095033   -0.542758
 H    4.200284    2.406101   -0.410994
 H    4.043345    2.374176    1.341845
 H   -0.880236    3.483814    1.947622
 H   -3.372159    3.308303    1.519753
 H   -4.041963    1.594297   -0.147378
 H   -1.677822   -0.016451   -2.325926
 H   -3.082870   -0.255416   -1.289217
 H   -0.736536    0.289123    0.377474
 H   -0.182986   -1.980935    1.809549
 H   -2.982851   -3.446798    0.367246
 H    1.990538   -1.597293    0.311706
 H   -0.951444   -3.041012   -1.299916
 H   -0.278799    1.855049   -1.945846
 H   -1.285059    3.319872   -1.877181
