43 
5ael_ligand_xtb.xyz
 C    8.706384   -0.622896   -0.080906
 C    7.407935   -1.399112    0.100109
 C    6.183577   -0.506138   -0.082227
 C    4.880162   -1.293666    0.093986
 C    3.721204   -0.445162   -0.088277
 C    2.781275    0.294957   -0.233086
 C    1.666808    1.135055   -0.400409
 C    1.584376    2.366922    0.132513
 C    0.388981    3.141589   -0.049595
 C   -0.712568    2.533971   -0.513651
 N   -0.719295    1.183804   -0.824871
 C   -1.926677    0.648904   -1.403766
 C   -2.924939    0.459062   -0.269443
 P   -4.055978   -0.917135   -0.665688
 O   -4.620154   -0.931944   -2.008562
 O   -5.162383   -0.990900    0.464485
 O   -3.095865   -2.208796   -0.405376
 P   -1.909976    0.145998    1.236998
 O   -3.071932   -0.584180    2.149287
 O   -0.920462   -1.048863    0.918314
 O   -1.326423    1.238864    1.999037
 C    0.542180    0.633292   -1.282254
 H    8.751645   -0.181561   -1.074346
 H    8.777633    0.178133    0.651622
 H    9.565198   -1.278700    0.042668
 H    7.387473   -1.842365    1.098961
 H    7.371120   -2.216055   -0.625148
 H    6.200716   -0.059655   -1.079198
 H    6.210905    0.308269    0.645036
 H    4.848599   -1.728861    1.098277
 H    4.843961   -2.113487   -0.630584
 H    2.389558    2.767150    0.728262
 H    0.366121    4.174593    0.250884
 H   -1.664440    3.038337   -0.586973
 H   -1.704133   -0.323743   -1.851993
 H   -2.342195    1.287917   -2.194810
 H   -3.519550    1.354458   -0.085627
 H   -4.775609   -0.980569    1.348962
 H   -3.350724   -2.888230   -1.033546
 H   -2.898863   -0.348272    3.062806
 H   -1.381871   -1.799774    0.529565
 H    0.492686   -0.457553   -1.228843
 H    0.741707    0.916273   -2.336959
