39 
5aen_ligand_xtb.xyz
 C   -5.231924    1.086635    1.372711
 N   -4.923941    0.839248   -0.044889
 O   -2.590841   -0.230602   -0.306576
 C    4.732312    1.802749    0.736579
 O    2.815618   -1.277074    0.139390
 C    5.882240    1.514253    0.021568
 C    5.989722    0.309948   -0.653906
 C    4.948329   -0.599282   -0.627702
 C    3.792176   -0.300699    0.081971
 C    3.685284    0.899130    0.774253
 C    1.504160   -0.961389    0.047738
 C    1.014220    0.193090   -0.563118
 C   -0.346289    0.398029   -0.662187
 C   -1.236351   -0.543186   -0.161857
 C   -0.762638   -1.698550    0.437464
 C    0.600385   -1.901905    0.538980
 C   -3.551790   -1.189333    0.074675
 C   -4.898596   -0.608839   -0.372768
 C   -5.825653    1.599695   -0.921840
 H   -6.245852    0.755020    1.592576
 H   -4.535164    0.551180    2.013125
 H   -5.154527    2.149642    1.592763
 H   -3.940566    1.125380   -0.219067
 H    4.649095    2.733754    1.276710
 H    6.695249    2.223035   -0.002130
 H    6.887286    0.076216   -1.205366
 H    5.016211   -1.543958   -1.143754
 H    2.795377    1.113359    1.348904
 H    1.697271    0.920055   -0.974186
 H   -0.728186    1.286301   -1.140702
 H   -1.430154   -2.448911    0.829879
 H    0.984894   -2.798525    0.996967
 H   -3.524995   -1.356854    1.160141
 H   -3.381924   -2.148580   -0.426681
 H   -4.983317   -0.712778   -1.455880
 H   -5.733664   -1.122701    0.103445
 H   -5.534517    1.480151   -1.963488
 H   -6.847746    1.244664   -0.796254
 H   -5.788930    2.658147   -0.670664
