30 
5aes_ligand_xtb.xyz
 O   -4.079211    0.086534    1.444385
 P   -3.168887    0.029450    0.117553
 O   -3.966040   -0.925455   -0.901986
 O   -2.976111    1.352807   -0.446932
 C   -1.636843   -0.875991    0.577468
 C   -0.776403   -1.024513   -0.683346
 C    0.689571   -0.859456   -0.394361
 C    1.516104   -1.973506   -0.372968
 N    2.809393   -1.934095   -0.104821
 C    3.376454   -0.770244    0.141954
 C    4.839501   -0.744644    0.441650
 C    2.641961    0.430060    0.132644
 O    3.306612    1.575560    0.392390
 C    1.268227    0.386238   -0.121553
 C    0.441535    1.649934   -0.042409
 O    1.137491    2.750382   -0.617492
 H   -4.257772   -0.740631    1.890739
 H   -4.082241   -1.839642   -0.644759
 H   -1.843464   -1.842645    1.036627
 H   -1.130453   -0.257799    1.317805
 H   -1.098604   -0.277733   -1.414111
 H   -0.940840   -2.006872   -1.129927
 H    1.118792   -2.958327   -0.582713
 H    5.007144   -0.351334    1.442757
 H    5.243137   -1.749229    0.368214
 H    5.348923   -0.085560   -0.258725
 H    2.726910    2.323231    0.165673
 H    0.236705    1.868158    1.020460
 H   -0.519110    1.515104   -0.542538
 H    0.515864    3.474313   -0.736447
