31 
5afl_ligand_xtb.xyz
 C   -2.227941   -0.926103    0.003265
 C   -1.333254    0.140239   -0.043238
 N    0.028056   -0.164197   -0.084147
 C    1.101221    0.700196   -0.067265
 N    2.313583    0.081045   -0.133804
 C    2.589552   -1.342020   -0.124758
 C    4.116641   -1.424720   -0.193539
 C    4.562854   -0.131755    0.485591
 C    3.529936    0.868679   -0.018996
 O    1.014503    1.910617   -0.008053
 C   -1.825094    1.442186   -0.051493
 C   -3.190293    1.651101   -0.011206
 C   -4.074796    0.587357    0.037617
 C   -3.597834   -0.716156    0.045257
 C   -4.531170   -1.888729    0.106935
 H   -1.847839   -1.940278    0.007891
 H    0.229591   -1.151698   -0.098568
 H    2.124458   -1.845878   -0.979496
 H    2.222811   -1.804237    0.803013
 H    4.441932   -1.426960   -1.234155
 H    4.500525   -2.318356    0.294439
 H    5.579210    0.152495    0.223916
 H    4.492337   -0.232518    1.569216
 H    3.359954    1.710116    0.654502
 H    3.810922    1.266948   -1.001370
 H   -1.137506    2.269444   -0.086467
 H   -3.569491    2.662447   -0.018423
 H   -5.139132    0.769543    0.070039
 H   -4.330375   -2.581715   -0.708938
 H   -4.397441   -2.429538    1.043703
 H   -5.566392   -1.564354    0.041770
