47 
5ahu_ligand_xtb.xyz
 C    7.745301    0.688997   -0.521390
 C    7.818904   -0.812759   -0.769149
 C    6.746421   -1.622476   -0.038193
 C    5.310993   -1.322418   -0.492139
 C    4.588733   -0.333796    0.423625
 C    3.175667   -0.038221   -0.082290
 C    2.446788    0.907287    0.870481
 N    1.173087    1.357613    0.349170
 C    0.644430    2.601109    0.521854
 C   -0.577675    2.610717   -0.075130
 N   -0.773073    1.372026   -0.609053
 C    0.301127    0.632793   -0.337697
 C   -1.991767    0.896035   -1.223625
 C   -3.015284    0.572350   -0.147109
 P   -2.240210   -0.585145    1.072511
 O   -1.346891   -1.524834    0.398001
 O   -3.388573   -1.152354    1.990102
 O   -1.476184    0.363770    2.104370
 P   -4.467450   -0.387148   -0.741659
 O   -3.928800   -1.873258   -0.899884
 O   -4.692383    0.145936   -2.234218
 O   -5.614758   -0.317319    0.145368
 H    6.845920    1.116773   -0.958371
 H    7.756633    0.901955    0.545556
 H    8.601923    1.182275   -0.974129
 H    8.795551   -1.173276   -0.440741
 H    7.743806   -1.005317   -1.841607
 H    6.831959   -1.448427    1.036089
 H    6.956668   -2.678882   -0.212448
 H    4.736443   -2.250704   -0.510222
 H    5.328695   -0.930889   -1.510952
 H    5.155615    0.594630    0.486480
 H    4.529311   -0.757828    1.427761
 H    2.629865   -0.978622   -0.166696
 H    3.234048    0.416190   -1.073811
 H    3.059821    1.791724    1.058647
 H    2.269632    0.402768    1.825573
 H    1.159339    3.379740    1.046759
 H   -1.296616    3.399199   -0.164292
 H    0.413813   -0.399373   -0.604539
 H   -1.752273   -0.012422   -1.780284
 H   -2.373484    1.651865   -1.914864
 H   -3.391050    1.467465    0.346251
 H   -4.001860   -1.768388    1.580602
 H   -1.990243    0.529451    2.897840
 H   -3.390745   -2.106277   -1.657982
 H   -5.619090    0.340065   -2.389550
