34 
5ahw_ligand_xtb.xyz
 P    3.384092    0.952293   -0.094114
 O    4.876675    0.728679   -0.531931
 O    2.861913    2.310014   -0.202500
 O    3.375440    0.325367    1.391064
 C    2.111968   -0.034132    1.929049
 C    1.505087   -1.038509    0.962607
 O    0.220014   -1.516674    1.269383
 C    1.345787   -0.368787   -0.402593
 O    2.609806   -0.151228   -0.997212
 C    0.462525   -1.388240   -1.121792
 O    1.199219   -2.460076   -1.636371
 C   -0.417671   -1.893957    0.051857
 N   -1.742270   -1.356144    0.033068
 C   -2.911907   -2.036054    0.270729
 N   -3.966631   -1.288528    0.284141
 C   -3.501616   -0.015391    0.059772
 C   -4.121564    1.244185   -0.035821
 N   -5.447407    1.415304    0.081012
 N   -3.351648    2.312479   -0.262815
 C   -2.046987    2.150463   -0.393069
 N   -1.347965    1.031134   -0.327591
 C   -2.106021   -0.040019   -0.092909
 H    5.282635    1.576884   -0.711784
 H    2.300227   -0.464561    2.915075
 H    1.463980    0.844075    2.021170
 H    2.208581   -1.882672    0.857695
 H    0.790659    0.574653   -0.298299
 H   -0.155743   -0.926581   -1.902569
 H    2.021039   -2.103062   -2.000296
 H   -0.492465   -2.989385   -0.000541
 H   -2.922498   -3.097980    0.418387
 H   -6.028181    0.624534    0.291489
 H   -5.825273    2.344443    0.038070
 H   -1.475042    3.049526   -0.577811
