36 
5ai1_ligand_xtb.xyz
 C    4.472273   -0.153944    0.120504
 C    3.702306    0.980992    0.149644
 C    2.305936    0.911111   -0.010229
 C    1.677600   -0.350200   -0.212069
 C    2.500528   -1.496143   -0.222443
 C    3.854327   -1.404317   -0.064974
 C    1.517725    2.078346    0.033171
 C    0.159738    2.010769   -0.115745
 C   -0.470800    0.778778   -0.311593
 C    0.264998   -0.400035   -0.372812
 C   -1.946263    0.643468   -0.538327
 C   -2.476840   -0.583266    0.212929
 C   -1.752242   -1.780529   -0.319637
 C   -0.451107   -1.656434   -0.586551
 C   -2.932630    1.749236   -0.172748
 C   -4.278432    1.010780   -0.210362
 C   -3.974194   -0.464709    0.006740
 C   -2.263418   -0.515429    1.739401
 O    5.820189   -0.046842    0.277496
 O   -4.779732   -1.354955    0.024278
 H    4.177004    1.937920    0.300322
 H    2.060692   -2.472435   -0.349906
 H    4.465972   -2.297768   -0.078582
 H    2.006873    3.028857    0.187384
 H   -0.437282    2.909865   -0.084225
 H   -2.078370    0.426672   -1.611646
 H   -2.289341   -2.709319   -0.430967
 H    0.104018   -2.502820   -0.959097
 H   -2.725452    2.138473    0.824128
 H   -2.906378    2.580156   -0.876670
 H   -4.992733    1.363358    0.533963
 H   -4.758297    1.108561   -1.186367
 H   -2.818596    0.306091    2.184586
 H   -1.205838   -0.387640    1.958310
 H   -2.607333   -1.444551    2.188566
 H    6.224360   -0.921876    0.236613
