23 
5ai4_ligand_dft.xyz
 C    2.856853    2.154941   -0.098662
 N    2.312620    0.873038    0.293562
 C    3.222948   -0.211674    0.619323
 C    3.644647   -1.009997   -0.609516
 O    4.617545   -1.941423   -0.182587
 C    0.966284    0.637591    0.187104
 C    0.057932    1.666612   -0.153680
 C   -1.288281    1.366509   -0.231419
 C   -1.708081    0.064693    0.027009
 C   -0.752132   -0.885469    0.352062
 N    0.547651   -0.615488    0.426231
Br   -3.537074   -0.408681   -0.067805
 H    2.605927    2.410485   -1.137234
 H    2.498586    2.964017    0.551521
 H    3.944194    2.115926   -0.016017
 H    2.742726   -0.883055    1.332119
 H    4.112883    0.210351    1.096746
 H    4.049488   -0.325389   -1.373461
 H    2.757241   -1.502925   -1.029982
 H    4.783013   -2.557394   -0.903938
 H    0.393934    2.677732   -0.346238
 H   -2.008780    2.135902   -0.488799
 H   -1.044909   -1.912520    0.557279
