17 
5ai6_ligand_dft.xyz
 C    0.414050    2.640475    0.000031
 C    1.987162   -2.107885   -0.000029
 C    0.724896   -1.580879    0.000058
 C    1.642497    2.036922   -0.000005
 C   -0.768917    1.866502   -0.000032
 C    3.095099   -1.227840    0.000052
 C    0.563245   -0.173465   -0.000005
 C    1.744959    0.622680   -0.000044
 C   -0.688476    0.499978   -0.000083
 N    2.994591    0.079083    0.000025
Br   -2.300322   -0.504588    0.000008
 H    0.333206    3.722831    0.000115
 H    2.147786   -3.180684   -0.000223
 H   -0.151471   -2.220349    0.000135
 H    2.565098    2.606944    0.000037
 H   -1.737895    2.352908   -0.000054
 H    4.105318   -1.633604   -0.000128
