32 
5aia_ligand_xtb.xyz
 C   -0.027686    1.601447   -0.042912
 C    1.266604    2.058945   -0.068294
 C    2.346753    1.169727   -0.047556
 C    2.085720   -0.216416    0.005678
 C    0.752541   -0.647634    0.024643
 C   -0.309148    0.233488    0.001151
 C   -1.728567   -0.268814    0.018551
 C   -2.457743    0.160975    1.306727
 C   -3.973830    0.245868    1.097809
 C   -4.433371   -0.810414    0.099120
 C   -3.858580   -0.516400   -1.293078
 C   -2.514781    0.215722   -1.204040
 C    3.229147   -1.146911    0.037849
 O    4.384472   -0.771108   -0.019303
 O    2.986184   -2.459336    0.138868
 O    3.576117    1.683658   -0.077944
 H   -0.838436    2.313596   -0.061670
 H    1.487965    3.113655   -0.107410
 H    0.519568   -1.706012    0.051676
 H   -1.704023   -1.362888   -0.022476
 H   -2.081608    1.130039    1.638764
 H   -2.232166   -0.560239    2.094989
 H   -4.248929    1.232294    0.720629
 H   -4.482112    0.108184    2.053578
 H   -5.523032   -0.835999    0.052143
 H   -4.099401   -1.790381    0.445773
 H   -4.558581    0.097780   -1.862194
 H   -3.733014   -1.454646   -1.836767
 H   -1.934189    0.040900   -2.111927
 H   -2.679518    1.290296   -1.123309
 H    2.043131   -2.662673    0.189555
 H    4.227813    0.942894   -0.068214
