21 
5aic_ligand_dft.xyz
 O   -3.625649    1.014460   -0.034641
 C   -2.518429    0.529301    0.083602
 C   -2.286407   -0.870811    0.624302
 N   -1.382130    1.237074   -0.222630
 C   -0.048999    0.813030   -0.102479
 C    0.280767   -0.546867   -0.110746
 C    0.973157    1.758775   -0.003172
 C    2.298884    1.357965    0.057827
 C    2.645462    0.003502    0.046852
 C    4.089851   -0.422833    0.124384
 C    1.618332   -0.933570   -0.024807
 S   -0.994255   -1.762614   -0.288495
 H   -3.218360   -1.427152    0.523764
 H   -2.022788   -0.812059    1.686243
 H   -1.553145    2.195880   -0.494218
 H    0.720689    2.815793    0.019241
 H    3.078838    2.111780    0.125529
 H    4.663631   -0.028631   -0.721745
 H    4.563135   -0.053275    1.040900
 H    4.185502   -1.512239    0.114353
 H    1.854979   -1.994415   -0.017194
