46 
5ais_ligand_xtb.xyz
 C   -6.374059   -1.488107    1.032386
 N   -5.815784   -0.532160    0.087778
 C   -6.246935   -0.832939   -1.270387
 C   -6.097216    0.856062    0.455373
 C   -4.980975    1.808213    0.016142
 C   -3.679681    1.657112    0.827430
 C   -2.760349    0.587647    0.318937
 O   -3.213512   -0.600404   -0.018276
 N   -1.454019    0.852492    0.242525
 C   -0.377586    0.054923   -0.164020
 C    0.893816    0.616530   -0.059793
 C    2.016415   -0.123077   -0.419699
 C    1.772565   -1.420605   -0.905965
 N    0.572477   -1.948878   -1.018150
 C   -0.487230   -1.249614   -0.653878
 C    3.358767    0.419996   -0.289005
 C    3.615609    1.757948   -0.597830
 C    4.888880    2.297181   -0.504198
 C    5.967128    1.533680   -0.071550
 C    5.747567    0.212499    0.263315
 C    4.432338   -0.368458    0.154541
 C    4.583644   -1.685335    0.623383
 C    5.941730   -1.808013    0.951122
 N    6.643995   -0.706110    0.734616
 H   -5.969762   -1.299300    2.025578
 H   -7.468147   -1.436576    1.079416
 H   -6.086380   -2.493017    0.729125
 H   -4.241197   -0.637788    0.049535
 H   -7.338167   -0.792459   -1.371762
 H   -5.806806   -0.120280   -1.964508
 H   -5.906733   -1.830780   -1.540441
 H   -6.198373    0.915202    1.541837
 H   -7.048369    1.188028    0.017175
 H   -5.346852    2.826598    0.151866
 H   -4.767155    1.676335   -1.045435
 H   -3.940837    1.437239    1.869598
 H   -3.147062    2.609369    0.823383
 H   -1.168220    1.776857    0.545043
 H    1.010548    1.618965    0.332678
 H    2.593603   -2.040065   -1.235703
 H   -1.439675   -1.743363   -0.756565
 H    2.808157    2.377491   -0.968117
 H    5.043095    3.332777   -0.776351
 H    6.955189    1.961995    0.007573
 H    3.831159   -2.445157    0.730200
 H    6.426811   -2.690103    1.336880
