46 
5ais_ligand_dft.xyz
 C   -0.598186   -1.237650   -1.501453
 N   -0.463045   -2.299078   -0.451111
 C    0.921235   -2.290600    0.141927
 C   -1.494692   -2.177761    0.638363
 C   -2.945395   -2.451575    0.199994
 C   -3.932069   -1.387235    0.725060
 C   -3.538513   -0.056877    0.089189
 O   -3.525907    0.057479   -1.122131
 N   -3.067272    0.921124    0.940351
 C   -1.951279    1.703682    0.502196
 C   -0.696828    1.384065    1.009579
 C    0.455251    1.856319    0.386319
 C    0.253643    2.757689   -0.671432
 N   -0.945082    3.139082   -1.112085
 C   -2.033276    2.599475   -0.556845
 C    1.743793    1.198811    0.697077
 C    2.136900    0.970425    2.013386
 C    3.196260    0.094169    2.318145
 C    3.838729   -0.617002    1.316649
 C    3.453610   -0.427224   -0.019931
 C    2.427027    0.532331   -0.350112
 C    2.245485    0.399232   -1.751022
 C    3.145261   -0.602016   -2.131170
 N    3.868052   -1.126421   -1.114976
 H   -1.593724   -1.274741   -1.940955
 H   -0.433524   -0.272303   -1.026156
 H    0.189286   -1.388863   -2.238636
 H   -0.594853   -3.202221   -0.911993
 H    1.032508   -1.384743    0.739892
 H    1.032483   -3.179424    0.764874
 H    1.671045   -2.271961   -0.653851
 H   -1.366899   -1.162217    1.015023
 H   -1.184041   -2.863174    1.430191
 H   -3.254084   -3.441805    0.546874
 H   -3.030486   -2.453652   -0.890742
 H   -3.922607   -1.353429    1.820344
 H   -4.942743   -1.653806    0.404966
 H   -3.062622    0.687095    1.923917
 H   -0.594607    0.671314    1.826458
 H    1.113941    3.167848   -1.194422
 H   -2.995256    2.859528   -0.987533
 H    1.617340    1.485018    2.819967
 H    3.495180   -0.035760    3.355041
 H    4.623928   -1.331833    1.549621
 H    1.592167    0.969309   -2.400906
 H    3.304523   -0.962511   -3.145697
