51 
5aix_ligand_dft.xyz
 C    8.275121   -2.278268    0.007275
 O    8.645442   -0.915987   -0.024674
 C    7.662613    0.013087   -0.032059
 C    8.089291    1.347148   -0.050360
 C    7.156115    2.369656   -0.053467
 C    5.791559    2.086625   -0.050473
 C    5.361740    0.759457   -0.041593
 C    6.301774   -0.279619   -0.023196
 C    3.919859    0.412428   -0.043297
 C    2.941126    1.313015   -0.493900
 C    1.609208    0.943943   -0.452619
 C    1.267669   -0.324278    0.023317
 C    2.312911   -1.169131    0.405761
 N    3.591094   -0.818063    0.384240
 C   -0.121014   -0.838708    0.117895
 O   -0.394542   -2.028999    0.163527
 N   -1.129960    0.108030    0.149596
 C   -2.480034   -0.347617    0.394429
 C   -3.058098   -1.032342   -0.850759
 C   -4.482652   -1.497923   -0.616528
 N   -5.363140   -0.331887   -0.210936
 C   -4.813543    0.359023    1.020418
 C   -3.380961    0.819046    0.793508
 C   -6.787419   -0.755922   -0.069849
 C   -7.744635    0.435278   -0.089993
 F   -8.971818    0.005642   -0.332822
 F   -7.742154    1.107298    1.064393
 F   -7.368660    1.286307   -1.063000
 H    7.699178   -2.515744    0.910316
 H    7.691065   -2.555545   -0.879249
 H    9.208476   -2.841398    0.015064
 H    9.154648    1.551330   -0.055064
 H    7.492792    3.401594   -0.052069
 H    5.080005    2.905253   -0.022036
 H    5.936902   -1.298512    0.001241
 H    3.224853    2.275758   -0.901696
 H    0.853246    1.626592   -0.833179
 H    2.086388   -2.174713    0.751027
 H   -0.886558    1.044463    0.439064
 H   -2.466511   -1.088979    1.207364
 H   -2.448340   -1.904797   -1.096349
 H   -3.013093   -0.345693   -1.706049
 H   -4.548537   -2.225643    0.197922
 H   -4.922786   -1.933408   -1.516191
 H   -5.331088    0.349443   -0.978307
 H   -4.879373   -0.375825    1.828121
 H   -5.473280    1.194320    1.250648
 H   -3.355968    1.599833    0.020960
 H   -3.038992    1.280038    1.726207
 H   -6.902407   -1.321979    0.855992
 H   -7.033848   -1.395681   -0.919087
