46 
5ajy_ligand_xtb.xyz
 C    6.404465    3.380597   -0.521622
 N    6.063567    1.992932   -0.624523
 O   -0.219073    0.634824    1.434683
 C    4.937731    1.388425   -0.193860
 N    6.902605    1.129532   -1.196492
 O   -5.937803   -0.693891   -1.503220
 C    5.049251    0.036713   -0.500854
 N    3.419605   -3.206552   -0.083429
 C    6.317670   -0.046602   -1.130537
 N   -5.621725    0.790986    0.280616
 C    4.144905   -1.036516   -0.248101
 N   -8.402782    0.040397   -1.916466
 C    4.419795   -2.410679   -0.421111
 C    2.412737   -2.383627    0.334881
 C    2.803369   -1.005026    0.248575
 C    1.901961   -0.013392    0.597860
 C    0.641553   -0.391716    1.042115
 C    0.274666   -1.733024    1.163709
 C    1.157941   -2.734750    0.804712
 C   -1.517402    0.601757    1.099503
 C   -2.050853   -0.159159    0.052941
 C   -3.394158   -0.113088   -0.240186
 C   -4.251885    0.699858    0.505302
 C   -3.717841    1.481682    1.537883
 C   -2.377555    1.435209    1.828939
 C   -6.416810    0.179589   -0.605146
 C   -7.902050    0.418033   -0.601231
 H    5.690426    3.998004   -1.072139
 H    6.415695    3.699352    0.523225
 H    7.396723    3.509289   -0.949266
 H    4.168390    1.941761    0.303685
 H    6.801747   -0.913143   -1.533347
 H   -6.097049    1.420080    0.916431
 H   -9.400504   -0.127042   -1.902475
 H   -8.215324    0.768072   -2.598567
 H   -6.702958   -0.966512   -2.049603
 H    5.342514   -2.832188   -0.781637
 H    2.134066    1.038037    0.523517
 H   -0.703149   -1.979871    1.554331
 H    0.879337   -3.773456    0.895427
 H   -1.395590   -0.780077   -0.538093
 H   -3.781607   -0.704556   -1.051167
 H   -4.370198    2.123553    2.114193
 H   -1.961953    2.033897    2.623738
 H   -8.381089   -0.237821    0.139484
 H   -8.118300    1.458393   -0.310018
