57 
5ak0_ligand_xtb.xyz
 O   -2.236971   -0.731512   -1.281904
 C   -2.890571   -1.130996   -0.337365
 C   -3.998332   -0.254608    0.238373
 N   -3.881543    1.074444   -0.375731
 C   -5.197194    1.679464   -0.169067
 C   -6.209422    0.547520   -0.408910
 C   -5.440634   -0.737424   -0.044839
 N   -2.660881   -2.298289    0.307204
 C   -1.378369   -2.895929    0.228239
 C   -0.707538   -3.208511    1.406547
 C    0.657894   -3.416439    1.384441
 C   -0.719444   -2.989273   -0.992176
 C    0.646886   -3.189717   -1.012362
 C    1.348095   -3.305395    0.182641
 O    2.723377   -3.183658    0.185747
 C    3.154304   -1.882701    0.065208
 C    4.537775   -1.689571   -0.081618
 C    5.073003   -0.426437   -0.180098
 C    4.203775    0.660293   -0.149631
 N    4.455606    2.007581   -0.212659
 C    5.757683    2.595191   -0.355193
 C    2.287797   -0.804384    0.106103
 C    2.809401    0.479513   -0.023888
 C    2.226927    1.788586   -0.016024
 C    3.282877    2.672155   -0.124172
 C    0.829969    2.124786    0.081202
 C    0.269279    3.328860    0.518950
 N   -1.064746    3.227925    0.468403
 C   -2.062911    4.195673    0.816286
 N   -1.394752    2.015425    0.018552
 C   -0.278399    1.328108   -0.231662
 H   -3.843404   -0.141682    1.318993
 H   -3.744154    0.910441   -1.376984
 H   -2.418449    1.683771   -0.113710
 H   -5.343837    2.528655   -0.834471
 H   -5.249726    2.027124    0.866753
 H   -7.102795    0.675876    0.196546
 H   -6.508917    0.529953   -1.455976
 H   -5.448281   -1.445415   -0.872973
 H   -5.865439   -1.230440    0.826758
 H   -3.209939   -2.514901    1.127564
 H   -1.238465   -3.217068    2.347300
 H    1.205691   -3.582640    2.298438
 H   -1.256943   -2.836482   -1.912124
 H    1.188890   -3.178719   -1.944945
 H    5.170462   -2.561628   -0.103937
 H    6.138206   -0.290007   -0.276751
 H    6.392886    2.322067    0.490145
 H    6.233344    2.246308   -1.273994
 H    5.667556    3.678780   -0.393705
 H    1.230186   -0.944913    0.252415
 H    3.256932    3.744665   -0.168319
 H    0.754370    4.222012    0.855827
 H   -2.699139    4.410097   -0.043942
 H   -2.686973    3.824028    1.630835
 H   -1.578158    5.115009    1.135469
 H   -0.328047    0.344282   -0.652233
