51 
5ak2_ligand_xtb.xyz
 C    5.033477   -0.431692    0.828316
 C    4.141364   -1.503826    0.287239
 C    4.568789   -2.823674    0.272667
 C    3.742772   -3.811344   -0.228032
 C    2.481173   -3.530796   -0.716620
 C    2.053770   -2.216534   -0.700875
 C    2.868167   -1.202678   -0.207141
 C    2.383814    0.196395   -0.239603
 C    1.357101    0.651243    0.526291
 C    0.942178    2.025814    0.404821
 C   -0.102800    2.606574    1.138713
 C   -0.443913    3.923811    0.970012
 C    0.252638    4.723971    0.054986
 C    1.288104    4.176060   -0.682881
 C    1.628874    2.838536   -0.510688
 O    2.644827    2.366980   -1.264110
 C    3.071529    1.070205   -1.187806
 O    3.977785    0.735805   -1.910072
 O   -0.120546    6.014339   -0.071721
 C    0.660549   -0.238491    1.515036
 C   -0.794452   -0.462717    1.194962
 C   -1.686280   -0.788997    2.211806
 C   -3.018591   -1.013371    1.937016
 C   -3.512133   -0.911585    0.632541
 C   -2.609822   -0.591696   -0.385055
 C   -1.276166   -0.375092   -0.106713
 C   -4.922605   -1.137004    0.401397
 C   -5.598781   -0.998405   -0.747118
 C   -7.048566   -1.266057   -0.781592
 O   -7.690849   -1.622343    0.169814
 O   -7.647217   -1.082675   -1.979231
 F    4.179407   -5.088480   -0.229523
 H    5.851064   -0.861882    1.400379
 H    5.453082    0.140265    0.001393
 H    4.477257    0.255578    1.464288
 H    5.545381   -3.089828    0.646313
 H    1.858381   -4.322383   -1.100689
 H    1.074203   -1.972713   -1.084231
 H   -0.656107    2.007111    1.842775
 H   -1.247833    4.369753    1.532293
 H    1.845093    4.763812   -1.397435
 H    0.430552    6.463302   -0.725331
 H    0.744717    0.202519    2.512472
 H    1.167018   -1.207630    1.542171
 H   -1.328502   -0.867557    3.228636
 H   -3.696853   -1.264294    2.739211
 H   -2.950596   -0.515639   -1.405875
 H   -0.600815   -0.125067   -0.912118
 H   -5.501767   -1.445215    1.264199
 H   -5.124021   -0.687268   -1.667897
 H   -7.028047   -0.795302   -2.662370
