22 
5ak3_ligand_xtb.xyz
 C    2.521094    0.692746    0.265508
 C    2.521214   -0.692450    0.265576
 C    1.359277   -1.404017   -0.003885
 C    0.203956   -0.697165   -0.264978
 C    0.203798    0.697067   -0.265095
 C    1.359042    1.404063   -0.004029
 C   -1.171926    1.212816   -0.604479
 C   -2.062319   -0.000165   -0.323157
 C   -1.171765   -1.213220   -0.604052
 N   -2.366019    0.000289    1.154863
 H    3.434571    1.227049    0.472041
 H    3.434795   -1.226656    0.472094
 H    1.363176   -2.482687   -0.013873
 H    1.362811    2.482714   -0.014167
 H   -1.218544    1.472154   -1.663981
 H   -1.461373    2.099011   -0.039090
 H   -3.007102   -0.000603   -0.866786
 H   -1.461058   -2.099438   -0.038461
 H   -1.218385   -1.472884   -1.663540
 H   -2.887721   -0.839887    1.432280
 H   -1.456448    0.005669    1.640895
 H   -2.896817    0.835493    1.430086
