29 
5ak5_ligand_xtb.xyz
 N    0.409939   -0.316570    0.476551
 C    1.662083   -0.022183    0.557720
 C    2.199579    1.298424    0.210467
 C    3.402158   -1.587585   -1.360290
 C    2.802120   -2.152744   -0.079646
 C    2.631169   -1.072699    0.997372
 C   -0.504284    0.599648    0.047583
 C   -0.092788    1.848369   -0.329760
 C   -1.895241    0.146876    0.008061
 C   -2.184692   -1.212065    0.150945
 C   -2.980080    1.011830   -0.153745
 N   -4.235225    0.611166   -0.199694
 C   -4.491752   -0.680406   -0.076759
 C   -3.500256   -1.633018    0.109514
 O    3.360006    1.654767    0.284888
 N    1.220776    2.170135   -0.243129
 H    2.721705   -0.874966   -1.822436
 H    4.336820   -1.073898   -1.147807
 H    3.598398   -2.384695   -2.073868
 H    3.453930   -2.934876    0.313915
 H    1.827221   -2.595514   -0.291907
 H    2.256568   -1.539803    1.909757
 H    3.590959   -0.595031    1.198506
 H   -0.757144    2.606089   -0.713361
 H   -1.371600   -1.907039    0.292311
 H   -2.842763    2.081632   -0.240275
 H   -5.537043   -0.955137   -0.125655
 H   -3.752986   -2.676587    0.216985
 H    1.539364    3.091904   -0.520146
