42 
5ake_ligand_xtb.xyz
 C   -4.119928    3.224061    0.082877
 C   -5.391027    2.691992    0.237856
 C   -3.009683    2.401993   -0.030050
 C   -0.414572   -2.158561   -0.274735
 C   -5.571643    1.314865    0.283187
 C   -1.770179   -2.385652   -0.107379
 C   -0.779521    0.232182   -0.258608
 C   -3.180595    1.023072    0.013048
 C   -2.137476    0.002704   -0.093543
 C    0.087347   -0.855598   -0.351170
 C   -4.465044    0.508107    0.169998
 C   -2.614054   -1.303588   -0.019577
 C    2.192026    0.452320   -0.602246
 C    4.998898   -1.181984    0.352926
 C    5.140168    1.346060    0.589423
 C    4.282047   -0.930175   -0.978927
 C    4.382910    1.449441   -0.738362
 C    5.886605    0.020037    0.663679
 N    3.521762    0.296162   -0.917018
 N    1.461726   -0.712388   -0.525594
 O    1.714498    1.555672   -0.438856
 O   -4.768032   -1.805663    1.479559
 O   -5.055894   -1.844178   -0.959009
 F    6.456483   -0.131417    1.895783
 F    6.944139    0.034740   -0.204979
 S   -4.395131   -1.287325    0.190767
 H   -3.991873    4.295785    0.049304
 H   -6.243506    3.348275    0.323615
 H   -2.026013    2.828216   -0.149823
 H    0.262659   -2.997736   -0.348285
 H   -6.550142    0.877431    0.403246
 H   -2.163939   -3.387644   -0.047738
 H   -0.381791    1.230467   -0.315406
 H    5.620437   -2.076738    0.297258
 H    4.282266   -1.296041    1.167796
 H    4.441620    1.390941    1.426117
 H    5.856312    2.162573    0.685342
 H    3.666555   -1.786386   -1.254340
 H    5.035396   -0.809152   -1.765934
 H    5.090909    1.492507   -1.570796
 H    3.758325    2.342603   -0.746304
 H    1.952623   -1.588537   -0.609208
