16 
5akg_ligand_xtb.xyz
 C    3.103494    1.222116   -0.001714
 C    1.702689    1.334993   -0.005464
 C    1.072804    0.116318   -0.002596
 S    2.216152   -1.188695    0.005611
 C    3.521634   -0.072900    0.004484
 C   -0.324898   -0.150285   -0.005251
 N   -0.867195   -1.315313   -0.012134
 N   -2.188829   -1.320968   -0.014507
 C   -2.715413   -0.141759   -0.003578
 S   -1.524881    1.165524    0.001414
 N   -4.039877    0.105885    0.066934
 H    3.769794    2.065810   -0.003602
 H    1.169851    2.269526   -0.010331
 H    4.528295   -0.441340    0.008593
 H   -4.646575   -0.678104   -0.107025
 H   -4.372255    1.016698   -0.197392
