17 
5akk_ligand_xtb.xyz
 O   -4.541198   -0.890312   -0.000636
 C   -3.422172   -0.448451    0.000674
 C   -2.984776    1.011823    0.005784
 N   -2.276915   -1.205716   -0.001511
 C   -1.133511   -0.430750   -0.001753
 C    0.187578   -0.832857   -0.002425
 C    1.146454    0.171787   -0.002335
Br    2.984854   -0.327448    0.001424
 C   -1.493501    0.924217   -0.000212
 C   -0.521065    1.898704   -0.002683
 C    0.815421    1.515881   -0.003867
 H   -3.377994    1.515455    0.890545
 H   -3.387467    1.526634   -0.867919
 H   -2.284480   -2.213515   -0.005109
 H    0.469510   -1.873811   -0.002246
 H   -0.782897    2.945241   -0.003436
 H    1.594866    2.261053   -0.005116
