17 
5akk_ligand_dft.xyz
 O   -4.566730   -0.890624    0.000099
 C   -3.440482   -0.452156    0.000028
 C   -2.996013    1.015830    0.000009
 N   -2.280771   -1.209459   -0.000112
 C   -1.129804   -0.422857   -0.000090
 C    0.193653   -0.831237   -0.000057
 C    1.161340    0.173730   -0.000007
Br    2.988943   -0.331737    0.000019
 C   -1.494863    0.930528   -0.000097
 C   -0.512802    1.902044   -0.000005
 C    0.833388    1.523341    0.000029
 H   -3.407473    1.517211    0.882261
 H   -3.407680    1.517210   -0.882144
 H   -2.302867   -2.217614    0.000328
 H    0.476370   -1.877689   -0.000072
 H   -0.775598    2.955758    0.000029
 H    1.616986    2.271783    0.000070
