40 
5al1_ligand_xtb.xyz
 C    5.311577   -1.467813   -0.315121
 C    4.770808   -0.166750    0.294736
 C    5.467551    1.039882   -0.350227
 C    5.101599   -0.164845    1.789530
 C    3.277556   -0.078693    0.023462
 C    2.325152   -0.020699    1.035172
 C    0.975460    0.063763    0.744656
 C    2.821537   -0.053569   -1.292289
 C    1.474926    0.032388   -1.588892
 C    0.536172    0.093662   -0.570637
 C   -0.941066    0.201148   -0.864712
 N   -1.464930    1.427568   -0.302230
 C   -2.759452    1.647056    0.059104
 O   -3.148237    2.750217    0.386970
 C   -3.595417    0.431317    0.073072
 C   -4.960002    0.477778    0.308678
 C   -5.668830   -0.711541    0.394406
 C   -4.968668   -1.900075    0.261008
 N   -3.667086   -1.971846    0.033368
 C   -2.989952   -0.832318   -0.070636
 N   -1.645155   -0.911545   -0.267248
 H    4.806828   -2.326559    0.122436
 H    5.160714   -1.495372   -1.390626
 H    6.377671   -1.557240   -0.118626
 H    5.324771    1.053981   -1.426981
 H    5.070374    1.966433    0.058887
 H    6.536092    1.004628   -0.149928
 H    6.180233   -0.222649    1.920555
 H    4.754924    0.749005    2.266371
 H    4.657361   -1.021316    2.291234
 H    2.622436   -0.039305    2.070543
 H    0.250096    0.108306    1.543232
 H    3.524377   -0.100005   -2.109928
 H    1.151913    0.053075   -2.620151
 H   -1.093521    0.206962   -1.969200
 H   -0.855003    2.232086   -0.308353
 H   -5.436908    1.439291    0.427602
 H   -6.732318   -0.716348    0.570651
 H   -5.471116   -2.856087    0.333340
 H   -1.276527   -1.834009   -0.441897
