31 
5al3_ligand_dft.xyz
Cl   -1.769181   -1.809863    2.059984
 C   -2.097176   -0.642283    0.798145
 C   -3.431649   -0.454468    0.443967
 C   -3.735984    0.452051   -0.560550
Cl   -5.402488    0.693787   -1.009128
 C   -2.736016    1.168211   -1.212873
 C   -1.418470    0.964623   -0.836363
 C   -1.070268    0.061611    0.171818
 C    0.401130   -0.083476    0.523205
 N    0.899489    1.230558    0.895612
 C    2.236292    1.529866    0.979380
 O    2.650996    2.499777    1.590451
 C    3.094317    0.606886    0.206394
 C    4.470463    0.778354    0.195022
 C    5.255904   -0.059914   -0.585402
 C    4.603502   -1.034850   -1.331409
 N    3.283757   -1.224231   -1.337831
 C    2.531825   -0.418811   -0.582823
 N    1.155416   -0.590609   -0.620453
 C    0.634974   -1.829841   -1.182703
 H   -4.214822   -1.009821    0.945886
 H   -2.989815    1.871938   -1.997193
 H   -0.619486    1.509068   -1.330025
 H    0.507983   -0.787729    1.364485
 H    0.304766    1.786921    1.494940
 H    4.893193    1.577215    0.796336
 H    6.334463    0.039013   -0.623351
 H    5.173104   -1.712535   -1.964098
 H    1.291206   -2.145234   -1.990252
 H   -0.370716   -1.661684   -1.572366
 H    0.596835   -2.629869   -0.428671
