39 
5al4_ligand_dft.xyz
 C    2.130363   -1.780244    0.129956
 C    2.782237   -0.841104    1.147477
 N    3.806369    0.032231    0.470573
 C    4.464532    0.963325    1.434437
 C    3.201001    0.780064   -0.693785
 C    2.477848   -0.184479   -1.632464
 N    1.505546   -1.037192   -0.959150
 C    0.283541   -0.411288   -0.617691
 N   -0.742265   -1.267890   -0.413917
 C   -2.034698   -0.781893   -0.084507
 C   -2.957202   -1.561400    0.478315
 C   -4.348690   -1.079161    0.783636
 C   -4.662684    0.257865    0.102370
 C   -3.491323    1.232497    0.225664
 C   -2.253664    0.661437   -0.466382
 C   -0.991637    1.484567   -0.201967
 O   -1.029745    2.621253    0.203749
 N    0.244868    0.876082   -0.481701
 H    1.388675   -2.386299    0.653981
 H    2.873179   -2.469085   -0.291314
 H    3.291275   -1.390105    1.943381
 H    2.043242   -0.164501    1.584991
 H    4.530892   -0.588233    0.095053
 H    5.222382    1.541896    0.904942
 H    3.703169    1.630883    1.839736
 H    4.923859    0.382963    2.235747
 H    4.016039    1.303175   -1.199459
 H    2.482846    1.490667   -0.280365
 H    3.193902   -0.840664   -2.143338
 H    1.971434    0.411369   -2.392686
 H   -0.630754   -2.230844   -0.697923
 H   -2.707617   -2.591082    0.730354
 H   -4.454605   -0.982612    1.873314
 H   -5.074664   -1.841859    0.479318
 H   -5.564467    0.694317    0.541524
 H   -4.879847    0.082800   -0.959077
 H   -3.258208    1.412074    1.281686
 H   -3.733915    2.203885   -0.211071
 H   -2.398228    0.697506   -1.559775
