64 
5alb_ligand_xtb.xyz
 C   -5.116468    2.760545   -0.523954
 C   -3.699487    2.961961    0.000245
 C   -2.698494    2.220463   -0.870246
 S   -0.977008    2.678074   -0.446587
 C   -0.130327    1.158716   -0.573431
 N   -0.836609    0.028896   -0.547841
 C   -0.213484   -1.142560   -0.641275
 N   -0.887292   -2.301935   -0.592105
 C   -2.245639   -2.454381   -0.196395
 C   -3.203904   -3.157654   -1.115942
 C   -3.326463   -1.678146   -0.888306
 C   -4.450219   -1.130237   -0.080335
 C   -4.203961   -0.445566    1.104483
 C   -5.246502    0.059185    1.860197
 C   -6.549850   -0.117036    1.431108
 F   -7.563152    0.371951    2.163803
 C   -6.804654   -0.795319    0.245256
 F   -8.067244   -0.967724   -0.178941
 C   -5.761290   -1.300611   -0.507814
 C    1.192453   -1.131928   -0.796688
 N    2.171242   -2.063984   -0.905888
 N    3.294366   -1.465393   -0.965679
 N    3.128671   -0.137337   -0.904812
 C    4.165518    0.857400   -0.882444
 C    5.580292    0.273567   -0.921239
 C    6.134486    0.482839    0.498369
 O    5.694420   -0.522531    1.382408
 C    6.503539   -1.689678    1.424164
 C    5.627377   -2.951373    1.443747
 O    5.246347   -3.380864    0.167025
 C    5.498922    1.812333    0.927865
 O    6.149603    2.871510    0.284848
 C    4.049015    1.666027    0.441785
 O    3.455537    2.918718    0.268126
 C    1.811194    0.131169   -0.782340
 N    1.184905    1.301668   -0.659822
 H   -5.348451    1.700932   -0.602753
 H   -5.836821    3.223444    0.144921
 H   -5.225343    3.209802   -1.508253
 H   -3.459383    4.026771    0.002913
 H   -3.625217    2.599037    1.026275
 H   -2.767120    1.143474   -0.739101
 H   -2.836864    2.481011   -1.920269
 H   -0.316402   -3.134570   -0.646649
 H   -2.374885   -2.630468    0.869116
 H   -3.939234   -3.809300   -0.670162
 H   -2.832701   -3.493975   -2.071456
 H   -3.011084   -1.042322   -1.706665
 H   -3.185918   -0.301209    1.431023
 H   -5.067941    0.590472    2.781266
 H   -5.981664   -1.825694   -1.423914
 H    3.986251    1.537390   -1.723650
 H    5.567469   -0.780597   -1.193333
 H    6.192225    0.826116   -1.630987
 H    7.226857    0.565819    0.505687
 H    7.118005   -1.655749    2.334096
 H    7.165292   -1.738213    0.553957
 H    4.755958   -2.759956    2.082766
 H    6.207209   -3.772628    1.873413
 H    4.594848   -2.765564   -0.208954
 H    5.537369    1.934916    2.018835
 H    5.494473    3.577644    0.190882
 H    3.499942    1.063208    1.179227
 H    2.542252    2.776630   -0.033678
