54 
5alg_ligand_xtb.xyz
 C    5.075596    2.390928    0.295796
 C    4.759194    1.972394    1.578861
 C    1.086831    1.618041   -1.799133
 C   -1.463986   -2.257959    1.572346
 C   -0.155636    1.257639   -2.291308
 C    4.782235    1.585443   -0.787986
 C    4.186962    0.731240    1.780555
 C   -2.602489   -1.605064    1.998433
 C    1.221848    2.072857   -0.498993
 C   -1.797588   -1.349997   -0.629918
 C   -1.162008    1.849364   -0.198016
 C   -1.067306   -2.144274    0.242941
 C   -1.289257    1.371436   -1.496255
 C   -2.897268   -0.620129   -0.194959
 C    4.179663    0.347699   -0.598102
 C    3.909500   -0.094588    0.699005
 C   -3.317463   -0.789916    1.131122
 C    0.089856    2.177482    0.292481
 C   -4.762363    0.784442   -0.911960
 C    0.141871   -2.819870   -0.308525
 C   -5.606685    0.038180    0.095394
 C    2.935842   -1.431693   -1.411908
 C    3.388258   -2.205039   -0.170254
 C   -2.638305    0.979243   -2.036043
 C    2.470365   -3.388165    0.164646
 N   -3.480408    0.337488   -1.034894
 N    1.164787   -2.939695    0.576418
 O   -5.202676    1.699518   -1.573564
 O    0.207653   -3.223410   -1.453262
 O    3.852251   -0.401055   -1.700059
 O    3.380007   -1.336822    0.950345
 S   -4.765312    0.031543    1.703171
Cl    0.243873    2.718775    1.925684
 H    5.539773    3.351851    0.137144
 H    4.966899    2.608460    2.425046
 H    1.961114    1.532578   -2.426010
 H   -0.917394   -2.884846    2.259633
 H   -0.245081    0.886340   -3.301415
 H    5.002154    1.896880   -1.796676
 H    3.950236    0.375391    2.770525
 H   -2.948245   -1.704188    3.015576
 H    2.188202    2.340781   -0.102746
 H   -1.471593   -1.301045   -1.655849
 H   -2.028481    1.962749    0.435042
 H   -6.561472    0.545309    0.217109
 H   -5.766489   -0.997634   -0.211656
 H    1.939244   -1.005156   -1.232015
 H    2.899875   -2.078219   -2.288747
 H    4.413477   -2.568878   -0.343728
 H   -2.525432    0.325585   -2.907426
 H   -3.190241    1.870927   -2.357041
 H    2.344593   -4.016940   -0.718595
 H    2.915849   -3.967994    0.976395
 H    1.137612   -2.404381    1.430434
