65 
5ali_ligand_xtb.xyz
 C   -6.056381   -3.505666   -0.306698
 O   -6.472010   -2.196841    0.001351
 C   -5.635672   -1.169688   -0.322501
 C   -4.486775   -1.292912   -1.093458
 C   -3.682080   -0.193462   -1.332440
 C   -4.003648    1.044403   -0.795158
 C   -5.179388    1.178513   -0.060704
 C   -5.986961    0.087359    0.170020
 N   -3.183294    2.171975   -0.975754
 C   -1.809559    2.124459   -1.034596
 O   -1.184101    1.089350   -1.106336
 N   -1.241724    3.380831   -1.033756
 C    0.089947    3.689151   -0.728114
 C    0.437590    5.010680   -0.454270
 C    1.731952    5.319682   -0.074088
 C    2.676752    4.324744    0.104417
 C    2.331311    3.002448   -0.154079
 C    1.061352    2.705665   -0.637991
 C    3.227965    1.890889    0.117007
 C    2.837834    0.611343    0.504378
 N    3.997375   -0.121880    0.578330
 C    5.000999    0.721984    0.253062
 N    4.577840    1.926069   -0.019610
 C    4.093381   -1.519649    0.882343
 C    3.870477   -2.377678   -0.378651
 C    3.784675   -3.877772   -0.033772
 C    4.734898   -4.526667   -1.041016
 C    5.726559   -3.391538   -1.289251
 O    4.943229   -2.216877   -1.292259
 C    1.533518    0.095940    0.813232
 N    1.049065   -1.010314    0.369929
 C   -0.232127   -1.196157    0.778658
 C   -1.118294   -2.236379    0.435444
 N   -2.354267   -2.242185    0.930769
 C   -2.714601   -1.241169    1.717509
 N   -1.993470   -0.203314    2.086103
 C   -0.757799   -0.191862    1.606388
 S    0.444230    1.025529    1.878802
 N   -0.724897   -3.261367   -0.354492
 H   -6.038134   -3.678562   -1.388261
 H   -5.068511   -3.715241    0.115667
 H   -6.795422   -4.164586    0.146929
 H   -4.198755   -2.243515   -1.511219
 H   -2.786718   -0.304564   -1.919774
 H   -5.454238    2.142539    0.344031
 H   -6.891774    0.180194    0.749332
 H   -3.614868    3.045454   -0.708517
 H   -1.866234    4.175051   -1.021837
 H   -0.304943    5.792570   -0.537963
 H    1.994398    6.349971    0.116764
 H    3.671588    4.553458    0.451019
 H    0.818607    1.697289   -0.921608
 H    6.028323    0.418405    0.226997
 H    3.330675   -1.775444    1.622358
 H    5.087765   -1.720070    1.290109
 H    2.962899   -2.013158   -0.873002
 H    2.766865   -4.251824   -0.109073
 H    4.140336   -4.046574    0.983611
 H    4.208755   -4.765102   -1.965260
 H    5.212621   -5.425311   -0.659078
 H    6.478628   -3.353708   -0.486540
 H    6.236937   -3.450227   -2.250814
 H   -3.727562   -1.274397    2.095353
 H    0.106494   -3.119798   -0.902420
 H   -1.444308   -3.865053   -0.714352
