36 
5alj_ligand_xtb.xyz
 C   -5.933373    1.511418   -0.009104
 C   -4.607642    0.816060    0.002400
 C   -3.399415    1.501067    0.014802
 C   -2.182070    0.847638    0.016531
 C   -2.134952   -0.544901    0.006191
 C   -3.335573   -1.257037   -0.005660
 C   -4.530634   -0.571151   -0.008455
 F   -5.678271   -1.292715   -0.019547
 N   -0.957098   -1.272682    0.008771
 C    0.346043   -0.851801    0.009474
 C    1.353071   -1.851269    0.010111
 C    2.675822   -1.506971    0.005666
 C    3.007374   -0.119352    0.000068
 C    1.925801    0.808082    0.005771
 N    0.634564    0.426615    0.009917
 C    2.177604    2.193715    0.005900
 C    3.461640    2.659810   -0.001650
 C    4.533469    1.765682   -0.010790
 C    4.324786    0.403946   -0.010390
 O    5.388247   -0.449028   -0.021353
 C    3.718184   -2.576535    0.007034
 H   -5.811298    2.574085    0.181857
 H   -6.417711    1.383498   -0.977451
 H   -6.592764    1.085991    0.745789
 H   -3.414661    2.580993    0.024228
 H   -1.255511    1.394812    0.026371
 H   -3.347334   -2.336990   -0.012879
 H   -1.080369   -2.275755    0.004896
 H    1.062149   -2.892609    0.014485
 H    1.331634    2.861562    0.011283
 H    3.661890    3.720854   -0.001670
 H    5.547623    2.144835   -0.018882
 H    6.205104    0.065369   -0.029965
 H    4.368646   -2.471181    0.872382
 H    3.254358   -3.560239    0.027561
 H    4.343641   -2.496500   -0.879459
