36 
5alj_ligand_dft.xyz
 C   -6.042474    1.445992   -0.000166
 C   -4.684643    0.798554   -0.000056
 C   -3.490869    1.516256   -0.000025
 C   -2.238650    0.907709    0.000072
 C   -2.152201   -0.488221    0.000138
 C   -3.337282   -1.238292    0.000098
 C   -4.554052   -0.586911   -0.000001
 F   -5.674262   -1.335866   -0.000044
 N   -0.954753   -1.213288    0.000219
 C    0.360546   -0.798712    0.000102
 C    1.353344   -1.824577   -0.000022
 C    2.682720   -1.512481   -0.000080
 C    3.040938   -0.118621   -0.000001
 C    1.976899    0.829224    0.000036
 N    0.659325    0.476167    0.000109
 C    2.257728    2.216601   -0.000003
 C    3.554737    2.658172   -0.000056
 C    4.621013    1.742824   -0.000034
 C    4.373258    0.386314    0.000017
 O    5.397763   -0.511440    0.000090
 C    3.689055   -2.633953   -0.000256
 H   -6.624199    1.153959    0.880810
 H   -5.949648    2.535493   -0.000421
 H   -6.624251    1.153550   -0.880972
 H   -3.537948    2.602438   -0.000074
 H   -1.333427    1.495940    0.000093
 H   -3.325148   -2.324387    0.000161
 H   -1.076680   -2.214017    0.000209
 H    1.045175   -2.867211   -0.000112
 H    1.417491    2.901598    0.000009
 H    3.770758    3.722290   -0.000107
 H    5.647355    2.103355   -0.000034
 H    6.230331   -0.023849    0.000124
 H    3.175471   -3.599528   -0.000372
 H    4.339267   -2.582264   -0.876875
 H    4.339292   -2.582497    0.876363
