31 
5all_ligand_xtb.xyz
 C   -1.575376    0.958045    0.258238
 C   -0.590262   -1.269479   -0.351936
 C    0.530804    0.108919    1.505482
 C   -1.840892   -0.546124    0.141861
 C   -0.234848    1.318338    0.934968
 C    0.498788   -1.225806    0.724260
 C   -3.028106   -0.799195   -0.782263
 C    0.633282    2.200764    0.031880
 C    1.867852   -1.642983    0.180485
 N    0.989632    1.506961   -1.228162
 O    2.346478   -0.718734   -0.800957
 H   -1.628426    1.395316   -0.743914
 H   -2.394447    1.404364    0.821325
 H   -0.247435   -0.838784   -1.295168
 H   -0.834140   -2.312104   -0.558699
 H    0.104935   -0.086802    2.488748
 H    1.567037    0.404839    1.676388
 H   -2.086494   -0.937138    1.132854
 H   -0.452191    1.956650    1.796150
 H    0.252180   -2.006028    1.450304
 H   -3.273072   -1.857172   -0.804376
 H   -3.903457   -0.256814   -0.435708
 H   -2.808142   -0.480655   -1.799790
 H    1.555158    2.470676    0.548669
 H    0.091067    3.117618   -0.208306
 H    2.585528   -1.697728    1.005904
 H    1.782455   -2.634428   -0.275870
 H    0.123268    1.207078   -1.692680
 H    1.527420    2.108983   -1.855070
 H    1.554747    0.630086   -1.006965
 H    3.217311   -1.001688   -1.096858
