43 
5alo_ligand_dft.xyz
 C   -2.639626    0.335050    1.940253
 C   -2.526810   -0.085556    0.473088
 C   -1.304525   -0.921700    0.182003
 C    0.035078   -0.650573    0.369143
 C    1.003690   -1.587059   -0.027741
 C    0.578809   -2.802005   -0.574779
 C   -0.774573   -3.107471   -0.732040
 C   -1.700904   -2.151303   -0.351379
 N   -3.099311   -2.197608   -0.398513
 C   -3.674101   -1.053983    0.114634
 O   -4.862485   -0.846223    0.231620
 C    2.429619   -1.267915    0.114739
 C    3.532294   -2.138034    0.274537
 N    4.680753   -1.480335    0.372205
 N    4.339942   -0.185617    0.272783
 C    3.008286   -0.010544    0.119516
 C    5.364763    0.830099    0.354964
 C   -2.661667    1.127427   -0.499696
 C   -1.480206    2.064388   -0.488913
 C   -0.453099    1.908113   -1.424001
 C    0.672322    2.725819   -1.396636
 C    0.791021    3.716616   -0.424623
 C   -0.230553    3.892020    0.505271
 C   -1.358690    3.076831    0.466799
 H   -1.834250    1.026002    2.205906
 H   -2.568068   -0.536264    2.598285
 H   -3.603220    0.823598    2.115873
 H    0.342909    0.287257    0.821553
 H    1.320639   -3.525486   -0.900306
 H   -1.081760   -4.060875   -1.150734
 H   -3.651433   -2.987725   -0.694494
 H    3.528310   -3.218099    0.341683
 H    2.570435    0.972137    0.005347
 H    4.901076    1.808350    0.216430
 H    5.851311    0.793390    1.332744
 H    6.112963    0.667464   -0.424198
 H   -2.797661    0.735721   -1.514334
 H   -3.586115    1.653172   -0.236437
 H   -0.531318    1.125619   -2.173903
 H    1.455153    2.589354   -2.137584
 H    1.666412    4.359385   -0.401380
 H   -0.154393    4.670884    1.258271
 H   -2.157550    3.229492    1.188167
