36 
5alw_ligand_dft.xyz
 C    3.478719    3.762416    0.089769
 C    3.175286    2.314483   -0.200398
 C    4.041926    1.306802    0.233835
 C    3.762628   -0.031730   -0.006687
 C    2.596801   -0.392156   -0.685009
 C    1.725452    0.603307   -1.126093
 C    2.019451    1.942279   -0.887115
 S    2.211924   -2.109210   -0.991263
 C    1.567337   -2.599398    0.655792
 C    0.650263   -1.559291    1.289425
 O    1.011260   -1.007423    2.311414
 C   -0.650025   -1.211726    0.649516
 C   -1.192108   -1.931199   -0.419287
 C   -2.411540   -1.575029   -0.991801
 C   -3.070657   -0.472998   -0.468291
 C   -2.545737    0.266160    0.604377
 C   -1.343782   -0.102043    1.163614
 C   -3.499790    1.385287    0.919963
 C   -4.626406    1.196350   -0.101500
 O   -5.626356    1.859072   -0.245424
 N   -4.281168    0.087324   -0.860700
 H    3.257728    4.003537    1.136231
 H    4.536036    3.989135   -0.081306
 H    2.882376    4.430550   -0.538297
 H    4.950876    1.575801    0.766223
 H    4.448370   -0.802668    0.331186
 H    0.815607    0.326823   -1.649489
 H    1.333564    2.709355   -1.237779
 H    2.392566   -2.759469    1.351526
 H    1.048449   -3.551091    0.498666
 H   -0.657326   -2.779333   -0.832107
 H   -2.823245   -2.140940   -1.821049
 H   -0.906307    0.444061    1.993157
 H   -3.063275    2.381931    0.797867
 H   -3.916271    1.333743    1.931269
 H   -4.867880   -0.247621   -1.609581
