34 
5am0_ligand_xtb.xyz
 C    2.650035   -1.755300    1.547640
 C    2.520232   -1.085981    0.177080
 C    1.211797   -0.362184    0.012326
 C   -0.080413   -0.826417    0.016149
 C   -1.142594    0.072858   -0.157923
 C   -0.864342    1.427044   -0.347846
 C    0.441121    1.884123   -0.345305
 C    1.484765    0.999475   -0.162493
 N    2.850751    1.216157   -0.122978
 C    3.545856    0.053642    0.070571
 O    4.745374   -0.033783    0.142697
 F    0.689974    3.203965   -0.530878
 C   -2.501547   -0.443457   -0.179941
 C   -2.941117   -1.619982   -0.757042
 C   -4.325611   -1.700974   -0.555198
 C   -4.688953   -0.584582    0.150870
 N   -3.589396    0.179143    0.371640
 C   -3.597807    1.382905    1.155045
 C    2.768991   -2.096996   -0.945063
 H    3.664554   -2.124629    1.675558
 H    2.435860   -1.042828    2.341669
 H    1.954076   -2.586704    1.627480
 H   -0.292156   -1.873554    0.161167
 H   -1.652405    2.137542   -0.535050
 H    3.283117    2.120645   -0.231000
 H   -2.331571   -2.320715   -1.292503
 H   -4.976838   -2.485144   -0.886379
 H   -5.651207   -0.283373    0.516868
 H   -2.631529    1.521668    1.638963
 H   -3.814443    2.259692    0.537459
 H   -4.368805    1.308685    1.922722
 H    2.634861   -1.627341   -1.917297
 H    3.787092   -2.472159   -0.876292
 H    2.074671   -2.929346   -0.860904
