62 
5am3_ligand_dft.xyz
 C   -6.213605    1.145691   -0.702555
 C   -7.332135   -0.247296    0.903159
 C   -5.067932    0.368587   -0.598534
 C   -6.195284   -1.025381    1.024209
 C   -7.362528    0.845688    0.027723
 C   -5.053817   -0.731573    0.266873
 C   -8.549474    1.736224   -0.142241
 C    2.509954   -0.636837   -0.114551
 C   -0.594956   -0.070560   -0.165896
 C   -0.626487   -2.507956   -0.824499
 C   -1.971630   -0.230705    0.483278
 C   -2.008383   -2.655515   -0.182891
 C    6.630503    1.151879    1.771887
 C    7.806077   -0.209748    0.020451
 C    7.043854    2.122599   -0.506060
 C    5.476019   -0.815820    0.729614
 C    4.709693    1.522697    0.199365
 C    5.877338    0.160153   -1.541915
 C    6.829190   -0.263671    1.205733
 C    6.064122    2.070248    0.676461
 C    7.234676    0.706886   -1.073407
 C    0.182746   -1.393828   -0.157285
 C   -2.768387   -1.334399   -0.210820
 C    4.888830    0.100082   -0.363438
 N    1.487217   -1.285559   -0.791285
 N    3.621146   -0.410243   -0.893525
 O   -8.481891    2.857867   -0.576117
 O    2.409696   -0.311511    1.061247
 O   -9.750620    1.223821    0.214538
 O   -4.013675   -1.572994    0.444162
 H   -6.229916    2.008084   -1.360796
 H   -8.184414   -0.482591    1.536961
 H   -4.197505    0.632856   -1.186770
 H   -6.158705   -1.867158    1.707052
 H   -0.010945    0.688331    0.362022
 H   -0.710881    0.268173   -1.206776
 H   -0.745369   -2.277700   -1.894724
 H   -0.075589   -3.451790   -0.762117
 H   -2.519197    0.717051    0.462193
 H   -1.858109   -0.508821    1.538785
 H   -1.904271   -2.971578    0.862694
 H   -2.594247   -3.424324   -0.696630
 H    7.587130    1.548047    2.137129
 H    5.943407    1.120378    2.626706
 H    7.968668   -1.219244   -0.380039
 H    8.782439    0.167811    0.350810
 H    8.010788    2.527711   -0.180539
 H    6.658053    2.792474   -1.285740
 H    4.766879   -0.878198    1.560355
 H    5.600488   -1.828315    0.321106
 H    4.290790    2.164646   -0.586445
 H    3.991576    1.494740    1.023208
 H    6.009579   -0.847641   -1.963868
 H    5.461170    0.797159   -2.333820
 H    7.232290   -0.919819    1.986169
 H    5.919891    3.079189    1.080317
 H    7.921786    0.738616   -1.927243
 H    0.375230   -1.667697    0.885007
 H   -2.955931   -1.062381   -1.260136
 H    1.465835   -1.153543   -1.794242
 H    3.715030   -1.010846   -1.701158
 H   -9.672879    0.274852    0.375599
