37 
5am5_ligand_dft.xyz
 C    3.835692   -1.667586   -1.023473
 C    3.106649   -2.173428    0.219927
 C    2.714935   -1.058167    1.205259
 C    1.813163   -0.018201    0.595909
 C    0.466412   -0.184020    0.483792
 C   -0.400365    0.780842   -0.124860
 C    0.188554    1.908154   -0.598250
 N    1.538514    2.093808   -0.489536
 C    2.439510    1.197197    0.081083
 O    3.635593    1.465904    0.117693
 C   -1.889812    0.555131   -0.235757
 C   -2.224939   -0.672868   -1.101505
 C   -3.736456   -0.885252   -1.221712
 C   -4.395662   -0.995919    0.155701
 C   -4.073596    0.225804    1.020427
 C   -2.562515    0.439594    1.143931
 H    3.183806   -1.031050   -1.631368
 H    4.710308   -1.069686   -0.750223
 H    4.164589   -2.503733   -1.649497
 H    3.741077   -2.892893    0.752497
 H    2.201222   -2.717951   -0.080716
 H    3.621172   -0.561111    1.565394
 H    2.215056   -1.508277    2.071284
 H    0.026159   -1.099563    0.877180
 H   -0.363208    2.709435   -1.078638
 H    1.965179    2.938081   -0.846835
 H   -2.322474    1.434766   -0.736593
 H   -1.770250   -1.566887   -0.651088
 H   -1.771378   -0.556747   -2.092628
 H   -3.942315   -1.782213   -1.816926
 H   -4.177629   -0.037823   -1.765673
 H   -4.028297   -1.901305    0.659576
 H   -5.480406   -1.111524    0.049909
 H   -4.518840    0.117177    2.015989
 H   -4.528297    1.118392    0.567435
 H   -2.346594    1.338406    1.733011
 H   -2.122643   -0.407079    1.690278
