50 
5am7_ligand_xtb.xyz
 C   -8.647029   -1.081029   -0.040296
 C   -6.733376   -0.133146    1.173597
 C   -5.205507   -0.108713    1.181323
 C   -5.156798   -0.209952   -1.195739
 C   -6.683513   -0.235286   -1.249088
 C   -3.311150    0.783293   -0.006260
 C    1.051810    0.076764    0.046455
 N    0.718538    1.397393    0.046635
 C   -1.553922    2.441878    0.021524
 C   -2.895560    2.116977    0.001310
 C    2.434458   -0.368636    0.045661
 C    3.479631    0.560536    0.024189
 C    5.998086    0.925850   -0.045209
 C    7.284999    0.437115   -0.075728
 C    7.492722   -0.936038   -0.068689
 O    1.902212   -2.712380    0.093092
 N   -7.191808   -0.893074   -0.017774
 N   -4.741515    0.530235   -0.027609
 C   -2.417333   -0.271363    0.009187
 C   -1.064788    0.030727    0.025556
 N    0.016940   -0.769894    0.035079
 C   -0.628596    1.405362    0.031890
 N    3.185969    1.868262    0.039720
 C    4.859746    0.109358   -0.006722
 F    5.882218    2.281486   -0.056474
 C    6.413155   -1.786904   -0.031800
 C    5.108949   -1.282481   -0.001193
 N    4.052329   -2.128684    0.035585
 C    2.689420   -1.784566    0.060425
 H   -9.136720   -0.110136   -0.096557
 H   -8.938751   -1.673252   -0.906151
 H   -8.977072   -1.589974    0.863872
 H   -7.118452    0.884542    1.097351
 H   -7.124915   -0.607669    2.074962
 H   -4.825395   -1.141633    1.302670
 H   -4.849907    0.476582    2.030334
 H   -4.764246    0.300626   -2.076028
 H   -4.777068   -1.249710   -1.213312
 H   -7.037965   -0.785229   -2.122512
 H   -7.069836    0.784415   -1.275188
 H   -1.233307    3.474345    0.027710
 H   -3.651511    2.890644   -0.009390
 H    8.109256    1.131563   -0.104737
 H    8.497811   -1.328245   -0.092400
 H   -6.729944   -1.811186    0.030656
 H   -2.742451   -1.304083    0.006794
 H    2.159452    2.062537    0.040079
 H    3.890945    2.576423   -0.015389
 H    6.556947   -2.857662   -0.026177
 H    4.229862   -3.125383    0.043154
