40 
5amg_ligand_xtb.xyz
 O   -3.210210   -2.684920   -0.133812
 S   -3.860536   -1.432971   -0.374226
 O   -4.739149   -1.290512   -1.495304
 N   -4.679251   -0.979343    1.010890
 C   -2.610105   -0.155872   -0.451180
 C   -2.689508    0.849449   -1.394889
 C   -1.698944    1.815752   -1.438765
 C   -0.619327    1.773589   -0.553786
 C    0.408948    2.871652   -0.720889
 O    0.062105    3.981600   -1.014129
 O    1.685199    2.532015   -0.636756
 C   -1.571198   -0.199446    0.454987
 C   -0.577160    0.760700    0.399268
 S    0.687964    0.649158    1.667747
 O    0.981782    1.940612    2.198191
 O    0.340307   -0.409811    2.565379
 N    2.025762    0.205743    0.726081
 C    1.966539   -1.164507    0.233117
 C    3.181070   -1.497272   -0.630058
 C    4.474461   -1.585320    0.180415
 C    5.646611   -2.136184   -0.633608
 C    6.080390   -1.208305   -1.762340
 H   -4.596384   -1.653105    1.754001
 H   -5.636978   -0.727671    0.831942
 H   -3.522088    0.854593   -2.080558
 H   -1.738435    2.621781   -2.155852
 H    1.856742    1.632870   -0.269234
 H   -1.520006   -0.974456    1.202432
 H    2.873810    0.375409    1.254049
 H    1.050762   -1.238651   -0.360248
 H    1.883724   -1.867160    1.070681
 H    3.276816   -0.738278   -1.406911
 H    2.996198   -2.458740   -1.112028
 H    4.307148   -2.239642    1.039559
 H    4.745788   -0.596764    0.557833
 H    5.372801   -3.109167   -1.046893
 H    6.491703   -2.290353    0.040651
 H    5.303701   -1.117618   -2.516760
 H    6.305220   -0.216677   -1.376135
 H    6.974143   -1.597445   -2.243844
