37 
5amn_ligand_xtb.xyz
 N   -0.772431   -2.134943    0.013489
 C    0.218278   -3.024656    0.015640
 N    1.497316   -2.787675    0.008333
 C    1.868760   -1.486869    0.004037
 C    0.918979   -0.437177    0.008122
 C   -0.453709   -0.851589    0.007508
 C    3.244213   -1.184594   -0.004770
 C    3.677797    0.114507   -0.005246
 C    2.721039    1.178830    0.006566
 C    1.380002    0.895105    0.011441
 N   -1.437857    0.086076   -0.000856
 C   -2.820861   -0.046175   -0.002449
 C   -3.562563    1.133402   -0.010949
 C   -4.948580    1.093858   -0.012194
 C   -5.605332   -0.130908   -0.005250
 C   -4.863110   -1.298788    0.002855
 C   -3.481858   -1.272602    0.004264
 O   -5.620340    2.279050   -0.020045
 O    4.970699    0.514338   -0.015575
 C    5.971098   -0.475444   -0.037113
 O    3.262935    2.425163    0.011876
 C    2.400963    3.534499    0.029151
 H   -0.091228   -4.062665    0.022666
 H    3.923557   -2.019962   -0.010145
 H    0.672779    1.710217    0.019438
 H   -1.122638    1.045127   -0.008170
 H   -3.077321    2.098327   -0.016487
 H   -6.686366   -0.164689   -0.006082
 H   -5.373795   -2.249819    0.008283
 H   -2.905327   -2.180390    0.010528
 H   -6.570226    2.111330   -0.018969
 H    5.924779   -1.111101    0.852542
 H    5.896046   -1.100303   -0.932463
 H    6.916852    0.063611   -0.048949
 H    1.765270    3.566427   -0.862500
 H    1.772281    3.543851    0.926228
 H    3.049088    4.409031    0.037588
