44 
5anv_ligand_xtb.xyz
Cl    5.233175   -2.201178   -0.698124
 C    3.562256   -2.018160   -0.302039
 N   -0.457676   -1.526395    0.735984
 C   -1.335854   -0.538069    0.371232
 C   -3.146006   -2.261233    0.277020
 O   -2.560944   -3.091498    0.972845
 N   -4.253472   -2.587344   -0.420337
 C   -0.949989    0.828470    0.288786
 C    0.666134    2.622730    0.495352
 O    1.875393    3.160472    0.797444
 C    2.896328    2.301498    1.241096
 C   -0.299122    3.552970   -0.008355
 C   -0.751260    5.798919   -0.609017
 C    0.861931   -1.675479    0.362694
 C   -2.682885   -0.862973    0.144759
 C   -4.839440   -3.903225   -0.375354
 C   -1.924864    1.764916   -0.136256
 N   -3.210468    1.426224   -0.358773
 C   -3.561449    0.184127   -0.188862
 C    0.330459    1.304272    0.643687
 C   -1.566043    3.118512   -0.293763
 O    0.146016    4.824653   -0.133599
 C    3.051001   -2.604518    0.846055
 C    1.719527   -2.433901    1.165681
 C    2.735886   -1.293521   -1.146766
 C    1.404747   -1.145488   -0.816045
 F    0.611081   -0.478933   -1.682722
 H   -0.939088   -2.362065    1.085207
 H   -4.675515   -1.907467   -1.030778
 H    2.643594    1.832704    2.198065
 H    3.115426    1.520612    0.504642
 H    3.773928    2.932371    1.371111
 H   -1.109742    5.556148   -1.614142
 H   -1.607823    5.915616    0.062300
 H   -0.185788    6.728715   -0.639824
 H   -4.818342   -4.370414   -1.361833
 H   -4.251132   -4.500557    0.319417
 H   -5.872090   -3.851593   -0.025353
 H   -4.621256   -0.006493   -0.312494
 H    1.044472    0.613544    1.059908
 H   -2.338131    3.785639   -0.638209
 H    3.694401   -3.185948    1.486382
 H    1.316681   -2.885259    2.059056
 H    3.106162   -0.860621   -2.061949
