33 
5aoi_ligand_dft.xyz
 N   -1.730597    2.002899   -0.333082
 C   -0.641544   -0.041580   -0.399968
 C   -0.513926    1.376446   -0.275141
 C   -2.036646   -0.262857   -0.547369
 C   -2.625431    1.013974   -0.482680
 C    0.751086    1.968237   -0.105859
 C    0.491591   -0.870255   -0.348315
 C    1.861412    1.133381   -0.050303
 C    1.716285   -0.257795   -0.169792
Br    3.285404   -1.352023   -0.081302
 C   -2.690991   -1.599771   -0.561604
 C   -4.094501    1.320557   -0.556689
 N   -2.990189   -3.621624    0.940851
 C    0.876205    3.462738    0.048169
 C   -2.560250   -2.140074    0.854448
 C    0.346558    3.953966    1.400913
 H    0.431985   -1.951471   -0.462880
 H    2.852865    1.555081    0.084506
 H   -2.197916   -2.294743   -1.264371
 H   -3.749922   -1.534581   -0.846835
 H   -4.633073    0.998702    0.346675
 H   -4.231718    2.399894   -0.656487
 H   -4.575521    0.831500   -1.414228
 H   -2.885735   -4.013457    1.879926
 H   -3.966123   -3.725587    0.652632
 H   -2.419832   -4.176030    0.296632
 H    0.302426    3.948907   -0.749216
 H    1.925182    3.760300   -0.073043
 H   -3.189187   -1.596640    1.560824
 H   -1.521291   -2.113791    1.188277
 H   -0.711523    3.694543    1.495602
 H    0.895671    3.486047    2.225958
 H    0.450996    5.041405    1.492354
