28 
5aok_ligand_dft.xyz
 C  123.777061  101.402040  -46.472765
 N  123.753538  102.643604  -46.135604
 C  124.348708  102.695004  -44.872992
 C  124.708715  101.426941  -44.513627
 O  124.347294  100.601567  -45.527391
 C  124.461107  103.986788  -44.235860
 N  125.311447  100.811710  -43.442729
 C  123.284831  100.772905  -47.699731
 C  125.771871  101.425498  -42.283004
 C  126.297893  100.453391  -41.485068
 C  126.162094   99.202618  -42.164105
 C  125.556091   99.444134  -43.359999
 N  124.965448  104.338822  -43.068719
 N  124.809336  105.680881  -42.979163
 N  124.238508  106.154337  -44.029137
 N  124.010833  105.104534  -44.832836
 C  124.012372   99.584456  -48.292356
 C  122.674128   99.387949  -47.654699
 H  122.852914  101.494215  -48.383821
 H  123.566472  105.200487  -45.734285
 H  125.672762  102.494527  -42.154842
 H  125.271561   98.785694  -44.164538
 H  124.086371   99.544716  -49.373961
 H  124.887130   99.222364  -47.761720
 H  122.637873   98.892099  -46.689972
 H  121.813424   99.210961  -48.290916
 H  126.737159  100.616889  -40.511538
 H  126.478059   98.232872  -41.806620
