19 
5aol_ligand_xtb.xyz
 C   -0.984206   -0.159810    0.007579
 C    0.245289   -0.795746    0.018003
 C    1.388804   -0.018026   -0.006511
 C    1.302192    1.370923   -0.002154
 C    0.069287    2.000715    0.010492
 C   -1.116495    1.226142   -0.018335
 N   -2.337643    1.859811   -0.000429
 N   -0.036753    3.382883   -0.023252
Br   -2.556272   -1.243436    0.008396
 C    2.749127   -0.642147   -0.008330
 F    3.509306   -0.206765   -1.032173
 F    2.725985   -1.977535   -0.095323
 F    3.445964   -0.347726    1.109388
 H    0.305030   -1.871900    0.030432
 H    2.205414    1.962127   -0.002668
 H   -3.135942    1.260824   -0.156981
 H   -2.379746    2.736548   -0.495262
 H    0.835730    3.865046    0.132882
 H   -0.795479    3.764666    0.521989
