33 
5aom_ligand_xtb.xyz
Cl   -4.226995   -2.190071   -0.000764
 C    0.931585   -0.179958   -0.022949
 N   -0.013293    0.772118    0.002647
 O    0.749958   -1.378182   -0.058334
 C   -1.409631    0.614624    0.000641
 N    5.107864   -0.676601    0.009308
 O   -1.475184    2.983099    0.010410
 C   -2.050534   -0.613406   -0.002274
 C   -2.162223    1.799331    0.006410
 C    2.384661    0.350025    0.002214
 C   -3.544853    1.731365    0.008484
 C   -3.437383   -0.658374    0.000918
 C   -4.188432    0.505541    0.006064
 C    4.555173   -0.056254    1.242217
 C    4.583112    0.000923   -1.205701
 C    3.046252   -0.241317    1.252145
 C    3.074482   -0.180464   -1.259436
 H    0.254674    1.748263    0.021188
 H    4.800694   -1.658421   -0.017023
 H    6.132820   -0.655645    0.021431
 H   -2.100770    3.717386    0.013209
 H   -1.473099   -1.521896   -0.007434
 H    2.415831    1.440861    0.029048
 H   -4.125250    2.642744    0.012100
 H   -5.264804    0.457933    0.008301
 H    4.818695    1.003299    1.239881
 H    5.004457   -0.527922    2.117580
 H    5.052093   -0.430426   -2.091477
 H    4.847435    1.058742   -1.148254
 H    2.796972   -1.304728    1.297630
 H    2.635398    0.227359    2.146184
 H    2.685542    0.333086   -2.138511
 H    2.824791   -1.239602   -1.363559
