66 
5ap0_ligand_dft.xyz
 O   -4.680663   -3.395139   -0.140614
 C   -4.407189   -2.216914   -0.050383
 N   -5.279087   -1.139974   -0.072182
 C   -6.710993   -1.276116   -0.205879
 C   -4.559285    0.042810    0.023315
 C   -4.843067    1.389409   -0.003853
 N   -3.855639    2.294310    0.109807
 N   -3.116214   -1.673474    0.095774
 C   -1.907945   -2.475678   -0.010050
 C   -0.916340   -2.243685    1.159054
 C    0.474559   -2.235497    0.506955
 C    0.223222   -1.578458   -0.855750
 C   -1.105883   -2.192991   -1.311772
 C   -3.205161   -0.307365    0.129778
 N   -2.212062    0.549904    0.230350
 C   -2.609848    1.836510    0.236182
 N   -1.624569    2.791529    0.381376
 C   -0.269270    2.497605    0.568750
 C    0.697258    3.122586   -0.243018
 O    0.212605    4.017405   -1.132353
 C    1.129492    4.731093   -1.937237
 C    2.044081    2.783098   -0.112066
 C    2.422484    1.846386    0.845559
 C    1.492132    1.274863    1.700646
 C    0.151382    1.612342    1.554948
 O    3.765333    1.495253    0.908347
 C    4.003843    0.126752    0.700821
 C    5.489278   -0.126684    0.924118
 C    5.825948   -1.591433    0.684971
 N    5.403861   -2.029926   -0.698291
 C    5.774311   -3.449357   -0.968596
 C    3.931946   -1.774166   -0.935252
 C    3.606550   -0.309625   -0.711305
 H   -7.221172   -0.840393    0.658574
 H   -7.061241   -0.786418   -1.120024
 H   -6.935132   -2.342194   -0.259034
 H   -5.852281    1.777640   -0.113241
 H   -2.275675   -3.503499   -0.009864
 H   -1.023180   -3.000161    1.940452
 H   -1.106353   -1.265044    1.606400
 H    0.837985   -3.264368    0.372974
 H    1.206787   -1.691778    1.117091
 H    1.024732   -1.757073   -1.583943
 H    0.105223   -0.497131   -0.720122
 H   -1.660632   -1.543585   -1.993240
 H   -0.927623   -3.138351   -1.835201
 H   -1.876221    3.717478    0.068348
 H    1.837536    5.300431   -1.323423
 H    1.680237    4.056848   -2.604932
 H    0.531335    5.418455   -2.534768
 H    2.807581    3.218353   -0.745430
 H    1.799662    0.595330    2.488719
 H   -0.590817    1.177122    2.212779
 H    3.433384   -0.479957    1.421667
 H    5.768862    0.130471    1.949450
 H    6.075574    0.521398    0.260829
 H    5.295397   -2.248695    1.380647
 H    6.897225   -1.786463    0.769819
 H    5.914706   -1.441180   -1.363643
 H    6.849102   -3.572159   -0.830379
 H    5.232710   -4.086851   -0.268424
 H    5.496520   -3.701702   -1.992499
 H    3.390275   -2.420887   -0.237349
 H    3.709943   -2.099376   -1.954095
 H    4.121229    0.323058   -1.446429
 H    2.533065   -0.168987   -0.862200
