57 
5ap1_ligand_xtb.xyz
 N    3.241421   -4.372985    2.032240
 C    3.686452   -3.831216    1.130214
 C    4.250386   -3.141315   -0.018021
 O    4.039172   -1.750913   -0.015125
 C    2.762374   -1.264245   -0.169393
 C    2.634103    0.133027   -0.267316
 C    3.774209    1.030348   -0.180786
 C    5.115849    0.791459   -0.429208
 C    3.748154    2.392431    0.193283
 N    4.954416    2.917692    0.172381
 N    5.774733    1.944635   -0.209889
 C    7.182233    2.184991   -0.335979
 C    1.641616   -2.073075   -0.216241
 C    0.363680   -1.527027   -0.361514
 C    0.231998   -0.149380   -0.493192
 C    1.353429    0.650903   -0.438293
 N   -0.706570   -2.406952   -0.398952
 C   -2.050079   -2.166118   -0.319773
 N   -2.475806   -0.924151   -0.128111
 C   -3.779411   -0.677410   -0.044681
 C   -4.746561   -1.708465   -0.192201
 C   -6.111730   -1.402189   -0.140282
 N   -7.223970   -1.110391   -0.099938
 C   -4.285449   -3.011120   -0.387211
 C   -2.933212   -3.254887   -0.442059
 N   -4.161454    0.588830    0.210431
 C   -3.240828    1.694584    0.346234
 C   -3.776343    2.702355    1.360637
 C   -2.785012    3.850241    1.532074
 C   -2.524539    4.537345    0.194893
 C   -2.001827    3.532431   -0.827140
 C   -2.990590    2.383928   -0.999882
 H    3.859706   -3.607905   -0.937468
 H    5.339482   -3.268410    0.008662
 H    5.625308   -0.092062   -0.751543
 H    2.910597    2.990353    0.491198
 H    7.745634    1.555082    0.355605
 H    7.518981    1.983145   -1.354811
 H    7.360541    3.231294   -0.096813
 H    1.730025   -3.145443   -0.113850
 H   -0.745131    0.274731   -0.632311
 H    1.241501    1.718586   -0.546220
 H   -0.454609   -3.385747   -0.411713
 H   -4.998138   -3.816181   -0.493080
 H   -2.552834   -4.253865   -0.586276
 H   -5.148135    0.796562    0.179279
 H   -2.300352    1.271468    0.713004
 H   -3.945771    2.204808    2.317474
 H   -4.733822    3.095406    1.008988
 H   -1.845284    3.458292    1.927220
 H   -3.176868    4.570974    2.252131
 H   -1.800700    5.343644    0.327096
 H   -3.453556    4.979084   -0.172692
 H   -1.044111    3.133918   -0.485757
 H   -1.837392    4.026318   -1.786743
 H   -3.937632    2.766657   -1.388638
 H   -2.603619    1.654269   -1.713836
