66 
5ap3_ligand_dft.xyz
 O    6.307758   -2.237444    0.297853
 C    5.582005   -1.266591    0.324124
 N    5.931876    0.041891    0.620266
 C    7.276974    0.452261    0.948337
 C    4.809453    0.849842    0.540170
 C    4.535231    2.186580    0.717077
 N    3.286412    2.647227    0.550474
 N    4.200204   -1.251052    0.056414
 C    3.455079   -2.444639   -0.305958
 C    2.767759   -2.363422   -1.694074
 C    1.405831   -3.077450   -1.525082
 C    1.463524   -3.754015   -0.143007
 C    2.340746   -2.814046    0.685013
 C    3.729592    0.026045    0.186886
 N    2.489224    0.446088    0.016675
 C    2.339120    1.767719    0.211817
 N    1.087985    2.324830    0.060248
 C   -0.125891    1.758610   -0.301434
 C   -1.218106    2.657685   -0.406611
 O   -0.913519    3.952907   -0.141325
 C   -1.917126    4.931973   -0.307299
 C   -2.483528    2.202226   -0.745975
 C   -2.674689    0.845411   -1.010074
 C   -1.622240   -0.046291   -0.929929
 C   -0.353477    0.409797   -0.568677
 O   -3.952297    0.436759   -1.381640
 C   -4.569369   -0.462593   -0.501579
 C   -5.854539   -0.928042   -1.178263
 C   -6.658465   -1.849161   -0.274667
 N   -6.963603   -1.177114    1.043474
 C   -7.816123   -2.030356    1.921352
 C   -5.695120   -0.737724    1.738175
 C   -4.892579    0.193688    0.845834
 H    7.645392    1.183020    0.221554
 H    7.313842    0.886829    1.952225
 H    7.906599   -0.437823    0.916527
 H    5.294877    2.913837    0.991407
 H    4.206868   -3.238127   -0.310565
 H    3.391917   -2.840092   -2.454410
 H    2.629558   -1.321479   -1.993134
 H    1.204876   -3.790488   -2.329410
 H    0.595320   -2.339360   -1.542618
 H    1.945648   -4.735947   -0.223429
 H    0.473623   -3.912328    0.296143
 H    1.778569   -1.914720    0.961715
 H    2.736339   -3.266662    1.598601
 H    1.076903    3.324202    0.208185
 H   -2.297909    4.937460   -1.335542
 H   -2.747271    4.771807    0.392143
 H   -1.442851    5.888613   -0.089848
 H   -3.326523    2.877002   -0.834217
 H   -1.764260   -1.095855   -1.170666
 H    0.477208   -0.277932   -0.508778
 H   -3.923318   -1.336159   -0.318848
 H   -5.620235   -1.462987   -2.102527
 H   -6.448316   -0.050075   -1.462315
 H   -6.107853   -2.761202   -0.024630
 H   -7.614722   -2.130853   -0.720908
 H   -7.491480   -0.325784    0.826493
 H   -8.736053   -2.281100    1.392046
 H   -7.264041   -2.940216    2.160830
 H   -8.047017   -1.483290    2.836052
 H   -5.147222   -1.655977    1.971318
 H   -5.991311   -0.261437    2.675464
 H   -5.442933    1.126656    0.666617
 H   -3.968826    0.464563    1.365630
