39 
5aqg_ligand_dft.xyz
 C   -3.773055    1.904660    1.075869
 N   -0.395523    0.167387   -0.533572
 O   -2.473020    1.154119   -0.785997
 C   -3.761839    1.005325   -0.152908
 N    2.871394    3.237869   -0.474807
 O   -2.438126   -2.348920   -0.100022
 C   -1.805157   -0.074212   -0.831914
 N    4.000611    1.176749   -0.103763
 O   -4.574281   -1.084896   -0.968818
 C   -2.482993   -0.988161    0.209710
 N    4.006530   -0.179313    0.372803
 O   -2.744942    1.578472    1.985302
 C   -3.925615   -0.488475    0.129604
 N    0.359878   -2.124602    0.048283
 C    0.273761    1.382786   -0.681665
 N    2.750186   -2.206061    0.477399
 C    1.602795    1.194672   -0.397105
 C    2.832192    1.973339   -0.320900
 C    2.851904   -0.889163    0.265611
 C    1.727361   -0.166518   -0.079751
 C    0.510980   -0.800510   -0.174592
 C    1.511741   -2.724300    0.358684
 C    5.299675   -0.818415    0.235697
 H   -3.696975    2.952061    0.749538
 H   -4.720547    1.786540    1.609665
 H   -4.531784    1.324559   -0.862598
 H    3.821501    3.607521   -0.404247
 H   -1.495839   -2.614810   -0.049404
 H   -1.885263   -0.525001   -1.829377
 H    4.687670    1.685811    0.440697
 H   -4.241533   -1.995203   -1.006072
 H   -2.070059   -0.766323    1.201649
 H   -1.910537    1.744602    1.526056
 H   -4.469660   -0.670121    1.066099
 H   -0.272516    2.263355   -0.979531
 H    1.444246   -3.793162    0.540919
 H    5.655310   -0.760063   -0.799493
 H    5.179154   -1.860798    0.531377
 H    6.027765   -0.339529    0.898557
