39 
5aqg_ligand_xtb.xyz
 C   -3.904968    1.934397    0.952213
 N   -0.384312    0.163247   -0.593667
 O   -2.491721    1.125380   -0.809108
 C   -3.779366    0.939584   -0.209851
 N    2.871289    3.234003   -0.463107
 O   -2.317884   -2.350928   -0.045371
 C   -1.784638   -0.079997   -0.844003
 N    3.945534    1.194120   -0.029400
 O   -4.623759   -1.257778   -0.702897
 C   -2.405923   -0.992907    0.241211
 N    4.009900   -0.180917    0.303888
 O   -2.861938    1.778408    1.877618
 C   -3.872722   -0.531009    0.227238
 N    0.393537   -2.128230   -0.038240
 C    0.268234    1.376696   -0.696405
 N    2.760433   -2.215413    0.403924
 C    1.600079    1.207466   -0.413761
 C    2.823502    1.981568   -0.304006
 C    2.879606   -0.897588    0.198686
 C    1.744353   -0.167961   -0.135957
 C    0.515572   -0.802169   -0.251504
 C    1.536971   -2.719418    0.272334
 C    5.313701   -0.750344    0.484614
 H   -3.909037    2.953234    0.542465
 H   -4.836817    1.762417    1.492312
 H   -4.550800    1.138142   -0.962340
 H    3.787758    3.657784   -0.353344
 H   -1.361950   -2.585873   -0.056645
 H   -1.896524   -0.567600   -1.831080
 H    4.794458    1.686860    0.212130
 H   -4.243312   -2.148771   -0.731285
 H   -1.950068   -0.747626    1.212295
 H   -2.033257    1.907975    1.397983
 H   -4.320138   -0.616323    1.226701
 H   -0.280937    2.253446   -0.969455
 H    1.466541   -3.784731    0.446347
 H    5.926693   -0.629420   -0.413152
 H    5.166462   -1.810079    0.682255
 H    5.822272   -0.287671    1.334249
