20 
5aqn_ligand_xtb.xyz
 O    2.962001   -1.834717    0.001303
 C    2.345774   -0.794378    0.000212
 N    3.021141    0.440139    0.000810
 C    2.423553    1.659819    0.000734
 N    1.156771    1.857902   -0.000395
 C    0.395805    0.729842   -0.001325
 C    0.924456   -0.556229   -0.001343
 O   -0.045032   -1.501219   -0.001534
 C   -1.223479   -0.831770   -0.001255
 C   -1.025381    0.566234   -0.001372
 C   -2.494618   -1.386547    0.000426
 C   -3.562600   -0.511964    0.001443
 C   -3.378765    0.873053    0.000856
 C   -2.118491    1.428811   -0.000260
 H    4.032060    0.370911    0.001611
 H    3.076356    2.521403    0.001797
 H   -2.630159   -2.455788    0.001347
 H   -4.566834   -0.907726    0.003342
 H   -4.246283    1.515561    0.001667
 H   -1.963816    2.495616    0.000470
