18 
5aqp_ligand_xtb.xyz
 C   -1.779927   -1.222128   -0.004801
 C   -2.711313   -0.219878   -0.003670
 C   -2.313728    1.123442    0.003300
 C   -0.984130    1.455228    0.006568
 C   -0.004422    0.449162    0.002150
 C   -0.406755   -0.911839   -0.000990
 N    0.498009   -1.919910    0.000347
 C    1.752489   -1.579724    0.003325
 N    2.262630   -0.346422   -0.001534
 C    1.412665    0.665559   -0.001926
 N    1.950597    1.902793    0.020909
 H   -2.061952   -2.262994   -0.007772
 H   -3.765118   -0.457757   -0.007280
 H   -3.064541    1.899934    0.006409
 H   -0.694933    2.496898    0.016885
 H    2.480406   -2.382083    0.005027
 H    1.388246    2.721158   -0.116594
 H    2.949971    1.970687   -0.058458
