57 
5arf_ligand_xtb.xyz
 C   -2.825033   -2.187424    0.788329
 C   -3.903613   -3.039412    0.885934
 C   -5.076740   -2.735655    0.207218
Cl   -6.431284   -3.796770    0.329333
 C   -5.168462   -1.588745   -0.567743
 C   -4.085238   -0.738147   -0.663588
 C   -2.897699   -1.022866    0.015852
 C   -1.756959   -0.141099   -0.069518
 N   -0.620520   -0.398243    0.470395
 C   -1.761689    1.212091   -0.770540
 N   -2.614076    2.186002   -0.102388
 C   -2.412687    2.425312    1.314819
 C   -3.338695    1.594082    2.203558
 C   -3.570044    2.790073   -0.837557
 O   -3.781887    2.506185   -2.007510
 C   -4.404230    3.891556   -0.194503
 O   -5.352340    4.350327   -1.108459
 C   -0.267333    1.572239   -0.703706
 N    0.245252    0.632098    0.294638
 C    1.635899    0.287644    0.321280
 N    1.888015   -0.313563    1.621665
 C    3.084507   -0.333535    2.159227
 N    4.126021   -0.295818    2.640985
 N    1.959505   -0.577277   -0.788364
 C    3.258347   -1.003654   -1.046138
 C    4.365163   -0.274030   -0.616226
 C    3.457778   -2.167948   -1.785949
 C    4.737791   -2.593218   -2.084069
 C    5.840176   -1.894727   -1.627806
 C    5.641370   -0.738378   -0.885811
 O    6.776371   -0.074293   -0.452675
 C    6.675916    0.741527    0.620502
 F    7.913175    0.948686    1.091297
 F    6.207616    1.976428    0.273280
 H   -1.908189   -2.405818    1.312767
 H   -3.844243   -3.935112    1.483795
 H   -6.083423   -1.365136   -1.093085
 H   -4.168146    0.145373   -1.276034
 H   -2.124432    1.147378   -1.799419
 H   -2.559832    3.487956    1.520241
 H   -1.377214    2.177333    1.555163
 H   -3.215590    1.903247    3.237981
 H   -3.101696    0.536656    2.128433
 H   -4.379444    1.729225    1.922199
 H   -3.739108    4.719294    0.096310
 H   -4.915980    3.522752    0.701680
 H   -5.175473    3.876933   -1.943085
 H   -0.091127    2.599174   -0.381495
 H    0.224898    1.407466   -1.667792
 H    2.220980    1.212133    0.245695
 H    1.228662   -1.031749    1.890186
 H    1.262012   -1.296229   -0.940605
 H    4.235054    0.649749   -0.079239
 H    2.603161   -2.732401   -2.129301
 H    4.878279   -3.492585   -2.663458
 H    6.844970   -2.224515   -1.829548
 H    6.032908    0.363678    1.437976
