57 
5arg_ligand_dft.xyz
 C    1.956357    0.474803   -1.315568
 C    3.287494    0.863182   -1.315005
Cl    3.693568    2.449572   -1.894685
 C    4.270228   -0.014171   -0.843308
Cl    5.946472    0.432066   -0.822367
 C    3.899088   -1.270181   -0.373707
 C    2.566890   -1.659380   -0.375068
 C    1.582503   -0.789956   -0.853080
 C    0.169825   -1.180364   -0.845088
 N   -0.755557   -0.453891   -1.363286
 C   -0.392389   -2.395833   -0.116387
 N   -0.317303   -2.251415    1.334601
 C   -0.939089   -1.089495    1.987236
 C    0.007878    0.090317    2.202375
 C    0.411656   -3.168411    2.024386
 O    1.039141   -4.075120    1.478171
 C    0.425569   -3.107179    3.554566
 O    1.298248   -4.068503    4.054432
 C   -1.819893   -2.401136   -0.687099
 N   -1.984952   -1.003518   -1.075341
 C   -3.050345   -0.549245   -1.938488
 N   -2.858623   -0.893320   -3.350885
 C   -3.263840   -2.102003   -3.766199
 N   -3.654783   -3.139635   -4.118669
 N   -3.211722    0.888524   -1.844118
 C   -3.281386    1.368724   -0.510034
 C   -2.225272    2.109843    0.024561
 C   -4.390906    1.067665    0.278143
 C   -4.433094    1.501436    1.599794
 C   -3.398044    2.254698    2.140058
 C   -2.303317    2.561316    1.337544
 O   -1.292179    3.272727    1.945276
 C   -0.415324    3.961692    1.155685
 F    0.510363    3.122304    0.617363
 F    0.230863    4.816138    1.950923
 H    1.200503    1.167331   -1.666661
 H    4.664429   -1.943017   -0.003537
 H    2.304926   -2.640617    0.009833
 H    0.136464   -3.317105   -0.355843
 H   -1.361811   -1.418451    2.940661
 H   -1.784021   -0.773498    1.369024
 H   -0.483287    0.849225    2.817959
 H    0.282861    0.564592    1.258713
 H    0.927781   -0.218697    2.708175
 H   -0.603000   -3.275809    3.914977
 H    0.727596   -2.109399    3.897186
 H    1.563413   -4.596932    3.281035
 H   -2.574947   -2.703714    0.042038
 H   -1.869529   -3.069887   -1.557994
 H   -3.962734   -1.049344   -1.606765
 H   -1.963288   -0.599805   -3.728002
 H   -2.448315    1.339177   -2.339222
 H   -1.326777    2.256720   -0.562830
 H   -5.219263    0.510419   -0.147711
 H   -5.296813    1.265642    2.213653
 H   -3.425174    2.615053    3.162247
 H   -0.909354    4.496334    0.337326
