34 
5aut_ligand_dft.xyz
 C   -0.058199    1.125952    0.465142
 C    0.230268    2.478408    0.523498
 C   -0.743286    3.461128    0.299536
 C   -2.037552    3.089922    0.055915
 C   -2.388111    1.720342   -0.011115
 C   -3.742105    1.380427   -0.272563
 C   -4.138294    0.082463   -0.405764
 C   -3.177624   -0.941124   -0.302177
 N    0.954133    0.208456    0.732603
 S   -0.869107   -2.147344    0.064489
 C   -1.859436   -0.655343   -0.030941
 C   -1.397730    0.697236    0.157911
 C    2.271992    0.258540    0.280209
 C    2.669956    1.027122   -0.820615
 C    3.994249    1.005488   -1.243500
 C    4.940773    0.215790   -0.597718
 C    4.540687   -0.563192    0.485472
 C    3.224497   -0.541687    0.925593
 O   -0.234924   -2.244695    1.367578
 O    0.285537   -1.900002   -1.042886
 O   -1.655249   -3.266824   -0.423139
 H    1.244309    2.771921    0.773282
 H   -0.468087    4.509694    0.354191
 H   -2.814382    3.833724   -0.093718
 H   -4.461300    2.188872   -0.371327
 H   -5.173477   -0.171274   -0.606746
 H   -3.475284   -1.972479   -0.446520
 H    0.725805   -0.572365    1.332384
 H    1.941559    1.628610   -1.354019
 H    4.283295    1.609555   -2.099102
 H    5.972336    0.204060   -0.934795
 H    5.261153   -1.192430    1.000260
 H    2.920442   -1.151228    1.772500
 H    0.126988   -2.545007   -1.752154
