31 
5auu_ligand_xtb.xyz
 C    2.482023   -1.769185    0.162015
 O    4.592309   -2.790975    0.284340
 C    3.867160   -1.655263    0.176012
 O    4.314252    1.929261   -0.121226
 C    4.477864   -0.408909    0.080034
 O    1.945333    2.970878   -0.256186
 C    3.714574    0.745033   -0.030577
 O    0.364702   -0.778389    0.042375
 C    2.302853    0.643900   -0.045740
 O   -5.104429    1.478386    0.616641
 C    1.710872   -0.622284    0.051130
 O   -5.900532   -1.008610   -0.101342
 C    1.470730    1.831188   -0.164053
 C    0.051746    1.562660   -0.169736
 C   -0.434633    0.301818   -0.063675
 C   -1.860174   -0.039983   -0.073402
 C   -2.831669    0.897246    0.278755
 C   -4.172906    0.560987    0.265556
 C   -4.558278   -0.736857   -0.108342
 C   -3.595007   -1.667724   -0.454567
 C   -2.255809   -1.326392   -0.433965
 H    2.017292   -2.736778    0.238363
 H    5.534890   -2.581339    0.284694
 H    3.595116    2.618031   -0.193227
 H    5.553892   -0.317220    0.090498
 H   -5.976693    1.065253    0.550837
 H   -6.048067   -1.923342   -0.365399
 H   -0.610837    2.403500   -0.280170
 H   -2.566034    1.892999    0.590650
 H   -3.896160   -2.665901   -0.741413
 H   -1.512562   -2.057028   -0.708317
