31 
5aux_ligand_dft.xyz
 C   -4.223899   -0.699752   -0.009167
 C   -3.531439    0.498646    0.006998
 C   -2.108415    0.496172    0.003370
 C   -1.436673   -0.731854   -0.015217
 C   -2.117998   -1.942705   -0.031657
 C   -3.512301   -1.904994   -0.028566
 C   -1.343454    1.707519    0.020383
 C    0.102631    1.565528    0.016658
 C    0.692171    0.339942   -0.003284
 C    2.123992    0.018931   -0.003156
 C    3.110021    1.012829   -0.123796
 C    4.455084    0.684164   -0.123572
 C    4.852460   -0.647553   -0.001924
 C    3.885973   -1.646962    0.117942
 C    2.540055   -1.313672    0.116023
 O   -0.088285   -0.783005   -0.019915
 O   -1.830440    2.859043    0.041947
 O    6.183048   -0.908342   -0.006893
 O    0.782232    2.732100    0.040630
 O   -4.251864   -3.035428   -0.044066
 O   -4.203734    1.650506    0.025974
 H   -5.306721   -0.707969   -0.006846
 H   -1.564046   -2.875420   -0.047513
 H    2.820248    2.050594   -0.219572
 H    5.215034    1.452179   -0.218363
 H    4.184214   -2.688659    0.213954
 H    1.802427   -2.101459    0.209816
 H    6.323644   -1.858504    0.084045
 H    0.080687    3.413733    0.057816
 H   -3.668167   -3.803720   -0.057788
 H   -3.544227    2.382798    0.036831
