30 
5auz_ligand_xtb.xyz
 C    3.439628   -1.370026    0.156855
 C    4.397640   -0.371582    0.027857
 O    5.697756   -0.733911    0.065747
 C    4.015512    0.956314   -0.135662
 C    2.674480    1.310575   -0.171185
 O    2.342012    2.588468   -0.329800
 C    1.682837    0.304942   -0.037032
 C    0.271843    0.652635   -0.065739
 O   -0.115566    1.817002   -0.212958
 C   -0.635312   -0.488459    0.078077
 C   -0.107709   -1.724302    0.223947
 O    1.193031   -2.027908    0.251900
 C    2.096995   -1.026935    0.123046
 C   -2.090291   -0.287534    0.051008
 C   -2.674240    0.794665    0.707353
 C   -4.040525    0.977618    0.688855
 C   -4.857431    0.082296    0.004769
 O   -6.199180    0.296411    0.010561
 C   -4.282632   -0.994969   -0.660621
 C   -2.913961   -1.175793   -0.635590
 H    3.737939   -2.396269    0.282185
 H    6.261650    0.043669   -0.034317
 H    4.755019    1.736663   -0.238529
 H    1.345840    2.637171   -0.332189
 H   -0.722034   -2.605464    0.351579
 H   -2.052210    1.496010    1.239152
 H   -4.497885    1.810528    1.198140
 H   -6.643903   -0.385838   -0.506924
 H   -4.910974   -1.689085   -1.203980
 H   -2.478882   -2.004576   -1.174346
