15 
5avf_ligand_xtb.xyz
 C    1.723233   -0.795243    0.064385
 C    0.488835   -0.923154   -0.807053
 N    2.207661    0.607635    0.067802
 S   -0.815531    0.120215   -0.084515
 O   -2.034901    0.066271   -0.790897
 O   -0.958326   -0.580930    1.334085
 O   -0.177234    1.404556    0.131621
 H    2.513749   -1.465976   -0.284522
 H    1.457680   -1.068536    1.088263
 H    0.120136   -1.943266   -0.827303
 H    0.648323   -0.579551   -1.825962
 H    2.858987    0.791044    0.835205
 H    2.658501    0.862206   -0.816012
 H    1.292829    1.204669    0.182067
 H   -1.864054   -0.786270    1.583431
