55 
5ax9_ligand_xtb.xyz
 C   -1.025258    0.577345   -0.822066
 C   -2.102064   -0.280975   -0.731406
 C   -3.279945    0.064888   -0.076237
 C   -5.635396   -2.385185    1.322343
 C   -5.994008   -2.341585   -0.985544
 C   -5.220641   -0.918093    1.100968
 C   -3.365184    1.357046    0.484438
 C   -2.271103    2.204544    0.424223
 C    5.184859   -2.609541    0.471815
 C    5.106343   -0.205775    0.604719
 C    3.903112   -0.188452   -0.077287
 C    3.989119   -2.604629   -0.218594
 C    3.302032    3.381932   -1.034516
 C    1.293438    2.493045   -0.428010
 C    3.238051    1.095279   -0.357305
 C   -4.665624    2.967537    1.678240
 C    3.334721   -1.408130   -0.502483
 C    5.754515   -1.408646    0.887344
 C    1.883119    1.259273   -0.129140
 N    2.004047    3.542748   -0.844230
 C    3.968066    2.188102   -0.836128
 C    6.978485   -1.406167    1.590368
 O    2.174236   -1.326427   -1.197197
 C    1.566745   -2.507097   -1.665480
 C   -1.089024    1.825892   -0.213181
 O   -4.560143    1.713521    1.053297
 N   -4.302608   -0.888860   -0.010875
 O   -5.635661   -3.129285    0.120232
 C   -4.926537   -1.269936   -1.265157
 N   -0.041171    2.739410   -0.251931
 N    7.974003   -1.406440    2.159973
 H   -0.145425    0.285013   -1.371258
 H   -2.037600   -1.260751   -1.178854
 H   -6.634972   -2.420412    1.783878
 H   -4.926182   -2.895246    1.977898
 H   -6.973755   -1.871010   -0.813819
 H   -6.082724   -3.025576   -1.831425
 H   -4.720435   -0.546821    1.993592
 H   -6.109893   -0.294518    0.921515
 H   -2.320239    3.192992    0.854243
 H    5.681193   -3.543602    0.688714
 H    5.541730    0.724629    0.938595
 H    3.569168   -3.546002   -0.535234
 H    3.829136    4.264822   -1.372857
 H   -3.945019    3.074158    2.495580
 H   -4.532167    3.787590    0.964864
 H   -5.675883    3.007560    2.083373
 H    1.296400    0.468109    0.304753
 H    5.022368    2.101017   -1.045250
 H    2.217024   -3.047676   -2.360158
 H    1.281491   -3.166593   -0.839998
 H    0.669717   -2.184104   -2.191419
 H   -5.396883   -0.405870   -1.765989
 H   -4.157674   -1.671812   -1.928436
 H   -0.283641    3.719590   -0.285069
