55 
5ax9_ligand_dft.xyz
 C   -0.985972    0.526144   -0.810992
 C   -2.072239   -0.344442   -0.788129
 C   -3.259634   -0.038933   -0.138102
 C   -5.522155   -2.833465    0.818435
 C   -6.709178   -1.373570   -0.591165
 C   -4.729934   -1.551940    1.103895
 C   -3.349658    1.208295    0.516251
 C   -2.265588    2.079613    0.527200
 C    5.373305   -2.573594    0.389014
 C    5.226400   -0.168912    0.515981
 C    3.983185   -0.180228   -0.103665
 C    4.134040   -2.609426   -0.234730
 C    3.280259    3.399873   -1.024771
 C    1.308335    2.476062   -0.346161
 C    3.278357    1.102541   -0.358577
 C   -4.685684    2.702374    1.796376
 C    3.433824   -1.426142   -0.484226
 C    5.928931   -1.352468    0.768889
 C    1.928043    1.249628   -0.073467
 N    1.975013    3.545901   -0.793359
 C    3.974886    2.211448   -0.855798
 C    7.207344   -1.306736    1.417939
 O    2.232962   -1.392729   -1.099201
 C    1.621417   -2.608517   -1.480214
 C   -1.077061    1.744389   -0.137375
 O   -4.534406    1.470919    1.126472
 N   -4.333567   -0.969844   -0.168686
 O   -6.374376   -2.710967   -0.309275
 C   -5.470915   -0.572695   -1.003838
 N   -0.039357    2.688514   -0.116647
 N    8.241514   -1.270651    1.941035
 H   -0.089658    0.264825   -1.361544
 H   -2.022397   -1.298375   -1.304801
 H   -6.111143   -3.109677    1.707142
 H   -4.835625   -3.654619    0.589821
 H   -7.200360   -0.901631    0.274584
 H   -7.434742   -1.396095   -1.408187
 H   -3.827246   -1.807169    1.667380
 H   -5.313244   -0.858433    1.730029
 H   -2.309915    3.022595    1.060789
 H    5.909721   -3.496457    0.581934
 H    5.651980    0.779690    0.827236
 H    3.722013   -3.567229   -0.527587
 H    3.795660    4.287900   -1.384294
 H   -3.973668    2.798466    2.625689
 H   -4.561098    3.550238    1.111057
 H   -5.701744    2.705441    2.192294
 H    1.362712    0.433509    0.354803
 H    5.026445    2.145821   -1.113723
 H    2.226763   -3.146010   -2.219732
 H    1.439925   -3.253187   -0.612133
 H    0.667251   -2.330361   -1.928037
 H   -5.699711    0.500735   -0.916378
 H   -5.219905   -0.780309   -2.050982
 H   -0.302522    3.659312   -0.212341
