63 
5axq_ligand_dft.xyz
 C    0.947087   -3.697917   -1.931555
 C    0.963296   -4.046491   -0.582828
 C    1.880846   -2.786962   -2.422730
 C    1.902190   -3.484611    0.276616
 C    2.827746   -2.227873   -1.570871
 C   -1.775888   -0.891882   -0.804697
 C   -0.452706   -0.474683   -0.698988
 C    5.286123   -0.730797    1.641391
 C    5.537104   -2.093241    1.877444
 C   -2.472238    1.282556    0.044325
 C    2.827237   -2.574472   -0.222011
 C   -2.770261    0.003443   -0.435729
 C   -0.125435    0.793926   -0.227996
 C   -1.155342    1.660331    0.156911
 C    4.152365   -0.714566    0.853820
 C    1.707817    2.402025   -0.471400
 C    3.334124    0.415191    0.404656
 C    3.028356    2.711090   -0.361548
 C    3.977665    1.712908    0.131051
 C   -4.804896    0.948882    0.021066
 C   -5.693440   -2.247058    1.484199
 C   -5.958954   -3.349467    0.494468
 C   -4.788826   -2.424428    0.294805
 C   -3.748189    2.007705    0.387289
 C   -3.972017    3.266563   -0.462254
 C   -3.866133    2.326065    1.885456
 C    2.710822    4.902777   -1.158909
 C   -4.842974   -1.397609   -0.812188
 N    4.650890   -2.874593    1.275041
 N    2.048217    0.194260    0.322596
 N    3.807755   -2.027068    0.652262
 N    1.246532    1.162777   -0.100877
 N   -4.153267   -0.168036   -0.466611
 O    5.170555    1.934590    0.288575
 O   -6.007486    1.062590    0.137953
 O    3.575427    3.893477   -0.687755
 F   -0.860764    2.881554    0.642689
 H    0.215437   -4.140760   -2.600707
 H    0.242485   -4.760223   -0.195641
 H    1.881046   -2.519034   -3.474817
 H    1.932185   -3.745316    1.328570
 H    3.570450   -1.529559   -1.943255
 H   -2.002740   -1.888409   -1.166960
 H    0.352328   -1.145528   -0.973121
 H    5.829621    0.132202    1.989674
 H    6.332323   -2.541208    2.457367
 H    0.957060    3.087687   -0.834763
 H   -5.308696   -2.517466    2.462299
 H   -6.355896   -1.386324    1.477988
 H   -6.811821   -3.240134   -0.169891
 H   -5.755356   -4.372859    0.793013
 H   -3.801487   -2.836570    0.491789
 H   -3.236357    4.031922   -0.198663
 H   -3.876023    3.045484   -1.529948
 H   -4.976465    3.658559   -0.278112
 H   -3.704905    1.429554    2.492161
 H   -3.121422    3.074778    2.169759
 H   -4.865921    2.714783    2.099071
 H    2.216255    4.601823   -2.092534
 H    1.949270    5.157002   -0.409446
 H    3.338248    5.773446   -1.347996
 H   -5.879908   -1.113960   -1.013718
 H   -4.414583   -1.788927   -1.742138
