44 
5ayf_ligand_dft.xyz
 N   -3.752741    0.000520    0.086080
 C   -1.888031    1.251754   -1.014568
 C   -2.905679    1.251208    0.122782
 C   -4.788836    0.000534    1.158667
 C   -2.906024   -1.250427    0.122624
 C   -1.888366   -1.251098   -1.014694
 C   -1.048785    0.000206   -0.939594
 C    0.258038   -0.000003   -0.634263
 C    1.023677    1.254514   -0.415168
 C    1.289237    2.128319   -1.472506
 C    1.948616    3.330372   -1.249099
 C    2.339888    3.673131    0.044050
 C    2.086283    2.805885    1.096582
 C    1.450287    1.573538    0.887104
 C    1.264210    0.673014    2.030749
 C    1.263985   -0.673331    2.030747
 C    1.449765   -1.573919    0.887102
 C    1.023261   -1.254762   -0.415173
 C    1.288510   -2.128680   -1.472500
 C    1.947478   -3.330953   -1.249085
 C    2.338654   -3.673824    0.044067
 C    2.085355   -2.806475    1.096585
 H   -4.238215    0.000629   -0.816607
 H   -1.284669    2.156235   -0.915532
 H   -2.413888    1.321286   -1.977876
 H   -2.402244    1.250531    1.093745
 H   -3.591820    2.100279    0.072301
 H   -5.406137   -0.893158    1.060015
 H   -4.283211   -0.000458    2.125170
 H   -5.404897    0.895213    1.061218
 H   -3.592415   -2.099292    0.072020
 H   -2.402628   -1.250013    1.093604
 H   -2.414209   -1.320400   -1.978029
 H   -1.285234   -2.155750   -0.915753
 H    0.970333    1.856753   -2.475132
 H    2.150965    4.000471   -2.078397
 H    2.848551    4.613750    0.228793
 H    2.404189    3.070228    2.101534
 H    1.228253    1.164141    3.001526
 H    1.227858   -1.164447    3.001524
 H    0.969699   -1.857011   -2.475129
 H    2.149582   -4.001134   -2.078377
 H    2.847004   -4.614609    0.228823
 H    2.403191   -3.070903    2.101538
