44 
5ayf_ligand_xtb.xyz
 N   -3.895465    0.016018    0.099252
 C   -1.946788    1.262010   -0.771947
 C   -3.060664    1.232584    0.271871
 C   -5.067964    0.019884    0.987264
 C   -3.065461   -1.202967    0.277077
 C   -1.954425   -1.241679   -0.769152
 C   -1.117696    0.007796   -0.680001
 C    0.199960    0.002737   -0.466124
 C    1.004703    1.232726   -0.358851
 C    1.098026    2.097769   -1.445012
 C    1.825464    3.268705   -1.354534
 C    2.452455    3.597700   -0.161455
 C    2.365619    2.746134    0.919895
 C    1.668681    1.537145    0.836691
 C    1.660637    0.660448    1.993417
 C    1.650169   -0.680314    1.992976
 C    1.646077   -1.555190    0.835115
 C    0.991150   -1.236482   -0.361505
 C    1.076520   -2.098071   -1.451070
 C    1.784289   -3.281033   -1.361887
 C    2.398623   -3.625572   -0.166589
 C    2.321918   -2.776146    0.917185
 H   -4.220380    0.014337   -0.875523
 H   -1.326338    2.140732   -0.600287
 H   -2.384606    1.353584   -1.771409
 H   -2.632795    1.209846    1.276047
 H   -3.698221    2.114136    0.180186
 H   -5.676999   -0.865774    0.814595
 H   -4.739987    0.023427    2.025402
 H   -5.676417    0.904678    0.808295
 H   -3.706686   -2.082512    0.191751
 H   -2.634918   -1.176386    1.280043
 H   -2.394876   -1.332560   -1.767503
 H   -1.338907   -2.123737   -0.597020
 H    0.602726    1.835466   -2.368780
 H    1.896300    3.927205   -2.206245
 H    3.011510    4.516930   -0.080187
 H    2.865650    2.996209    1.843901
 H    1.780891    1.165253    2.943827
 H    1.762424   -1.187706    2.943032
 H    0.589816   -1.823990   -2.376038
 H    1.848867   -3.937054   -2.215985
 H    2.940109   -4.555348   -0.085598
 H    2.813333   -3.037967    1.842554
