17 
5ayy_ligand_xtb.xyz
 N   -1.661651   -0.914680   -0.001999
 C   -0.679524   -0.006290   -0.000395
 C    0.670897   -0.382323    0.002542
 C    0.928378   -1.760543    0.008270
 C   -0.095481   -2.684744    0.010427
 C   -1.397492   -2.201857    0.003331
 C   -1.274605    1.382156   -0.001561
 O   -2.587414    1.379394   -0.019054
 O   -0.634760    2.410428    0.014883
 C    1.942631    0.462611   -0.004703
 O    3.005331   -0.105183   -0.029406
 O    1.865842    1.769582    0.018185
 H    1.964157   -2.068298    0.010047
 H    0.104634   -3.743799    0.016009
 H   -2.256887   -2.858386    0.001884
 H   -2.885565    0.436658   -0.024429
 H    0.944403    2.148755    0.026152
