90 
5azg_ligand_dft.xyz
 N    0.825371   -0.409309   -2.637152
 C    1.915366   -1.383407   -2.275021
 C    1.432339   -2.393569   -1.217036
 O    1.273185   -3.567180   -1.520115
 C    3.169827   -0.642387   -1.813607
 C    3.775954    0.306970   -2.817849
 O    4.472653    1.255882   -2.528366
 O    3.493518   -0.016880   -4.082712
 N    1.277422   -1.901032    0.023495
 C    1.032006   -2.752912    1.176969
 C   -0.482876   -2.690025    1.424337
 O   -0.952610   -2.109272    2.394398
 C    1.862307   -2.274216    2.382401
 C    3.204701   -1.736138    1.941653
 C    4.180018   -2.575640    1.397338
 C    3.453515   -0.362922    1.981884
 C    5.368033   -2.051616    0.895000
 C    4.638948    0.168343    1.477396
 C    5.597947   -0.676394    0.925540
 N   -1.222611   -3.228919    0.413644
 C   -2.484450   -2.642474   -0.058959
 C   -2.106698   -1.316011   -0.741890
 O   -1.562565   -1.350019   -1.857908
 C   -3.649242   -2.590987    0.959196
 O   -3.520081   -1.576442    1.943841
 C   -3.882368   -3.951677    1.601204
 N   -2.334739   -0.201090   -0.048518
 C   -2.073793    1.129710   -0.537486
 C   -0.638074    1.548287   -0.172344
 O    0.231272    0.702852    0.042272
 C   -3.190086    2.078536   -0.053999
 C   -4.550087    1.582514   -0.490974
 C   -5.000715    1.843634   -1.785893
 C   -5.343157    0.811998    0.360978
 C   -6.219841    1.340401   -2.227482
 C   -6.562956    0.305648   -0.079872
 C   -7.002773    0.567052   -1.374490
 N   -0.340637    2.858698   -0.189563
 C    1.012237    3.332973    0.058645
 C    1.968829    2.684636   -0.942614
 O    3.227141    2.753411   -0.563677
 C    1.457134    3.154371    1.520012
 C    0.470437    3.712419    2.553248
 C    0.999547    3.429854    3.961644
 C    0.207765    5.208455    2.360588
 O    1.608351    2.185250   -1.997617
 H   -0.138495   -0.760467   -2.378269
 H    0.852943   -0.215455   -3.639852
 H    0.958447    0.502087   -2.163835
 H    2.115842   -1.977305   -3.165742
 H    2.999273   -0.087618   -0.886958
 H    3.937794   -1.384415   -1.561362
 H    3.946750    0.620899   -4.661206
 H    1.200221   -0.899584    0.169299
 H    1.318566   -3.765502    0.878444
 H    1.972788   -3.108971    3.081730
 H    1.297090   -1.498894    2.907178
 H    4.008892   -3.649082    1.361832
 H    2.711453    0.299106    2.421787
 H    6.120543   -2.719965    0.486865
 H    4.810440    1.239658    1.519982
 H    6.525012   -0.268772    0.534578
 H   -0.673073   -3.650095   -0.330881
 H   -2.818335   -3.294765   -0.869852
 H   -4.530121   -2.299124    0.376059
 H   -2.704249   -1.784333    2.445103
 H   -3.021321   -4.241514    2.211508
 H   -4.763620   -3.902274    2.244801
 H   -4.042608   -4.726655    0.844937
 H   -2.811740   -0.335190    0.849570
 H   -2.100791    1.085553   -1.634702
 H   -3.028847    3.078586   -0.472054
 H   -3.139173    2.171275    1.037480
 H   -4.395817    2.452161   -2.455495
 H   -5.007638    0.594367    1.371937
 H   -6.561018    1.555712   -3.235232
 H   -7.172775   -0.288665    0.593597
 H   -7.955369    0.174841   -1.716330
 H   -1.066538    3.538899   -0.347746
 H    1.015299    4.401602   -0.185671
 H    3.797059    2.311818   -1.240402
 H    2.428261    3.647151    1.636628
 H    1.613709    2.087611    1.702639
 H   -0.482969    3.177795    2.440085
 H    1.166454    2.358198    4.117175
 H    1.950688    3.947483    4.133315
 H    0.290602    3.772454    4.721521
 H    1.143997    5.777999    2.403904
 H   -0.276260    5.431265    1.401658
 H   -0.450677    5.590325    3.146598
