21 
5b1s_ligand_dft.xyz
 C   -2.375599   -1.306058   -0.136096
 C   -2.885203   -0.021023   -0.305638
 C   -1.030312   -1.486839    0.169778
 C   -2.056447    1.090104   -0.173139
 C   -0.179995   -0.390061    0.311230
 C   -0.725061    0.878372    0.131099
 C    1.286301   -0.531534    0.642507
 C    2.128643   -0.168198   -0.576249
 N    3.607418   -0.193302   -0.230171
 F    0.105239    1.938917    0.255388
 H   -3.026478   -2.167497   -0.236956
 H   -3.934356    0.121824   -0.541437
 H   -0.637411   -2.490150    0.311848
 H   -2.426061    2.101545   -0.297577
 H    1.496599   -1.560404    0.955404
 H    1.543717    0.132391    1.477630
 H    1.913729    0.844207   -0.919824
 H    1.988538   -0.871750   -1.398800
 H    4.193610    0.047600   -1.035934
 H    3.817716    0.476297    0.517652
 H    3.897358   -1.119777    0.099748
