21 
5b1s_ligand_xtb.xyz
 C   -2.410444   -1.249116   -0.134249
 C   -2.883226    0.044370   -0.277153
 C   -1.073053   -1.480383    0.143193
 C   -2.019569    1.119861   -0.148002
 C   -0.189361   -0.420808    0.281506
 C   -0.692928    0.865542    0.127100
 C    1.273250   -0.610574    0.607419
 C    2.135317   -0.216246   -0.588784
 N    3.577683   -0.146486   -0.191872
 F    0.179404    1.900102    0.250858
 H   -3.085649   -2.083761   -0.234640
 H   -3.925827    0.220690   -0.487121
 H   -0.715056   -2.491553    0.263418
 H   -2.359328    2.137387   -0.252119
 H    1.451248   -1.649432    0.886545
 H    1.517720    0.031344    1.458321
 H    1.840233    0.767504   -0.955933
 H    2.024963   -0.941437   -1.395966
 H    4.173051    0.110924   -0.988871
 H    3.691437    0.561044    0.547104
 H    3.888880   -1.054107    0.178464
