62 
5b4l_ligand_dft.xyz
 C    6.076553    2.212911    1.971898
 C   -8.736885   -0.339274    1.863436
 C   -9.027726    0.735753    1.007127
 C    5.056324    1.375137    2.414894
 C    6.783021    1.890228    0.815813
 C   -7.527710   -1.016615    1.800433
 C   -8.109535    1.164601    0.057833
 C    4.745411    0.215715    1.713201
 C    6.476292    0.734994    0.104463
 C    4.310680   -3.194534   -0.843597
 C    5.713090   -3.272198   -0.787431
 C   -6.582738   -0.607695    0.855350
 C   -6.901029    0.481614    0.001493
 C    5.459175   -0.098637    0.559236
 C    4.014090   -1.916049   -0.419839
 C   -4.902679   -0.355320   -0.372336
 C    0.401486    0.166896   -0.499500
 C    2.725979   -1.212618   -0.419188
 C    0.324221   -1.097807    0.002107
 C    1.525837   -1.932329    0.038112
 C    2.651141    4.316071   -0.696847
 C    3.234750    3.264997    0.205692
 C   -5.182859    1.351680   -1.821536
 C   -3.955224    0.811804   -2.016056
 C    1.864110    3.070809   -0.378743
 C    1.674503    2.042642   -1.463846
 C   -2.611152   -1.101349   -0.988248
 C   -2.013473   -1.000594    0.420998
 N    6.255184   -2.147196   -0.343187
 N   -5.314411   -1.121608    0.605805
 N    2.729182    0.008365   -0.894938
 N   -5.770798    0.620703   -0.795239
 N    5.211241   -1.321290   -0.122509
 N   -3.769465   -0.246457   -1.126831
 N    1.588388    0.674349   -0.948673
 O    1.525383   -3.099395    0.406898
 O   -0.783072   -1.692226    0.487585
 H    6.322349    3.112954    2.527101
 H   -9.479954   -0.647164    2.592994
 H   -9.985757    1.239600    1.087465
 H    4.507696    1.614418    3.320900
 H    7.581368    2.537851    0.466582
 H   -7.306692   -1.847120    2.462550
 H   -8.327798    1.993791   -0.607846
 H    3.973976   -0.459241    2.069556
 H    7.028799    0.455872   -0.785681
 H    3.599856   -3.944187   -1.152460
 H    6.353174   -4.105030   -1.044594
 H   -0.443306    0.839872   -0.582938
 H    3.062255    4.415016   -1.697969
 H    2.319854    5.251727   -0.258119
 H    3.306528    3.480717    1.265794
 H    4.037439    2.639122   -0.173843
 H   -5.675246    2.170098   -2.319401
 H   -3.190493    1.077911   -2.729142
 H    1.018029    3.184236    0.296074
 H    2.522402    2.050068   -2.152112
 H    0.765410    2.238663   -2.042809
 H   -2.887772   -2.140908   -1.188242
 H   -1.879598   -0.798458   -1.742092
 H   -2.675666   -1.489114    1.137117
 H   -1.904502    0.049213    0.724753
