94 
5b5b_ligand_dft.xyz
 O    4.092127    1.144714    1.919951
 C    5.020400    0.643102    0.962935
 C    6.135607    1.694849    0.716838
 C    5.620750    3.029293    0.237673
 C    5.121488    3.967598    1.147687
 C    4.600342    5.182380    0.709004
 C    4.572767    5.481398   -0.649807
 C    5.074608    4.560250   -1.565722
 C    5.593386    3.347640   -1.123328
 C    5.622758   -0.598231    1.656679
 C    6.701722   -1.316555    0.882075
 C    8.050741   -1.016599    1.091335
 C    9.051604   -1.658706    0.368316
 C    8.718970   -2.621962   -0.579511
 C    7.380529   -2.939299   -0.792680
 C    6.384746   -2.294375   -0.065806
 C    4.298220    0.299968   -0.350677
 C    3.089454   -0.622985   -0.204506
 C    2.369084   -0.823311   -1.538570
 C    1.148126   -1.765981   -1.498272
 C    1.588299   -3.202912   -1.190192
 C    0.066722   -1.242734   -0.534971
 C   -1.284870   -2.002260   -0.434912
 C   -1.851373   -2.310684   -1.830208
 C   -1.284615   -3.264418    0.442501
 C   -2.709323   -3.747613    0.750710
 C   -3.599765   -2.644841    1.350007
 C   -0.352960    0.221200   -0.856666
 C   -1.841534    0.366686   -0.461246
 C   -2.141848   -0.925642    0.294180
 C   -3.558359   -1.374429    0.530941
 C   -4.625850   -0.703570    0.067196
 C   -6.026629   -1.060300    0.253473
 C   -7.093271   -0.374524   -0.187115
 C   -8.500191   -0.841088    0.089728
 C   -9.307256    0.234902    0.823728
 O   -8.749948    0.341038    2.127416
 C   -7.044833    0.929922   -0.939466
 C   -7.817856    2.038934   -0.196010
 O   -7.770012    3.258897   -0.902221
 C   -9.226498    1.567314    0.108214
 C  -10.312859    2.264298   -0.217062
 H    3.677861    1.928983    1.533709
 H    6.851883    1.289235   -0.005611
 H    6.670821    1.830291    1.664036
 H    5.152069    3.742636    2.210960
 H    4.221364    5.898724    1.432295
 H    4.167571    6.428393   -0.993632
 H    5.063399    4.786462   -2.628047
 H    5.982787    2.631814   -1.843322
 H    4.801591   -1.284190    1.887828
 H    6.019266   -0.258279    2.619849
 H    8.319475   -0.269718    1.834422
 H   10.093236   -1.410400    0.550300
 H    9.497871   -3.126922   -1.143167
 H    7.109328   -3.695596   -1.523583
 H    5.343546   -2.557103   -0.234961
 H    5.022170   -0.132576   -1.053653
 H    3.958629    1.239689   -0.807664
 H    3.396851   -1.596000    0.197068
 H    2.411170   -0.190845    0.539104
 H    3.085280   -1.221452   -2.271649
 H    2.063164    0.157721   -1.923846
 H    0.723128   -1.758364   -2.512323
 H    0.823897   -3.930780   -1.475660
 H    1.795654   -3.343171   -0.123035
 H    2.500495   -3.454818   -1.744318
 H    0.495039   -1.260366    0.477922
 H   -1.725558   -1.468703   -2.519010
 H   -2.921545   -2.534175   -1.789309
 H   -1.342616   -3.173775   -2.274060
 H   -0.768638   -3.036168    1.386514
 H   -0.728091   -4.079831   -0.029746
 H   -2.665849   -4.593103    1.446964
 H   -3.175790   -4.126563   -0.166589
 H   -4.616497   -3.024476    1.477389
 H   -3.226237   -2.408827    2.357998
 H   -0.218721    0.429592   -1.924403
 H    0.282777    0.933147   -0.320599
 H   -2.037907    1.255238    0.145938
 H   -2.466696    0.447022   -1.357258
 H   -1.681875   -0.824429    1.292573
 H   -4.431037    0.209024   -0.489766
 H   -6.231531   -1.973690    0.807808
 H   -8.505502   -1.756222    0.690081
 H   -9.017399   -1.055933   -0.856704
 H  -10.359876   -0.082092    0.883582
 H   -9.205894    1.064896    2.574556
 H   -6.028700    1.285664   -1.119782
 H   -7.523603    0.795263   -1.923710
 H   -7.304553    2.230413    0.752285
 H   -8.155823    3.099833   -1.773964
 H  -11.310515    1.888301   -0.003783
 H  -10.239797    3.238749   -0.690171
