33 
5b5f_ligand_dft.xyz
 C    2.448431    1.357622    0.150928
 C   -0.125606    1.101991   -0.047857
 C   -1.141994    0.156254   -0.223257
 C   -2.463660    0.576158   -0.244955
 C   -1.802354    2.851093    0.066824
 N    5.654862   -0.802894    0.027932
 N   -4.422709   -0.681793    1.068034
 O   -4.793432   -0.090191   -1.316437
 S   -3.751244   -0.637911   -0.462914
 O   -3.103510   -1.902410   -0.785895
 C   -3.744771   -1.509362    2.063326
 C   -2.815221    1.915632   -0.105402
 C   -0.471395    2.449663    0.097319
 C    1.274819    0.689590   -0.020641
 O    1.520125   -0.653233   -0.202159
 C    2.849754   -0.816038   -0.144821
 C    3.531388   -2.113696   -0.298353
 C    5.025255   -1.892660   -0.174083
 C    4.938873    0.437381    0.170385
 O    5.549462    1.461654    0.363765
 C    3.477132    0.367823    0.068570
 H    2.588260    2.415341    0.315933
 H   -0.910949   -0.894757   -0.353143
 H   -2.049265    3.902200    0.174502
 H   -5.416357   -0.868699    0.966862
 H   -3.692930   -2.567298    1.783776
 H   -2.728948   -1.129976    2.205923
 H   -4.279431   -1.401159    3.009329
 H   -3.857827    2.212233   -0.138276
 H    0.306880    3.194734    0.230433
 H    3.321638   -2.580352   -1.270694
 H    3.216289   -2.842531    0.461023
 H    5.632405   -2.795623   -0.272882
