48 
5b5p_ligand_xtb.xyz
 C  -46.765346   29.140747    7.097924
 C  -45.584496   29.007349    7.826601
 C  -45.350347   31.526259   15.919503
 C  -47.651651   30.151138    7.397889
 C  -45.532624   32.339464   14.819048
 C  -45.288936   29.878687    8.850066
 C  -44.244072   31.673910   16.741031
 C  -43.485386   33.470166   15.333479
 C  -39.306943   28.583586   18.584773
 C  -47.370876   31.044184    8.432074
 C  -44.592560   33.321108   14.520419
 C  -46.177430   30.911102    9.168888
 C  -43.303295   32.655489   16.452115
 C  -39.006163   30.539659   17.893948
 C  -48.311316   32.119057    8.758659
 C  -46.696829   32.704317   10.464355
 C  -46.421043   33.672215   11.583032
 C  -44.785851   34.217450   13.323506
 C  -41.894463   32.089547   18.292686
 C  -40.559501   32.536952   18.863234
 N  -39.776441   29.796174   18.733337
 N  -38.099708   29.833932   17.246807
 N  -45.858805   31.766997   10.195463
 N  -38.299855   28.583800   17.696243
 N  -47.868094   32.907302    9.814385
 N  -45.232182   33.479804   12.165503
 O  -49.365816   32.341457    8.208986
 O  -47.232022   34.531964   11.877194
 O  -42.185607   32.907371   17.181972
 S  -39.183508   32.250268   17.698453
 H  -46.982901   28.449466    6.297945
 H  -44.895444   28.211645    7.584250
 H  -46.079937   30.764446   16.150830
 H  -48.573317   30.278693    6.850509
 H  -46.403432   32.221014   14.192366
 H  -44.379421   29.788482    9.422762
 H  -44.130782   31.027008   17.596379
 H  -42.738895   34.221361   15.127591
 H  -39.668307   27.713555   19.092535
 H  -43.852140   34.739393   13.091173
 H  -45.562132   34.962193   13.530946
 H  -42.668946   32.199240   19.066466
 H  -41.834330   31.033500   18.000408
 H  -40.564256   33.611216   19.037956
 H  -40.338277   31.995134   19.779899
 H  -48.441595   33.685254   10.134287
 H  -44.685099   32.696282   11.835361
 H  -37.725625   27.827663   17.358761
