42 
5bms_ligand_xtb.xyz
 C    3.761822    0.252660   -0.351390
 C    2.999332   -0.423384    0.592880
 C    1.619890   -0.527269    0.392094
 C    0.733798   -1.247533    1.379698
 C   -2.950827   -1.812626   -0.386062
 C   -2.457670    1.231472    0.273388
 C   -2.150342    3.762369    0.618528
 C   -1.148001    3.735959    1.759026
 C    1.047631    0.022398   -0.755909
 C    1.785945    0.698065   -1.717418
 C    3.148110    0.816413   -1.507555
 N    0.239696   -2.501548    0.856980
 C   -0.943688   -2.657970    0.256747
 N   -1.220638   -3.893408   -0.196743
 C   -2.402198   -4.079195   -0.743865
 C   -3.344164   -3.067548   -0.868296
 N   -1.768802   -1.606764    0.174058
 N   -3.809854   -0.743827   -0.508082
 C   -3.567976    0.547196   -0.234428
 C   -2.852541    2.556066    0.251765
 N   -4.160286    2.631253   -0.255330
 N   -4.576138    1.474241   -0.534311
 C   -0.653702    3.860732    0.368697
Cl    3.771374   -1.107456    1.971775
 N    5.095080    0.518035   -0.424643
 C    5.252800    1.197809   -1.555206
 N    4.142240    1.406292   -2.237914
 H   -0.141770   -0.638235    1.612996
 H    1.287350   -1.450487    2.298423
 H   -1.534019    0.808053    0.597182
 H   -2.740496    4.659842    0.488542
 H   -1.012441    2.796908    2.272873
 H   -1.123107    4.601118    2.403301
 H   -0.016109   -0.097501   -0.894967
 H    1.316378    1.116341   -2.593807
 H    0.868574   -3.287870    0.808883
 H   -2.603711   -5.081437   -1.098027
 H   -4.307589   -3.229491   -1.320337
 H   -4.724172   -0.926119   -0.907736
 H   -0.280562    4.814735    0.030262
 H   -0.171642    3.009347   -0.087625
 H    6.211556    1.547939   -1.884407
