70 
5bpe_ligand_xtb.xyz
 C    1.232947   -2.517279   -0.526479
 O    1.387454   -1.652946   -1.385072
 C    2.358985   -3.402032   -0.035936
 C    3.736776   -2.826860   -0.357311
 C    4.117494   -1.581720    0.401728
 C    5.411232   -1.087775    0.246062
 C    5.832682    0.042609    0.922069
 C    4.965549    0.709023    1.774245
 C    3.674374    0.237083    1.932094
 C    3.246946   -0.895086    1.244760
 N    0.032240   -2.777848    0.015501
 C   -1.111128   -1.916634   -0.208396
 C   -0.862182   -0.588148    0.528581
 O    0.046897   -0.463887    1.328466
 C   -2.401396   -2.604832    0.251731
 C   -3.633311   -1.822266   -0.122119
 C   -3.927908   -1.567520   -1.459085
 C   -4.498183   -1.352676    0.856520
 C   -5.054504   -0.844458   -1.806324
 C   -5.631079   -0.635800    0.509219
 C   -5.907375   -0.373755   -0.821176
 C    3.179995    2.996664   -0.446809
 C   -1.543464    1.761321    0.699682
 C    1.725613    3.464527   -0.485374
 C    1.035812    1.225281   -1.285527
 C   -0.692382    2.695626   -0.177559
 C   -3.623326    1.653453    1.982598
 C   -2.977858    2.316755    0.857113
 C    0.787196    2.287038   -0.210463
 C    3.413712    1.866504   -1.441241
 N   -4.132038    1.134645    2.862993
 N   -1.646725    0.429459    0.140512
 N    2.472962    0.765722   -1.147355
 O   -3.656424    2.098261   -0.361103
 O    0.841572    1.737550   -2.549922
 H    2.256076   -4.365452   -0.542575
 H    2.258085   -3.578102    1.035624
 H    4.489110   -3.592296   -0.154103
 H    3.783060   -2.612485   -1.429836
 H    6.100769   -1.612356   -0.398920
 H    6.844932    0.395362    0.798540
 H    5.301612    1.575838    2.321893
 H    2.989742    0.729406    2.606872
 H    2.240233   -1.243681    1.414987
 H   -0.027394   -3.416063    0.794118
 H   -1.158597   -1.706161   -1.283711
 H   -2.442457   -3.590658   -0.220087
 H   -2.367190   -2.743588    1.334335
 H   -3.281904   -1.952983   -2.235696
 H   -4.290989   -1.547396    1.897840
 H   -5.272024   -0.655773   -2.846505
 H   -6.293770   -0.283365    1.284432
 H   -6.790851    0.183343   -1.093692
 H    3.842760    3.825151   -0.693013
 H    3.431565    2.652779    0.557964
 H   -1.077553    1.671403    1.688748
 H    1.574822    4.241136    0.262919
 H    1.491857    3.881155   -1.464989
 H    0.431369    0.334084   -1.109936
 H   -0.762250    3.701491    0.237020
 H   -1.098579    2.718536   -1.189040
 H   -2.928243    3.393092    1.093808
 H    1.040866    1.841443    0.756865
 H    4.434638    1.489398   -1.374344
 H    3.217077    2.216335   -2.456691
 H   -2.421598    0.281167   -0.493835
 H    2.591715   -0.058942   -1.756053
 H    2.626462    0.403167   -0.178148
 H   -4.584558    2.341794   -0.272562
 H    0.678830    1.033300   -3.188362
