33 
5bpp_ligand_xtb.xyz
 C   -3.446436   -0.368847   -0.870349
 C   -1.945384   -0.282028   -0.777684
 C   -1.166848   -1.397662   -0.508549
 C    0.214025   -1.307168   -0.413838
 C    0.842024   -0.078583   -0.583111
 C    0.059120    1.049969   -0.844740
 C   -1.309897    0.947478   -0.941104
 C   -4.075462    0.553861    0.159496
 O   -4.685467    1.566931   -0.096406
 N   -3.823944    0.214290    1.446470
 O   -3.286750   -1.010160    1.841492
 O    2.180394    0.133000   -0.516015
 C    3.040183   -0.966165   -0.291226
 C    4.475606   -0.450866   -0.296587
 C    4.754535    0.476824    0.883594
 C    6.179645    1.013158    0.852404
 H   -3.783031   -1.391161   -0.689751
 H   -3.787306   -0.044919   -1.854662
 H   -1.635910   -2.364259   -0.384266
 H    0.782696   -2.201248   -0.212489
 H    0.557066    1.997657   -0.973416
 H   -1.903858    1.825553   -1.145255
 H   -4.274632    0.720071    2.197134
 H   -2.344482   -1.013418    1.597733
 H    2.906157   -1.715110   -1.084506
 H    2.811945   -1.433920    0.677160
 H    4.645254    0.087943   -1.230093
 H    5.151800   -1.307317   -0.266092
 H    4.590663   -0.067551    1.816798
 H    4.047871    1.307213    0.851245
 H    6.896987    0.196253    0.895738
 H    6.356126    1.574778   -0.062006
 H    6.358179    1.671411    1.699039
