55 
5bq0_ligand_xtb.xyz
 C  -23.801822    6.345804    2.148328
 C  -24.024422    7.259816    8.392302
 C  -23.826712    8.409738    6.302590
 C  -22.570487    7.532540    6.162334
 C  -23.950644    7.420128   -1.041715
 C  -23.246916    6.020629    7.923204
 C  -25.794835    8.725102    7.634718
 C  -24.935663    6.895689   -1.872396
 C  -26.189949    7.473582   -1.942865
 C  -26.476325    8.598340   -1.187733
 C  -25.506428    9.147311   -0.366963
 C  -22.874146    5.496013    4.217746
 C  -23.932285    6.050242    3.489342
 C  -20.766842    5.747426    0.187255
 C  -22.087196    6.267942    0.186508
 C  -22.614614    6.801342   -0.986932
 C  -21.826867    6.757636   -2.133147
 C  -20.542335    6.235961   -2.124169
 C  -19.968119    5.721737   -0.963635
 C  -18.601716    5.162778   -0.856592
 O  -18.131668    4.785982    0.207729
 N  -17.874772    5.077590   -1.994752
 N  -20.458760    5.307277    1.434303
 C  -21.531843    5.497627    2.262068
 C  -22.586222    6.089750    1.522843
 C  -21.666717    5.197638    3.609056
 C  -23.094144    5.161583    5.663076
 O  -23.424662    4.048640    6.026145
 N  -22.876400    6.175667    6.531952
 N  -24.741951    7.812595    7.260296
 C  -24.254551    8.559514   -0.298260
Cl  -23.043314    9.277496    0.711266
 H  -24.631293    6.761671    1.597322
 H  -23.339236    8.001322    8.842479
 H  -24.745507    6.967213    9.157044
 H  -23.525508    9.429957    6.604191
 H  -24.349093    8.479995    5.344126
 H  -21.783368    7.891968    6.835270
 H  -22.191145    7.567685    5.141272
 H  -23.862333    5.120720    7.986059
 H  -22.351000    5.875763    8.539112
 H  -26.503685    8.208734    8.279794
 H  -25.421240    9.618498    8.161736
 H  -26.315738    9.049294    6.734625
 H  -24.706672    6.015538   -2.454841
 H  -26.943524    7.046959   -2.587321
 H  -27.453296    9.054243   -1.238537
 H  -25.713408   10.029779    0.217841
 H  -24.866897    6.238632    3.996216
 H  -22.224101    7.166092   -3.050971
 H  -19.988104    6.254311   -3.051071
 H  -16.948022    4.691282   -1.932063
 H  -18.225698    5.351018   -2.892906
 H  -19.556157    4.905755    1.650189
 H  -20.860648    4.745456    4.166531
