57 
5bqi_ligand_dft.xyz
 O    9.803121   16.432587   30.657792
 C   17.052512   18.019846   25.006272
 C   16.374331   16.857894   25.372830
 C   16.847811   17.615129   30.246780
 N   16.156779   17.025305   31.286775
 C   16.095465   16.608422   26.707175
 C   16.486825   17.512466   27.703534
 C   16.186648   17.210060   29.107957
 C   18.064673   18.443603   30.491395
 F   14.842114   14.242114   35.841564
 C   14.413499   13.316941   34.952779
 F   15.368043   13.178855   33.991397
 C   13.102156   13.734966   34.322431
 N   12.051411   13.038901   34.744161
 C   10.854382   13.301513   34.212386
 C   10.638967   14.264367   33.233995
 C    9.291994   14.482759   32.579953
 N    9.351413   14.264512   31.143583
 C    9.714107   15.270378   30.289001
 C   10.081988   14.829098   28.877268
 C    9.640677   15.871943   27.852909
 C   11.605618   14.612865   28.840355
 C   11.747253   14.999365   32.813004
 C   13.002362   14.736841   33.345919
 C   14.179787   15.521538   32.842654
 O   14.987908   16.082615   33.564139
 N   14.231978   15.577886   31.476660
 C   15.151214   16.309330   30.733958
 N   15.125541   16.380031   29.431884
 C   17.145521   18.685743   27.318457
 C   17.432815   18.935326   25.982341
 C   17.304858   18.312565   23.555060
 F   17.522759   17.189269   22.847917
 F   16.256015   18.933319   22.981496
 F   18.372459   19.111000   23.379597
 H   16.074552   16.144232   24.612449
 H   16.323579   17.071673   32.284047
 H   15.569801   15.706001   26.999806
 H   17.823551   19.503693   30.636029
 H   18.595235   18.098276   31.384689
 H   18.753360   18.367712   29.645741
 H   14.290392   12.361099   35.468660
 H   10.028340   12.697064   34.583803
 H    8.959377   15.513220   32.727428
 H    8.540300   13.816387   33.012976
 H    9.433439   13.312224   30.819066
 H    9.588657   13.872572   28.658744
 H    8.552453   15.986314   27.846559
 H   10.081146   16.842869   28.093922
 H    9.962541   15.578215   26.848953
 H   11.920998   13.874914   29.589921
 H   11.916759   14.242190   27.859245
 H   12.135246   15.554961   29.021876
 H   11.615467   15.784549   32.072646
 H   13.568723   15.059653   30.918435
 H   17.413254   19.428055   28.062938
 H   17.946825   19.847777   25.699690
