81 
5bs4_ligand_dft.xyz
 N    8.016879   -0.117071   -0.905620
 C    6.677681    0.020970   -0.714004
 C    4.402026   -0.470034   -1.389193
 C    4.821811    0.854218    0.604344
 C    6.180825    0.745580    0.389819
 O    1.932021    1.385775    0.999731
 N    1.772899   -1.179480    0.546003
 C    2.754145   -3.289421    1.413161
 C    3.372542   -3.909308    2.667742
 C    3.595067   -3.597340    0.173644
 C    0.319077   -1.280231    0.805939
 C   -0.468853   -1.782500   -0.407545
 O    0.051577   -3.017219   -0.840854
 C   -2.647945    0.330893    0.162217
 O   -0.912998    5.143239    0.168369
 C   -0.084947    4.030621    0.438901
 C   -0.831977    2.827694   -0.143767
 C   -2.303678    3.270798   -0.176808
 C   -2.777488   -2.461297   -1.268136
 C    5.759804   -0.579640   -1.603194
 C    3.931554    0.241755   -0.281616
 S    2.214538    0.345149    0.007385
 O    1.513215    0.500904   -1.285738
 C    2.604926   -1.778312    1.614596
 C   -1.941940   -2.043368   -0.047425
 N   -2.509388   -0.902087    0.672856
 O   -2.494428    0.639954   -1.016099
 O   -2.916581    1.212694    1.152913
 C   -3.198910    2.575969    0.851554
 C   -2.917787    3.404265    2.111136
 O   -2.701818    4.723543    1.647256
 C   -2.245226    4.735259    0.315445
 C   -5.193024   -1.752263   -1.080514
 C   -6.510197   -1.982667   -0.693732
 C   -6.864264   -3.196511   -0.111650
 C   -5.895663   -4.179147    0.077010
 C   -4.580819   -3.945793   -0.313591
 C   -4.214402   -2.730675   -0.896530
 N   -0.402583    2.423184   -1.521358
 C   -0.286311    3.494239   -2.542610
 H    8.665012    0.432005   -0.364410
 H    8.369600   -0.501047   -1.767288
 H    3.703447   -0.927298   -2.082078
 H    4.442311    1.411719    1.454353
 H    6.874925    1.219981    1.076730
 H    1.753838   -3.718836    1.265431
 H    2.750945   -3.736317    3.552785
 H    4.365248   -3.485900    2.863270
 H    3.491298   -4.989871    2.546049
 H    4.615003   -3.210544    0.289936
 H    3.173171   -3.138342   -0.726983
 H    3.658498   -4.676250    0.004305
 H    0.200364   -2.012339    1.610003
 H   -0.070300   -0.327993    1.185808
 H   -0.422939   -1.036624   -1.210221
 H    0.970245   -2.862250   -1.097404
 H    0.045106    3.881150    1.516847
 H    0.902291    4.206155    0.006478
 H   -0.660691    1.944129    0.470098
 H   -2.724003    3.192564   -1.178660
 H   -2.719211   -1.673603   -2.024386
 H   -2.306259   -3.355418   -1.686025
 H    6.128383   -1.130436   -2.463111
 H    2.163095   -1.549168    2.593113
 H    3.598462   -1.323875    1.596050
 H   -1.954713   -2.868194    0.673354
 H   -2.766495   -1.016181    1.641250
 H   -4.245602    2.657655    0.545448
 H   -2.029745    3.000942    2.619765
 H   -3.748529    3.419666    2.818240
 H   -2.846186    5.454339   -0.242222
 H   -4.918372   -0.805512   -1.540204
 H   -7.263001   -1.215981   -0.852083
 H   -7.892150   -3.379759    0.185530
 H   -6.166073   -5.131808    0.522279
 H   -3.830287   -4.721414   -0.174970
 H   -1.105610    1.718063   -1.797506
 H    0.484436    1.881646   -1.452272
 H    0.472380    4.210794   -2.232177
 H    0.003007    3.032146   -3.486416
 H   -1.242228    4.004168   -2.655816
