50 
5bue_ligand_dft.xyz
 C   17.378373   -0.567729   14.863515
 C   16.330426   -0.968877   14.055274
 C   19.647047   -0.995199   15.817954
 C   20.459472   -1.719497   16.683245
 C   18.721644   -3.003356   17.388348
 C   17.820396   -2.337298   16.566604
 C   13.285536   -2.364728   13.737957
 C   13.215404   -3.385857   14.749318
 C   12.039204   -3.607388   15.383441
 C   10.872754   -1.922872   14.099806
 C   12.128703   -1.673633   13.449010
 C    9.670007   -3.199436   15.838836
 C    8.973441   -4.426726   15.298462
 C    8.399708   -4.395369   14.023790
 C    7.779738   -5.527121   13.508669
 C    7.722436   -6.700601   14.259735
 C    8.288133   -6.736709   15.529406
 C    8.912686   -5.602310   16.044407
 N   17.483549    0.776293   14.675347
 C   15.879150    0.216021   13.435977
 N   16.573222    1.276962   13.827084
 C   15.761990   -2.322960   13.719919
 N   14.471725   -2.166547   13.051227
 C   14.529214   -1.199979   11.960097
 C   14.747353    0.240074   12.455692
 C   18.285738   -1.303889   15.749810
 N   20.022746   -2.712583   17.460048
 N   10.911053   -2.898156   15.120254
 O    9.816621   -1.347867   13.840711
 H   20.075221   -0.221320   15.187937
 H   21.521643   -1.494082   16.748938
 H   18.377715   -3.810181   18.031809
 H   16.767737   -2.599718   16.584189
 H   14.052175   -4.032899   14.973291
 H   11.935340   -4.386534   16.131465
 H   12.087278   -0.886693   12.708845
 H    9.040348   -2.315468   15.727139
 H    9.912150   -3.326944   16.898495
 H    8.447386   -3.474869   13.448341
 H    7.335162   -5.493880   12.518324
 H    7.235229   -7.582995   13.855349
 H    8.244764   -7.646379   16.121243
 H    9.350886   -5.632379   17.039976
 H   18.082902    1.411895   15.178210
 H   15.646931   -2.936104   14.611441
 H   16.442206   -2.866223   13.049657
 H   13.626538   -1.288200   11.352941
 H   15.372746   -1.492660   11.322923
 H   14.970633    0.904280   11.614959
 H   13.839539    0.617687   12.939583
