37 
5bui_ligand_xtb.xyz
 C  -12.835518    2.128949   14.913687
 C  -10.558523    2.197953   14.651856
 C  -10.338546    2.599145   15.956015
 C  -17.669451    0.868873   14.711385
 C  -18.554379    1.448955   15.705830
 C  -18.059238    1.910667   16.926400
 C  -18.900765    2.465355   17.870637
 C  -20.251722    2.559289   17.589836
 C  -20.776135    2.114102   16.389635
 C  -19.924386    1.562101   15.453733
 F  -21.078589    3.099559   18.507633
 C  -16.318797    1.046776   14.435267
 C  -15.269839    1.882381   15.090637
 N  -18.112598   -0.007592   13.767651
 N  -17.158173   -0.397189   12.927966
 C  -16.066065    0.237405   13.311818
 C  -14.738647    0.221679   12.648514
 C  -14.116991    1.596939   12.912397
 N  -14.036149    1.855689   14.333219
 C  -12.714545    2.562152   16.248704
 C  -11.456126    2.789299   16.760337
 N  -11.753790    1.969648   14.142230
 H   -9.735412    2.046842   13.964237
 H   -9.341442    2.768379   16.328630
 H  -17.008992    1.817668   17.146268
 H  -18.524222    2.821189   18.816552
 H  -21.833631    2.206833   16.199371
 H  -20.329477    1.236853   14.507358
 H  -15.065362    1.475007   16.088041
 H  -15.637897    2.915444   15.213470
 H  -19.034710   -0.404472   13.690962
 H  -14.841869    0.031430   11.580894
 H  -14.104547   -0.557055   13.078855
 H  -13.102835    1.653709   12.519775
 H  -14.738306    2.369013   12.439494
 H  -13.580779    2.738680   16.865234
 H  -11.343548    3.123343   17.782470
