37 
5buj_ligand_dft.xyz
 C  -17.409650    1.156369   14.801149
 C  -16.250334    1.552350   14.159299
 C  -17.563532    2.318844   17.004498
 C  -18.349004    2.863242   18.013403
 C  -20.275688    2.310526   16.942207
 C  -19.586605    1.747245   15.873935
 C  -12.952339    2.269684   14.266187
 C  -12.720151    2.886377   15.551118
 C  -11.556354    2.643623   16.198848
 C  -10.719922    1.200770   14.417911
 C  -11.964433    1.464031   13.741936
 N  -17.794822    0.011498   14.173620
 C  -16.032447    0.569485   13.170625
 N  -16.965439   -0.373482   13.192554
 C  -15.379713    2.774582   14.291332
 N  -14.119274    2.566116   13.580702
 C  -14.322948    2.051428   12.231098
 C  -14.876084    0.615923   12.220584
 C  -18.189209    1.744912   15.895106
 N  -19.684023    2.867202   18.000705
 N  -10.605776    1.831848   15.669715
 O   -9.806571    0.491588   14.016089
 H  -16.482383    2.315684   17.095548
 H  -17.879618    3.313745   18.885195
 H  -21.363427    2.322270   16.942539
 H  -20.131817    1.341620   15.026973
 H  -13.416350    3.592859   15.981010
 H  -11.322179    3.095221   17.156275
 H  -12.070348    0.954298   12.794458
 H  -18.549585   -0.600328   14.442147
 H  -15.182986    3.007166   15.335988
 H  -15.886115    3.650495   13.862738
 H  -13.389083    2.131057   11.671717
 H  -15.045574    2.718001   11.744349
 H  -15.187264    0.333405   11.210053
 H  -14.102403   -0.093287   12.535586
 H   -9.741551    1.650632   16.160803
