62 
5bvf_ligand_xtb.xyz
 O   -2.622301    2.286910   -1.639819
 C    1.333610    0.940611   -0.412853
 C    0.781032   -0.291856   -0.109002
 C    2.749146    1.253343   -0.391683
 C    3.257524    2.463115   -0.880454
 C    4.625082    2.640299   -0.796012
 C    4.862043    0.612901    0.159403
 C   -1.503981   -1.284065   -0.063109
 C   -2.376954   -1.104097    1.185138
 C   -2.763767    0.369953    1.360915
 C   -4.587479    1.387563   -0.018848
 C   -5.476242    0.198142    0.253591
 C   -5.340025   -0.902877   -0.587290
 C   -6.091576   -2.042974   -0.371225
 C   -7.000794   -2.107910    0.673449
 C   -7.143789   -1.008821    1.499821
 C   -6.387022    0.135008    1.299369
 C   -4.888018    2.647037    0.811852
 C    7.068044   -0.136025    0.946612
 C    7.901108   -0.325823   -0.326229
 C    7.924678   -1.848469   -0.520428
Cl   -5.889018   -3.404434   -1.419559
 N    5.439647    1.733063   -0.282920
 N   -3.191019    0.993556    0.127585
 C    7.854137   -2.430757    0.914629
 C   -0.902457    1.066168   -0.573604
 O    6.859134   -2.294523   -1.323217
 C    7.598885   -1.243257    1.854770
 C    0.254168    1.797039   -0.723377
 C   -2.287295    1.512465   -0.754739
 N   -0.558588   -0.210974   -0.203918
 N    5.662253   -0.351407    0.668221
 O   -3.955606    3.665137    0.573006
 N    3.558156    0.331778    0.126654
 H    1.282353   -1.203512    0.146472
 H    2.616176    3.213800   -1.307305
 H    5.104189    3.544535   -1.151144
 H   -0.960467   -2.229754   -0.016221
 H   -2.144769   -1.300145   -0.950939
 H   -3.268946   -1.722978    1.082931
 H   -1.835289   -1.424197    2.076103
 H   -1.905392    0.922564    1.758771
 H   -3.577251    0.444160    2.083929
 H   -4.691077    1.667514   -1.077684
 H   -4.647170   -0.863310   -1.414003
 H   -7.585081   -3.000296    0.830378
 H   -7.852142   -1.044481    2.313336
 H   -6.520885    0.975449    1.960573
 H   -5.908708    2.986138    0.574960
 H   -4.825876    2.442425    1.885066
 H    7.196232    0.868043    1.364278
 H    7.459757    0.184972   -1.179016
 H    8.907962    0.056616   -0.166162
 H    8.824619   -2.181221   -1.043729
 H    8.772469   -2.953280    1.174975
 H    7.039519   -3.154477    0.955159
 H    6.055168   -1.858482   -1.010393
 H    8.533088   -0.910957    2.307067
 H    6.903893   -1.487214    2.657961
 H    0.295891    2.831939   -0.995713
 H    5.186886   -1.111942    1.127343
 H   -3.725128    3.670885   -0.367772
