30 
5bvk_ligand_xtb.xyz
 C   -3.283169    0.666869    0.280502
 C   -4.533977    0.232871    0.671936
 C   -3.835156   -2.026841    0.309011
 C   -2.583222   -1.591154   -0.082540
 C   -2.281827   -0.231229   -0.104808
 C    2.380758   -0.103150   -1.657443
 C    3.347065   -0.073967   -0.502930
 C    3.162536   -0.911392    0.593174
 C    4.050762   -0.838192    1.651957
 C    5.092738    0.075301    1.574277
Cl   -2.953677    2.378617    0.267431
 C   -4.813135   -1.123319    0.686898
 N   -1.046370    0.274417   -0.482736
 C    0.061697   -0.413557   -0.927879
 O    0.135911   -1.618344   -1.030016
 N    1.082708    0.422577   -1.283259
 N    5.276812    0.876757    0.540183
 C    4.425284    0.802520   -0.467126
 H   -5.282928    0.953251    0.962526
 H   -4.046043   -3.085106    0.317322
 H   -1.821554   -2.292080   -0.379861
 H    2.209321   -1.135232   -1.975598
 H    2.769825    0.478399   -2.497926
 H    2.335644   -1.607114    0.602574
 H    3.939873   -1.475352    2.515613
 H    5.815147    0.172649    2.374016
 H   -5.789909   -1.464748    0.991525
 H   -1.001696    1.286104   -0.460637
 H    1.043775    1.397647   -1.032836
 H    4.619592    1.477022   -1.292403
