52 
5bvo_ligand_dft.xyz
 C   -1.114486    1.138645    3.697187
 C   -1.862822    1.102839    2.367741
 N   -2.257178   -0.279830    2.075176
 C   -3.277502   -0.500861    1.212812
 C   -5.009502   -0.431198    0.010372
 C   -6.164663   -0.104490   -0.692486
 C   -6.201516   -2.407572   -1.540741
 C   -5.043049   -2.733633   -0.833567
 C   -4.487023   -1.724065   -0.077959
 C   -1.083468    1.706159    1.209226
 C   -1.686632    2.620647    0.352709
 C    1.073853    3.283828   -2.189210
 C    2.960392    0.341669    0.108595
 C    4.328329    0.228430   -0.411601
 C    5.124578    1.071450   -1.173397
 C    6.344564   -0.626537   -0.802798
 C    7.364469   -1.600624   -0.730967
 C    4.898649   -2.034678    0.530204
 N    5.134080   -0.875331   -0.167012
 N   -4.202932    0.334433    0.846478
 C   -6.728067   -1.119841   -1.453175
 F   -7.847247   -0.848270   -2.148920
 O   -3.357938   -1.762634    0.709049
 C   -0.974576    3.124000   -0.731254
 C    0.331606    2.727734   -0.999671
 C    0.929840    1.790318   -0.134662
 N    2.254085    1.395922   -0.415185
 O    2.507551   -0.443875    0.935803
 N    6.345140    0.559554   -1.414430
 C    7.133538   -2.758315   -0.041450
 C    5.882443   -2.973374    0.595696
 C    0.225966    1.295269    0.962093
 H   -1.751307    0.750508    4.496839
 H   -0.828140    2.166511    3.936256
 H   -0.199546    0.536701    3.665457
 H   -2.799805    1.654532    2.476154
 H   -1.505008   -0.954140    2.015030
 H   -6.610503    0.881854   -0.653883
 H   -6.704989   -3.140441   -2.160329
 H   -4.607248   -3.724897   -0.880540
 H   -2.717454    2.917711    0.518015
 H    1.965898    3.852364   -1.891828
 H    0.436189    3.966336   -2.756054
 H    1.394048    2.493069   -2.880078
 H    4.863866    2.055939   -1.545322
 H    8.302105   -1.391982   -1.231683
 H    3.925651   -2.111484    0.992963
 H   -1.450551    3.838809   -1.397476
 H    2.700628    1.888896   -1.171992
 H    7.904973   -3.518222    0.023411
 H    5.693984   -3.887963    1.145246
 H    0.713642    0.574367    1.603914
