60 
5bvw_ligand_xtb.xyz
 C   -2.810158   -2.332771   -0.348742
 C   -2.893037   -0.999678   -0.057234
 C   -4.019240   -0.106155    0.254529
 N    7.221784    0.133171    0.671329
 C   -8.820980    1.414353    0.741358
 C   -8.534259    0.312459    1.528382
 C   -7.354589   -0.396240    1.360044
 C   -7.029202   -1.581440    2.217891
 C    1.591017   -1.114396   -0.697589
 C    2.938253   -1.394352   -0.969052
 C    3.798431   -0.309652   -0.913650
 C    2.078701    1.087778   -0.370207
 C    1.590713    2.456451   -0.055863
 C    5.904322    0.810808   -1.291694
 C    5.933245   -1.490269   -0.676438
 C    7.851639    0.499247    1.961903
 C    9.103648    1.336833    1.675857
 N    0.639598   -2.080182   -0.729657
 C   -0.692629   -1.846831   -0.510601
 N   -1.568525   -2.799550   -0.597790
 S   -1.309617   -0.277517   -0.100961
 N   -5.247760   -0.693554    0.185954
 C   -6.455166    0.011647    0.370296
 C   -6.764783    1.104602   -0.437001
 C   -7.939351    1.813779   -0.245384
Cl   -5.705895    1.556537   -1.719997
 O   -3.839267    1.056168    0.551096
 N    3.373171    0.921133   -0.604844
 N    1.186036    0.116574   -0.393565
 N    5.150982   -0.417757   -1.229586
 C    6.394655    1.223089    0.097980
 C    6.440718   -1.122621    0.729691
 O    9.757315    0.702862    0.594084
 H   -3.621629   -3.037157   -0.398187
 H    8.030046   -0.012266    0.039067
 H   -9.738170    1.961794    0.892485
 H   -9.230967    0.002382    2.292540
 H   -7.748301   -1.673950    3.026533
 H   -7.057563   -2.500755    1.631204
 H   -6.032313   -1.482328    2.645552
 H    3.254834   -2.385563   -1.244130
 H    0.854812    2.410754    0.741791
 H    2.417475    3.106671    0.212689
 H    1.091209    2.861711   -0.934247
 H    5.251749    1.591146   -1.682862
 H    6.749915    0.666521   -1.971410
 H    6.783778   -1.686958   -1.338239
 H    5.337580   -2.399323   -0.609843
 H    8.151783   -0.421025    2.466759
 H    7.144430    1.039575    2.590810
 H    9.730880    1.360156    2.571569
 H    8.840306    2.369602    1.412599
 H    0.883698   -3.026634   -0.986516
 H   -5.309682   -1.696562    0.110754
 H   -8.158142    2.660607   -0.875658
 H    6.985026    2.136244    0.039650
 H    5.527565    1.387373    0.741314
 H    5.592182   -0.966447    1.400316
 H    7.069234   -1.922635    1.123821
 H   10.651277    1.045293    0.495769
