67 
5byz_ligand_xtb.xyz
 C    3.025773    2.204912    2.377836
 C    2.618501    1.707263    0.990341
 C    1.280997    2.294721    0.542079
 C    4.122198    3.136994   -0.470939
 C    3.504310    4.472270   -0.285730
 C    5.510439    1.676664   -1.167129
 C    3.271426   -2.325140    0.159305
 N    4.319986   -3.145808    0.187921
 C    5.645432   -1.237955   -0.212715
 C    0.787474   -2.552051    0.200916
 C   -0.245235   -3.458385    0.495804
 C   -1.910743   -1.821575   -0.094008
 C    0.442704   -1.267192   -0.237997
 C   -3.280403   -1.369840   -0.295573
 O   -3.547194   -0.160871   -0.442691
 C   -5.621135   -2.043249   -0.769712
 C   -6.117635    1.024494    1.316185
 C   -5.444803    2.381041    1.145854
 C   -6.097336    3.157667    0.007126
 C   -6.047568    2.320687   -1.266767
 C   -6.709582    0.969384   -1.029065
 N    3.676825    1.954431    0.026022
 N    5.204354    2.980166   -1.203864
 C    4.576458    0.992562   -0.406499
 C    4.496486   -0.424562   -0.191548
 N    3.306322   -1.011688   -0.000957
 C    5.508376   -2.595097   -0.000048
 F    6.868149   -0.714787   -0.390244
 N    2.075733   -2.976478    0.346573
 C   -1.563089   -3.105293    0.348543
 C   -0.877097   -0.915215   -0.370479
 N   -4.266574   -2.297594   -0.308927
 C   -6.425398   -1.153658    0.185499
 N   -6.012218    0.258546    0.059520
 H    3.977929    1.767955    2.670587
 H    3.123607    3.286819    2.403037
 H    2.273050    1.911538    3.104973
 H    2.515182    0.619522    1.035330
 H    1.237915    3.366060    0.712193
 H    1.116531    2.099129   -0.515102
 H    0.479177    1.827612    1.108846
 H    2.561566    4.542621   -0.826320
 H    3.327835    4.699644    0.762671
 H    4.191487    5.206869   -0.696051
 H    6.352848    1.290560   -1.703811
 H    0.007720   -4.448885    0.843688
 H    1.227601   -0.573179   -0.481073
 H   -6.123550   -3.005768   -0.860575
 H   -5.589064   -1.581826   -1.764247
 H   -7.173903    1.146823    1.573471
 H   -5.624812    0.462237    2.111636
 H   -4.385955    2.229008    0.928181
 H   -5.521984    2.936272    2.079828
 H   -5.576815    4.101517   -0.145994
 H   -7.134250    3.386151    0.260129
 H   -5.009185    2.166172   -1.565853
 H   -6.561194    2.832018   -2.080024
 H   -6.667527    0.364291   -1.935772
 H   -7.758822    1.103218   -0.748151
 H    6.365447   -3.252448    0.025130
 H    2.217026   -3.957727    0.556410
 H   -2.317202   -3.832468    0.613180
 H   -1.141994    0.072775   -0.714719
 H   -3.989739   -3.263046   -0.242200
 H   -6.248415   -1.485781    1.210768
 H   -7.492736   -1.246972   -0.027769
 H   -4.927856    0.201631   -0.210388
