67 
5byz_ligand_dft.xyz
 C    2.924082    2.087968    2.511320
 C    2.537204    1.642880    1.100894
 C    1.162720    2.150900    0.664388
 C    3.986876    3.220880   -0.272747
 C    3.245381    4.493881   -0.024980
 C    5.497366    1.890211   -0.979261
 C    3.388913   -2.322433   -0.101128
 N    4.461172   -3.118427   -0.119699
 C    5.724713   -1.114413   -0.264973
 C    0.879981   -2.597424   -0.043927
 C   -0.113963   -3.567009    0.200158
 C   -1.855883   -1.916958   -0.099292
 C    0.477387   -1.282018   -0.339085
 C   -3.261673   -1.492597   -0.153036
 O   -3.605403   -0.438368   -0.721341
 C   -5.622290   -2.149721    0.196505
 C   -5.888986    1.491981    1.159458
 C   -5.393708    2.737682    0.434708
 C   -6.265511    3.065856   -0.778760
 C   -6.360943    1.852800   -1.705756
 C   -6.854422    0.625547   -0.950732
 N    3.593789    1.975261    0.128543
 N    5.117937    3.190974   -0.955039
 C    4.580917    1.097841   -0.322042
 C    4.551434   -0.351701   -0.235330
 N    3.373609   -0.996560   -0.154270
 C    5.632535   -2.491402   -0.202043
 F    6.926945   -0.537232   -0.341334
 N    2.191248   -3.019281   -0.003163
 C   -1.451481   -3.232991    0.171544
 C   -0.866983   -0.962537   -0.366116
 N   -4.198196   -2.271126    0.459784
 C   -6.295790   -0.960762    0.887850
 N   -5.956477    0.332861    0.213878
 H    3.899312    1.677104    2.787696
 H    2.973509    3.176823    2.602978
 H    2.181797    1.723894    3.229085
 H    2.490752    0.555570    1.093737
 H    1.045113    3.226664    0.818115
 H    0.985819    1.930200   -0.393291
 H    0.393641    1.643589    1.256224
 H    2.313336    4.534342   -0.598250
 H    3.002380    4.648428    1.030028
 H    3.886192    5.311844   -0.356698
 H    6.391790    1.571319   -1.493994
 H    0.177413   -4.593599    0.403170
 H    1.225441   -0.533860   -0.554472
 H   -6.103376   -3.060098    0.560098
 H   -5.791903   -2.110324   -0.885911
 H   -6.892934    1.631783    1.575159
 H   -5.211954    1.206375    1.968112
 H   -4.355806    2.573748    0.118400
 H   -5.384368    3.566261    1.148733
 H   -5.849305    3.920216   -1.318798
 H   -7.270044    3.356809   -0.445452
 H   -5.381324    1.631645   -2.147028
 H   -7.049879    2.043224   -2.533652
 H   -6.862883   -0.260432   -1.589285
 H   -7.861865    0.776882   -0.547452
 H    6.533410   -3.099102   -0.212192
 H    2.348810   -4.012785    0.097113
 H   -2.175855   -4.028828    0.324171
 H   -1.169097    0.051783   -0.604894
 H   -3.886511   -3.077305    0.978315
 H   -5.959231   -0.899593    1.925047
 H   -7.383763   -1.070913    0.880853
 H   -4.986723    0.175702   -0.188863
