60 
5c20_ligand_dft.xyz
 O   -0.433374    1.144216    2.042142
 C   -0.004613    0.537719    1.054195
 C   -0.927353    0.298130   -0.140557
 C   -0.919958    1.538728   -1.073534
 C    0.466820    1.924385   -1.523311
 C    1.099174    3.048528   -0.988553
 C    2.416510    3.352218   -1.319908
 C    3.124622    2.526407   -2.189167
 C    2.500412    1.407269   -2.735000
 C    1.179633    1.114714   -2.410504
 N   -2.243622    0.037720    0.388247
 C   -3.223137   -0.499498   -0.379018
 O   -4.387062   -0.533969    0.304031
 C   -5.496090   -1.095543   -0.400062
 C   -6.736782   -0.944248    0.469330
 O   -3.078175   -0.907873   -1.516011
 N    1.245473    0.088351    0.898122
 C    2.352365    0.272369    1.834379
 C    2.534482    1.736949    2.288420
 O    1.751409    2.079977    3.396935
 C    3.630919   -0.254943    1.173496
 C    3.639619   -1.753040    0.828737
 C    5.041142   -2.385315    0.840820
 C    4.937817   -3.568524   -0.133145
 N    3.913982   -3.104085   -1.052926
 C    3.122793   -2.117697   -0.566873
 O    2.162644   -1.635306   -1.154183
 C   -7.043536    0.526997    0.754567
 C   -7.919127   -1.638344   -0.210945
 H   -0.597261   -0.576247   -0.709936
 H   -1.386585    2.366366   -0.528732
 H   -1.560997    1.291919   -1.926074
 H    0.558253    3.681967   -0.289736
 H    2.891253    4.230300   -0.891484
 H    4.155322    2.756533   -2.443509
 H    3.043672    0.754441   -3.411645
 H    0.707906    0.229002   -2.827234
 H   -2.466611    0.453387    1.282221
 H   -5.620738   -0.576980   -1.358014
 H   -5.288394   -2.149410   -0.616180
 H   -6.534807   -1.450120    1.422694
 H    1.461395   -0.401504    0.027911
 H    2.153311   -0.310810    2.744964
 H    2.356277    2.391166    1.420621
 H    3.576750    1.877847    2.596256
 H    0.831387    1.883435    3.139879
 H    3.846061    0.338593    0.274089
 H    4.451607   -0.075226    1.876599
 H    2.991767   -2.290105    1.537416
 H    5.360921   -2.690031    1.839730
 H    5.767515   -1.659120    0.458052
 H    4.624593   -4.489130    0.376790
 H    5.876844   -3.767569   -0.656404
 H    3.664166   -3.580919   -1.906533
 H   -6.196505    1.019538    1.239665
 H   -7.917547    0.622560    1.407647
 H   -7.260383    1.062519   -0.178402
 H   -7.717844   -2.700849   -0.387078
 H   -8.819546   -1.564040    0.407356
 H   -8.140413   -1.171340   -1.178543
