16 
5c3p_ligand_xtb.xyz
 C   -2.445989    0.369624   -0.056059
 O   -2.529812    1.515280   -0.392102
 O   -3.462794   -0.401562    0.292824
 C   -1.105756   -0.406819    0.006844
 O   -1.155977   -1.582593    0.296164
 C    0.117904    0.382906   -0.284454
 C    1.362241   -0.478275   -0.479265
 C    2.596800    0.187517    0.110222
 O    2.562914    1.161260    0.802002
 O    3.756979   -0.417017   -0.186037
 H   -3.120235   -1.297069    0.503133
 H    0.284080    1.048708    0.574403
 H   -0.080006    1.043643   -1.130338
 H    1.527223   -0.696557   -1.536655
 H    1.217976   -1.430669    0.043711
 H    3.649276   -1.200721   -0.740783
