16 
5c3p_ligand_dft.xyz
 C   -2.541204    0.210775   -0.000148
 O   -3.576942   -0.385641   -0.000836
 O   -2.500443    1.556351    0.000168
 C   -1.175848   -0.541660    0.000307
 O   -1.190779   -1.745534    0.000760
 C    0.104849    0.267823    0.000084
 C    1.343651   -0.613582   -0.000063
 C    2.613752    0.220581   -0.000073
 O    2.628638    1.422628    0.000209
 O    3.765879   -0.478027   -0.000432
 H   -1.596355    1.896722    0.000942
 H    0.124147    0.928828    0.877566
 H    0.123873    0.928845   -0.877381
 H    1.338516   -1.273772   -0.875587
 H    1.338645   -1.273906    0.875357
 H    3.589151   -1.428553   -0.000493
