50 
5c4t_ligand_xtb.xyz
 F   -2.421356    3.846157   -0.162592
 C   -1.079778    3.730630   -0.162179
 C   -0.457758    2.491245   -0.028761
 C   -0.839524    1.105513    0.146542
 C   -2.145404    0.474449    0.195551
 C   -3.210251    0.954517   -0.448706
 C   -4.547329    0.293288   -0.462958
 C   -4.494989   -1.159758    0.015509
 C   -5.907787   -1.683778    0.303682
 C   -3.923271   -2.030745   -1.093344
 O   -3.798677   -1.706593   -2.243035
 O   -3.603447   -3.260364   -0.665540
 C   -3.618143   -1.249037    1.268407
 C   -2.187705   -0.821991    0.959435
 N    0.230026    0.369420    0.300695
 N    1.321901    1.166313    0.228329
 C    0.953739    2.482356    0.023800
 C    1.733118    3.621886   -0.095090
 C    1.067516    4.819717   -0.256166
 C   -0.324671    4.877909   -0.280411
 C    2.582498    0.639346    0.362068
 O    3.593167    1.292846    0.323139
 C    2.543633   -0.849221    0.575501
 C    2.937596   -1.729177   -0.428910
 C    3.383017   -1.178430   -1.758960
 F    3.325867   -2.100606   -2.732963
 F    4.649475   -0.740707   -1.735790
 F    2.626016   -0.150453   -2.175360
 C    2.928456   -3.100813   -0.217115
 C    2.518062   -3.600031    1.006940
 C    2.120165   -2.742123    2.016571
 C    2.135515   -1.373285    1.798394
Cl    1.656690   -0.301306    3.054703
 H   -3.145416    1.865759   -1.021044
 H   -4.945045    0.326723   -1.480017
 H   -5.230033    0.865452    0.173077
 H   -5.871381   -2.730840    0.594777
 H   -6.536612   -1.587110   -0.578820
 H   -6.355730   -1.113141    1.114032
 H   -3.276447   -3.792704   -1.407679
 H   -3.624895   -2.268006    1.656574
 H   -4.040826   -0.588430    2.028115
 H   -1.619334   -0.712542    1.885175
 H   -1.676351   -1.585983    0.367362
 H    2.807367    3.560777   -0.057418
 H    1.630184    5.734591   -0.354480
 H   -0.832384    5.823540   -0.386342
 H    3.234881   -3.767199   -1.008007
 H    2.508141   -4.665473    1.174570
 H    1.798074   -3.124774    2.972048
