43 
5c4u_ligand_dft.xyz
 C   -3.380046   -3.453712   -0.640262
 C   -3.556854   -2.801267    0.574210
 C   -3.539540   -0.740362    1.994410
 C    2.084629    0.242055   -0.005767
 C    4.617907   -0.996243    0.195229
 F    1.153819   -1.936914   -0.240571
 C    2.221406   -1.148443   -0.078962
 C    3.460889   -1.754320    0.011571
 C    5.941387   -1.685997    0.360977
 O    6.165507   -2.698260   -0.511834
 O    6.746105   -1.420724    1.209043
 C    4.504446    0.398684    0.273472
 O    5.632811    1.128246    0.416000
 C    3.251237    0.995328    0.165156
 C    0.787916    0.924864   -0.105317
 C    0.528911    2.357192   -0.117038
 N    1.362898    3.402453   -0.042954
 C    0.785882    4.596299   -0.080606
 N   -0.340879    0.267357   -0.197533
 N   -1.345354    1.186209   -0.276768
 C   -0.861626    2.476444   -0.227962
 C   -1.470117    3.730801   -0.266958
 C   -0.601845    4.804811   -0.189960
 C   -2.673051    0.779064   -0.373656
 O   -3.575732    1.580286   -0.408611
 C   -2.881382   -0.711984   -0.442972
 C   -3.310793   -1.437162    0.673042
 F   -2.570509    0.155716    2.255127
 F   -3.560793   -1.611927    3.012844
 F   -4.705007   -0.080312    2.006980
 C   -2.956491   -2.748774   -1.758135
 C   -2.710026   -1.385211   -1.649840
Cl   -2.178042   -0.512624   -3.062689
 H   -3.570374   -4.518954   -0.716080
 H   -3.879361   -3.352136    1.449393
 H    3.504265   -2.838641   -0.023338
 H    5.492727   -2.685461   -1.205914
 H    5.401847    2.064215    0.458415
 H    3.162940    2.077376    0.207263
 H    1.453839    5.451793   -0.020578
 H   -2.543337    3.841948   -0.349482
 H   -0.983966    5.819578   -0.211991
 H   -2.812688   -3.245077   -2.711182
