43 
5c4u_ligand_xtb.xyz
 C   -2.897335   -3.567594   -0.507848
 C   -3.281121   -2.878100    0.629582
 C   -3.626161   -0.728739    1.875764
 C    2.008823    0.294231    0.013644
 C    4.534737   -0.915021    0.249045
 F    1.087038   -1.892487   -0.238737
 C    2.154144   -1.094707   -0.054717
 C    3.394713   -1.688794    0.055190
 C    5.868752   -1.569487    0.441325
 O    6.113530   -2.604189   -0.387344
 O    6.661954   -1.242647    1.272201
 C    4.412181    0.482341    0.320013
 O    5.522989    1.223757    0.462033
 C    3.155592    1.063196    0.196555
 C    0.721133    0.944129   -0.106810
 C    0.446788    2.362739   -0.117984
 N    1.241826    3.423410   -0.015947
 C    0.643698    4.595572   -0.064399
 N   -0.397208    0.279499   -0.236464
 N   -1.415649    1.156955   -0.343519
 C   -0.953837    2.453315   -0.273685
 C   -1.578201    3.690627   -0.324444
 C   -0.735860    4.780802   -0.213959
 C   -2.716834    0.710966   -0.475659
 O   -3.656467    1.451524   -0.580445
 C   -2.782366   -0.788765   -0.476359
 C   -3.219719   -1.492174    0.642665
 F   -2.793826    0.293047    2.147492
 F   -3.641097   -1.498512    2.972299
 F   -4.854101   -0.200058    1.772073
 C   -2.454782   -2.886322   -1.627219
 C   -2.398058   -1.501805   -1.607333
Cl   -1.853970   -0.641101   -2.992059
 H   -2.939420   -4.645195   -0.519180
 H   -3.617609   -3.407785    1.506851
 H    3.453940   -2.767560    0.027436
 H    5.406759   -2.739392   -1.032236
 H    5.298194    2.160644    0.532719
 H    3.045831    2.137602    0.244240
 H    1.300462    5.450646    0.021375
 H   -2.645916    3.783732   -0.439728
 H   -1.135092    5.782098   -0.241743
 H   -2.148340   -3.419056   -2.513131
