16 
5c5t_ligand_dft.xyz
 C    2.541220    0.210809    0.000011
 O    2.500241    1.556375   -0.000061
 O    3.577010   -0.385547    0.000036
 C    1.175896   -0.541686    0.000088
 O    1.190849   -1.745558    0.000332
 C   -0.104815    0.267814   -0.000281
 C   -1.343619   -0.613625   -0.000432
 C   -2.613768    0.220562    0.000070
 O   -2.628625    1.422611    0.000378
 O   -3.765893   -0.478031   -0.000029
 H    1.596098    1.896606   -0.000043
 H   -0.123785    0.928682   -0.877874
 H   -0.124210    0.928980    0.877062
 H   -1.338369   -1.274277    0.874736
 H   -1.338721   -1.273487   -0.876198
 H   -3.589146   -1.428548    0.000324
