102 
5c6v_ligand_xtb.xyz
 N   -0.551866   -1.955458   -0.300452
 C   -1.751552   -2.664767    0.164926
 C   -2.933619   -2.040851   -0.589401
 O   -2.784261   -1.728051   -1.757031
 N   -4.044624   -1.818766    0.115627
 C   -5.161458   -1.040545   -0.403815
 C   -4.879673    0.450272   -0.076419
 O   -5.626094    1.142182    0.576669
 C   -6.490617   -1.487305    0.191693
 C   -7.125578   -2.722396   -0.461931
 C   -6.242739   -3.962951   -0.341401
 C   -7.490748   -2.468994   -1.922916
 N   -3.691669    0.843924   -0.569731
 C   -3.010659    2.092792   -0.313853
 C   -1.581950    1.894900   -0.849774
 O   -1.182584    0.804287   -1.216218
 C   -3.064786    2.494323    1.170847
 C   -2.511521    1.414888    2.106158
 C   -1.054481    1.148845    1.817624
 O   -0.614803    0.042855    1.565451
 O   -0.324543    2.232962    1.871344
 N   -0.832243    3.004001   -0.933634
 C    0.405275    3.024228   -1.689435
 C    1.527901    2.199750   -1.045099
 O    1.666797    2.050929    0.156623
 C    0.850541    4.479501   -1.891587
 C    1.171313    5.228565   -0.581773
 C    2.677721    5.311962   -0.347995
 C    0.574899    6.635190   -0.614660
 N    2.415377    1.744072   -1.947097
 C    3.527048    0.870812   -1.622351
 C    3.008172   -0.512999   -1.190833
 O    1.830068   -0.811035   -1.184379
 C    4.446389    1.451492   -0.509275
 O    4.196825    0.918802    0.756202
 N    3.980553   -1.361081   -0.825767
 C    3.648091   -2.664017   -0.286678
 C    2.578097   -2.518201    0.795417
 O    1.556847   -3.198238    0.775237
 C    4.876215   -3.361464    0.305101
 C    5.788182   -4.065594   -0.713921
 C    6.353599   -3.108940   -1.761118
 C    5.083555   -5.239656   -1.389716
 N    2.858952   -1.658200    1.778504
 C    1.991148   -1.506875    2.919320
 C    1.684255   -0.062110    3.245615
 O    0.892027    0.028892    4.307237
 O    2.116646    0.890850    2.656076
 H   -0.467630   -1.035717    0.178552
 H   -0.640109   -1.748705   -1.306329
 H    0.323010   -2.486932   -0.085190
 H   -1.848813   -2.557957    1.244224
 H   -1.674908   -3.724330   -0.090746
 H   -4.111841   -2.110947    1.078513
 H   -5.158990   -1.151151   -1.492085
 H   -6.351810   -1.671236    1.260372
 H   -7.180722   -0.646194    0.104905
 H   -8.053814   -2.913518    0.087207
 H   -6.778237   -4.833609   -0.711043
 H   -5.972561   -4.149965    0.695953
 H   -5.334377   -3.854342   -0.929336
 H   -6.602754   -2.397105   -2.546808
 H   -8.095502   -3.288573   -2.302125
 H   -8.061922   -1.549445   -2.022608
 H   -3.165210    0.220493   -1.174163
 H   -3.478035    2.901866   -0.896394
 H   -2.508423    3.420301    1.317136
 H   -4.110902    2.667045    1.425689
 H   -3.075853    0.488442    2.004531
 H   -2.602753    1.767819    3.134661
 H    0.591277    2.105750    1.497131
 H   -1.181401    3.885704   -0.593139
 H    0.191990    2.568692   -2.666986
 H    1.722659    4.493239   -2.546893
 H    0.042906    4.992491   -2.418537
 H    0.733289    4.683761    0.261324
 H    3.112048    4.318835   -0.274803
 H    3.162810    5.848525   -1.160576
 H    2.885735    5.838422    0.579637
 H    0.801630    7.163302    0.307536
 H   -0.506747    6.605664   -0.730621
 H    0.992743    7.203588   -1.442232
 H    2.168701    1.800376   -2.922294
 H    4.112064    0.752736   -2.538646
 H    4.350517    2.543441   -0.514625
 H    5.487657    1.209646   -0.741601
 H    3.333946    1.246756    1.077726
 H    4.934926   -1.050194   -0.748652
 H    3.203421   -3.280176   -1.077279
 H    4.525357   -4.113942    1.014789
 H    5.457361   -2.625961    0.867045
 H    6.627842   -4.467840   -0.136628
 H    6.874950   -2.277351   -1.290478
 H    5.566541   -2.723311   -2.404777
 H    7.068790   -3.635429   -2.387770
 H    4.299405   -4.899000   -2.061342
 H    5.797168   -5.811749   -1.976306
 H    4.642579   -5.902825   -0.649828
 H    3.613543   -0.988462    1.676576
 H    1.053742   -2.032727    2.715513
 H    2.444480   -1.958178    3.810711
 H    0.725363    0.955954    4.544755
