48 
5c7c_ligand_dft.xyz
 C   -4.281508    1.045025    0.426285
 C   -3.331082    0.685348   -0.707350
 C   -3.099532   -0.836533   -0.789443
 N   -1.773197   -1.119657   -1.345405
 C   -1.499750   -2.000932    2.591497
 C   -0.894787   -0.984012    1.959602
 C    1.841900   -2.157975   -0.284252
 C    1.549951   -2.727407   -1.675760
 C    3.148505   -2.754479    0.264161
 C    1.926769   -0.644978   -0.273655
 C    2.746534    0.187283   -1.010825
 C    2.737325    1.565555   -0.777322
 C    1.913568    2.057824    0.227293
 C    1.068592   -0.117923    0.700325
 C   -1.173909    1.206254   -1.710173
 O   -1.435094    0.250716    1.940593
 N    0.325862   -1.130723    1.290660
 C    0.666378   -2.423241    0.697960
Cl    1.905042    3.783746    0.544879
 C    1.078343    1.247454    0.991761
 C   -1.398618   -0.162124   -2.373449
 N   -2.022321    1.322024   -0.511419
 H   -5.230784    0.512285    0.309064
 H   -4.499852    2.119099    0.432134
 H   -3.839911    0.770716    1.389022
 H   -3.775859    1.027970   -1.657487
 H   -3.147246   -1.277332    0.213360
 H   -3.916870   -1.270688   -1.390190
 H   -1.750071   -2.064507   -1.712065
 H   -1.026457   -2.966347    2.715155
 H   -2.469031   -1.833554    3.042317
 H    0.625500   -2.303343   -2.077634
 H    2.363517   -2.498849   -2.373336
 H    1.440729   -3.817461   -1.633354
 H    3.993667   -2.506757   -0.387466
 H    3.075993   -3.846753    0.331097
 H    3.363932   -2.360857    1.262765
 H    3.407662   -0.223933   -1.769565
 H    3.366959    2.236112   -1.350124
 H   -0.132106    1.312459   -1.401364
 H   -1.397557    1.999030   -2.439197
 H    0.957307   -3.140600    1.474037
 H   -0.220985   -2.816147    0.188007
 H    0.454176    1.666497    1.768402
 H   -0.467396   -0.486872   -2.846387
 H   -2.156837   -0.076751   -3.173342
 H   -2.147159    2.303947   -0.279559
 H   -1.480762    0.600894    1.001239
