41 
5c7d_ligand_xtb.xyz
 C    5.650244    1.759477   -0.985629
 C    5.019935    0.720823   -0.063410
 C    3.797826    0.070457   -0.735307
 N    3.221106   -0.914797    0.162730
 C    1.978023   -1.486866   -0.295633
 C    0.836113   -0.487503   -0.145467
 C   -2.163149   -2.408132   -1.266576
 C   -2.652167   -1.046323   -0.882668
 C   -3.917935   -0.509883   -0.872977
 C   -3.126116    1.474192   -0.105210
 C   -1.797395    1.055866   -0.069472
 C   -0.731657   -2.549184    2.534291
 O    0.983001    0.634581    0.277829
 N   -0.386775   -0.962850   -0.544899
 C   -0.646444   -2.320777   -1.016213
 N   -4.147755    0.739518   -0.485588
Cl   -3.502594    3.077907    0.382090
 C   -1.575104   -0.249616   -0.470933
 C   -1.186865   -1.313766    2.510991
 N    4.688366    1.338393    1.208310
 H    6.489943    2.229055   -0.481844
 H    6.001062    1.296833   -1.904698
 H    4.923011    2.528636   -1.236714
 H    5.758586   -0.064373    0.150528
 H    3.042017    0.838525   -0.913244
 H    4.085751   -0.367442   -1.708703
 H    3.900790   -1.647776    0.341632
 H    2.016121   -1.814065   -1.353606
 H    1.747756   -2.360452    0.320646
 H   -2.628697   -3.180439   -0.653286
 H   -2.390131   -2.627928   -2.310778
 H   -4.788632   -1.073667   -1.176568
 H   -1.004847    1.705436    0.256507
 H    0.318783   -2.765968    2.646628
 H   -1.386228   -3.403437    2.460908
 H   -0.330463   -3.040120   -0.255479
 H   -0.078863   -2.511656   -1.931558
 H   -2.237459   -1.093927    2.409566
 H   -0.531011   -0.462743    2.590309
 H    4.200367    0.659136    1.784073
 H    4.035779    2.100858    1.048932
