19 
5c85_ligand_dft.xyz
 O    4.798538    0.325211    0.007710
 C    3.613902    0.062175    0.039512
 C    3.083435   -1.331331    0.346810
 N    1.802458   -1.556860   -0.300680
 C    0.830600   -0.576098   -0.138139
 C   -0.534121   -0.852943   -0.102990
 C   -1.446404    0.192083   -0.009277
Br   -3.299132   -0.209163    0.027148
 C   -1.031127    1.513200    0.066797
 C    0.334040    1.787992    0.043034
 C    1.260221    0.760453   -0.066355
 N    2.639366    1.008026   -0.142656
 H    3.038244   -1.430417    1.445495
 H    3.817151   -2.046348   -0.027785
 H    1.459629   -2.503508   -0.214154
 H   -0.882875   -1.879187   -0.158242
 H   -1.753972    2.316196    0.145393
 H    0.678769    2.816622    0.102595
 H    2.968335    1.954320   -0.278158
