57 
5c8m_ligand_xtb.xyz
 C   -4.291468   -0.203582    0.182533
 C   -4.823251    1.075724    0.257718
 C   -1.338670   -2.259362   -0.293351
 C   -2.728476    1.995005    0.015242
 C   -2.073579    0.770241   -0.056203
 C   -2.891727   -0.343455    0.010011
 C   -0.807209   -2.942553    0.965993
 C   -1.271016   -3.191181   -1.500683
 N   -4.864111   -1.448006    0.206360
 C   -4.129470   -3.758256   -0.012341
 C   -3.890841   -2.294997    0.045728
 N   -4.051840    2.139144    0.161157
 N   -2.656695   -1.691609   -0.081503
 N   -2.070950    3.205883   -0.144746
 C   -0.733087    3.458644   -0.199570
 C   -0.261846    4.633680   -0.813229
 C    1.104792    4.740904   -0.946644
 N    1.957368    3.847590   -0.464980
 C    1.418464    2.829460    0.210445
 N    0.112562    2.580677    0.329620
 N    2.267718    1.996897    0.862033
 C    3.636148    1.846315    0.438063
 C    3.798704    0.513914   -0.308894
 C    3.346933   -0.631766    0.580250
 C    1.926023   -0.424662    1.062341
 C    1.781298    0.950779    1.721744
 S    3.396508   -2.181786   -0.402530
 O    2.127984   -2.367077   -1.060267
 O    4.575135   -2.189843   -1.222660
 C    3.577384   -3.505444    0.838133
 H   -5.881596    1.254259    0.379196
 H   -0.690763   -1.404826   -0.510479
 H   -1.005544    0.729088   -0.177532
 H   -1.382104   -3.832954    1.207166
 H    0.224032   -3.233452    0.785243
 H   -0.848216   -2.262282    1.814393
 H   -1.688932   -4.168980   -1.279871
 H   -1.802954   -2.759299   -2.345364
 H   -0.225672   -3.312224   -1.774291
 H   -3.454512   -4.302182    0.643907
 H   -5.154930   -3.939766    0.296856
 H   -4.004099   -4.126523   -1.029425
 H   -2.697357    3.977068   -0.329837
 H   -0.938731    5.374297   -1.203920
 H    1.557021    5.575322   -1.467572
 H    4.287468    1.860061    1.319458
 H    3.881802    2.689369   -0.206774
 H    4.833813    0.363158   -0.614525
 H    3.178804    0.524692   -1.207616
 H    4.044882   -0.786570    1.404017
 H    1.635821   -1.202973    1.769014
 H    1.267673   -0.485925    0.195632
 H    0.735277    1.157264    1.948219
 H    2.366928    0.973676    2.649498
 H    2.793081   -3.402988    1.576311
 H    3.487880   -4.451911    0.319834
 H    4.558844   -3.411958    1.283070
