64 
5c8n_ligand_dft.xyz
 C   -4.162674    0.249026   -1.359638
 C   -4.050575    1.437698   -2.077074
 C   -2.945538   -1.772955    1.393464
 C   -2.349579    2.149944   -0.693867
 C   -2.398299    1.031929    0.132060
 C   -3.332674    0.072830   -0.243430
 C   -3.857233   -2.464792    2.405079
 C   -1.832086   -2.685861    0.874781
 N   -4.973662   -0.856205   -1.533898
 C   -5.296323   -3.002793   -0.381416
 C   -4.653324   -1.667888   -0.562701
 N   -3.154156    2.362169   -1.750492
 N   -3.668745   -1.155321    0.278486
 N   -1.459624    3.219354   -0.479898
 C   -0.208565    3.204462    0.065021
 C    0.578083    4.376528    0.048937
 C    1.844551    4.259232    0.573090
 N    2.345052    3.123529    1.081541
 C    1.502980    2.086932    1.078760
 N    0.256467    2.070199    0.589862
 N    1.956298    0.900036    1.632466
 C    3.390137    0.710330    1.772051
 C    3.995740    0.237252    0.444669
 C    3.299420   -1.030734   -0.081061
 C    1.772678   -0.845179   -0.071326
 C    1.274412   -0.334739    1.285048
 C    3.759014   -1.356911   -1.526453
 C    5.256036   -1.604797   -1.579092
 N    5.656096   -2.155935   -2.935066
 O    3.749212   -2.070180    0.786375
 C    3.038165   -3.289169    0.798820
 H   -4.689046    1.643398   -2.932154
 H   -2.478857   -0.930613    1.913600
 H   -1.747587    0.946662    0.989067
 H   -4.237488   -3.420030    2.035592
 H   -3.288353   -2.667955    3.317314
 H   -4.704767   -1.825318    2.666713
 H   -2.246903   -3.552173    0.348877
 H   -1.186721   -2.138555    0.179306
 H   -1.223288   -3.052278    1.708418
 H   -5.937629   -3.024128    0.505135
 H   -5.915039   -3.193396   -1.259033
 H   -4.559510   -3.807071   -0.287245
 H   -1.706568    4.030228   -1.030874
 H    0.211111    5.310216   -0.360429
 H    2.513921    5.116540    0.585817
 H    3.563264   -0.040281    2.549153
 H    3.845456    1.649319    2.080804
 H    5.063716    0.034950    0.589861
 H    3.896154    1.045485   -0.290882
 H    1.268266   -1.777098   -0.352325
 H    1.500499   -0.101149   -0.829382
 H    0.200870   -0.162363    1.245762
 H    1.479412   -1.065112    2.075734
 H    3.479130   -0.528579   -2.187169
 H    3.221003   -2.249636   -1.875141
 H    5.557797   -2.340586   -0.831609
 H    5.839942   -0.693436   -1.442405
 H    6.664432   -2.330177   -2.996392
 H    5.174859   -3.039867   -3.129446
 H    5.406285   -1.503728   -3.685644
 H    2.045768   -3.188825    1.252890
 H    2.916560   -3.722562   -0.205687
 H    3.629448   -3.977280    1.405434
