55 
5caq_ligand_dft.xyz
 C   -4.550595   -1.272714   -0.387211
 C   -3.577277   -2.257873   -0.469621
 C   -5.458868    2.197399    0.257655
 C   -1.926705   -0.754057    0.090529
 C   -2.815337    0.322567    0.208429
 C   -4.151033    0.032683   -0.042894
 C   -5.084372    2.495873    1.710205
 C   -4.691672    3.056537   -0.748316
 N   -5.919226   -1.328455   -0.589000
 C   -7.758683    0.315344   -0.481300
 C   -6.332374   -0.111568   -0.377208
 N   -2.292555   -2.001717   -0.235996
 N   -5.312391    0.772938   -0.041405
 N   -0.578608   -0.499246    0.329026
 C    0.537271   -1.308677    0.291956
 C    0.546168   -2.680981    0.008792
 C    1.797310   -3.270817    0.021541
 N    2.937988   -2.633041    0.282126
 C    2.809606   -1.323739    0.553299
 N    1.661978   -0.633809    0.557381
 N    3.956942   -0.632991    0.872368
 C    5.260320   -1.199840    0.540146
 C    5.708788   -0.720942   -0.845762
 C    5.707458    0.809464   -0.917541
 C    4.323285    1.321378   -0.509401
 C    3.947817    0.820501    0.881423
 F    4.293624    2.712909   -0.525295
 O    6.723105    1.253619   -0.042009
 C    7.182535    2.571059   -0.248368
 H   -3.836769   -3.281153   -0.729303
 H   -6.523744    2.412364    0.134841
 H   -2.460103    1.310448    0.479193
 H   -4.026361    2.294414    1.901825
 H   -5.676379    1.880419    2.393661
 H   -5.274606    3.549760    1.935371
 H   -3.611855    2.900854   -0.672558
 H   -4.892877    4.115913   -0.561802
 H   -4.997454    2.818945   -1.771238
 H   -8.135092    0.714868    0.467050
 H   -8.351747   -0.559131   -0.751025
 H   -7.897604    1.082865   -1.250995
 H   -0.334932    0.453583    0.559986
 H   -0.360939   -3.220687   -0.210104
 H    1.894203   -4.333259   -0.195336
 H    5.184539   -2.284650    0.574686
 H    5.977677   -0.867757    1.297122
 H    5.028344   -1.129083   -1.602716
 H    6.718076   -1.080670   -1.068154
 H    5.927683    1.149297   -1.942441
 H    3.577912    0.969997   -1.234332
 H    4.690132    1.175241    1.603734
 H    2.962974    1.183935    1.166788
 H    8.121963    2.663748    0.302089
 H    6.471510    3.319966    0.112538
 H    7.377265    2.759331   -1.314762
