55 
5caq_ligand_xtb.xyz
 C   -4.572097   -1.289187   -0.262451
 C   -3.582135   -2.254456   -0.334997
 C   -5.541337    2.193352    0.183647
 C   -1.951722   -0.677752    0.030035
 C   -2.858762    0.384065    0.117562
 C   -4.194895    0.061432   -0.032140
 C   -5.037192    2.616019    1.563925
 C   -4.865246    2.977916   -0.941374
 N   -5.935992   -1.367699   -0.372602
 C   -7.812919    0.200940   -0.267925
 C   -6.373485   -0.156183   -0.221941
 N   -2.309850   -1.944461   -0.191054
 N   -5.370269    0.768940   -0.011598
 N   -0.611845   -0.389807    0.183373
 C    0.487802   -1.206037    0.182091
 C    0.467759   -2.586093   -0.044002
 C    1.697501   -3.210914   -0.010851
 N    2.837931   -2.579553    0.221887
 C    2.753711   -1.263010    0.434867
 N    1.625067   -0.549656    0.413483
 N    3.900547   -0.607368    0.749090
 C    5.184487   -1.236858    0.547216
 C    5.808020   -0.785465   -0.777339
 C    5.914214    0.744920   -0.806991
 C    4.495168    1.307054   -0.599020
 C    3.945325    0.831732    0.747744
 F    4.490148    2.688303   -0.658069
 O    6.813703    1.124478    0.212661
 C    7.402061    2.394620    0.059061
 H   -3.807300   -3.296150   -0.510654
 H   -6.618111    2.387166    0.138114
 H   -2.502274    1.386741    0.295593
 H   -3.965202    2.467925    1.651861
 H   -5.527922    2.031411    2.339159
 H   -5.256552    3.667514    1.729525
 H   -3.789483    2.830631   -0.929498
 H   -5.071792    4.038670   -0.826211
 H   -5.244336    2.652425   -1.907824
 H   -8.136575    0.641381    0.674797
 H   -8.378140   -0.709069   -0.444431
 H   -8.016155    0.906181   -1.073277
 H   -0.378544    0.578265    0.361932
 H   -0.453578   -3.102878   -0.231847
 H    1.789436   -4.276098   -0.182109
 H    5.031697   -2.315209    0.553477
 H    5.844217   -0.943842    1.368137
 H    5.192329   -1.124255   -1.611356
 H    6.805493   -1.212379   -0.875631
 H    6.296992    1.087098   -1.782867
 H    3.844280    0.971109   -1.416081
 H    4.616692    1.170688    1.542842
 H    2.940625    1.220374    0.911361
 H    8.142005    2.477939    0.853229
 H    6.673289    3.203558    0.155932
 H    7.901268    2.480905   -0.913590
