59 
5cav_ligand_dft.xyz
 C   -4.246517    2.557803   -0.371788
 C   -3.448986   -1.778587   -0.339920
 C   -2.417280   -2.689323   -0.521234
 C   -0.851627   -1.109356    0.069551
 C   -1.803870   -0.103404    0.279949
 C   -3.126453   -0.474922    0.079072
 C   -4.613735    1.513236    0.677470
 C   -3.980578    1.786847    2.038915
 C   -5.308381   -0.754740   -0.199791
 C   -7.616652   -1.527086   -0.811298
 C   -6.776930   -0.411451   -0.210197
 N   -4.817093   -1.917823   -0.505918
 N   -1.146469   -2.361533   -0.313224
 N   -4.341643    0.174420    0.182404
 F   -4.834890    2.283571   -1.544544
 F   -4.659717    3.772252    0.021971
 F   -2.923112    2.631555   -0.587597
 N    0.482630   -0.775248    0.267172
 C    1.643842   -1.520379    0.208634
 C    1.730213   -2.881403   -0.109774
 C    3.012674   -3.401541   -0.100114
 N    4.113694   -2.708285    0.185146
 C    3.911773   -1.413662    0.483541
 N    2.726341   -0.789936    0.496027
 N    5.014070   -0.667422    0.827211
 C    6.355353   -1.159543    0.531270
 C    6.833307   -0.616994   -0.820460
 C    6.757852    0.913033   -0.847488
 C    5.334485    1.344701   -0.484071
 C    4.927714    0.782649    0.874739
 F    5.240153    2.732650   -0.452201
 O    7.703209    1.385903    0.090761
 C    8.182888    2.692484   -0.136288
 O   -7.208511   -0.059402    1.102485
 H   -2.620048   -3.707885   -0.842396
 H   -1.504700    0.902143    0.546402
 H   -5.695206    1.584988    0.800266
 H   -4.269449    2.780962    2.387091
 H   -4.349259    1.046811    2.752634
 H   -2.891374    1.732448    2.014294
 H   -7.340427   -1.704528   -1.853501
 H   -8.671421   -1.245207   -0.759649
 H   -7.463223   -2.464136   -0.267674
 H   -6.917016    0.503590   -0.795895
 H    0.672457    0.181310    0.531769
 H    0.856968   -3.465943   -0.350049
 H    3.169331   -4.451786   -0.340108
 H    6.334440   -2.247292    0.532052
 H    7.026299   -0.815792    1.325083
 H    7.867793   -0.918957   -1.010697
 H    6.205520   -1.034663   -1.616708
 H    7.005979    1.293914   -1.850674
 H    4.635862    0.984997   -1.250354
 H    5.619544    1.155960    1.636592
 H    3.913373    1.084378    1.126376
 H    8.600954    2.790335   -1.149906
 H    8.981807    2.859766    0.589955
 H    7.403923    3.448589   -0.002415
 H   -7.146883   -0.855643    1.646846
