21 
5cc2_ligand_dft.xyz
 C    1.599976    1.786188    0.000058
 C    2.767006    1.037095   -0.000016
 C    2.676392   -0.355003   -0.000049
 C    1.448253   -1.002671   -0.000004
 C    0.281006   -0.241234    0.000022
 C   -2.039215   -0.287185   -0.000121
 C   -3.307069   -1.120775    0.000002
 N   -0.941150   -0.940688    0.000133
 C    0.353854    1.161318    0.000043
 C   -2.193516    1.199559   -0.000677
 C   -0.888151    1.972408    0.000182
 O   -0.875348    3.185943    0.000621
Cl    4.135877   -1.304433   -0.000126
 O   -3.093970   -2.432948    0.000652
 O   -4.399973   -0.614703   -0.000471
 H    1.633171    2.870779    0.000125
 H    3.738791    1.517521   -0.000038
 H    1.381099   -2.084305    0.000017
 H   -2.795001    1.505597    0.864384
 H   -2.793219    1.504895   -0.867259
 H   -2.123571   -2.558845    0.000904
