37 
5ccl_ligand_xtb.xyz
 O   -0.865832   -1.533344   -0.962440
 C   -0.597334   -0.495994   -0.390784
 N   -1.604087    0.291162    0.119639
 C   -2.974226   -0.093807   -0.049328
 C   -3.787690    0.982732   -0.782897
 C   -5.209535    0.494529   -1.010486
 N   -5.838568    0.167875    0.299919
 C   -5.087391   -0.892371    1.029023
 C   -3.663808   -0.422166    1.283597
 C    0.778620   -0.001600   -0.190571
 C    1.806600   -0.953301   -0.250004
 C    3.105491   -0.545624   -0.086675
 C    3.398553    0.813043    0.119053
 N    4.756544    0.971044    0.247262
 C    5.438740   -0.224380    0.139288
 O    6.629894   -0.341246    0.219158
 C    4.390665   -1.305569   -0.090076
 C    2.396616    1.767839    0.156877
 C    1.087123    1.344818    0.003030
 H   -1.379511    1.097320    0.677444
 H   -2.924387   -1.002303   -0.665724
 H   -3.324207    1.195687   -1.745518
 H   -3.790863    1.909264   -0.203279
 H   -5.202853   -0.409962   -1.621281
 H   -5.809085    1.255132   -1.513643
 H   -6.811647   -0.124403    0.159249
 H   -5.839636    1.017793    0.878068
 H   -5.080908   -1.792499    0.411803
 H   -5.601229   -1.111759    1.966565
 H   -3.662627    0.456450    1.933612
 H   -3.112529   -1.212036    1.792579
 H    1.550455   -1.986891   -0.423397
 H    5.222570    1.852577    0.396509
 H    4.580581   -1.816431   -1.035368
 H    4.446847   -2.056353    0.699788
 H    2.627009    2.812590    0.293880
 H    0.307752    2.093078   -0.003050
