35 
5ceh_ligand_xtb.xyz
 C   -0.253038    1.198295    0.034580
 C   -0.459093   -0.147568   -0.022147
 C    1.868998   -0.568590   -0.064053
 C    3.109762   -1.199112   -0.084841
 C    4.029837   -0.117831   -0.067499
 C    1.093220    1.762663   -0.000809
 C   -1.485550    3.102980   -1.030513
 C   -1.240474    2.987598    1.470807
 C   -1.398917    2.175037    0.182816
 N    0.595484   -1.024575   -0.066932
 N    3.419713    1.035526   -0.041462
 N    2.102418    0.774083   -0.038477
 O    1.388437    2.931950   -0.002337
 C    3.349752   -2.573619   -0.109787
 N    3.512284   -3.710199   -0.127945
 C   -1.778310   -0.809977   -0.024901
 C   -2.730043   -0.518319   -0.998005
 C   -3.946045   -1.176720   -0.999782
 C   -4.223303   -2.132410   -0.036123
 C   -3.277542   -2.433616    0.929382
 C   -2.058056   -1.781038    0.933213
 H    5.099711   -0.174704   -0.072558
 H   -2.337338    3.770139   -0.925233
 H   -0.582075    3.700217   -1.108004
 H   -1.605269    2.531046   -1.948747
 H   -0.350593    3.607344    1.420704
 H   -2.106128    3.630916    1.606813
 H   -1.162472    2.326526    2.331885
 H   -2.328852    1.602835    0.257984
 H    0.423843   -2.019046   -0.116465
 H   -2.506740    0.212938   -1.759506
 H   -4.678529   -0.944079   -1.757778
 H   -5.173850   -2.643669   -0.039289
 H   -3.487959   -3.179119    1.681184
 H   -1.327725   -2.007430    1.697399
