155 
5cfa_ligand_xtb.xyz
 N    1.572255   -0.488667   -0.897923
 C    1.182426   -1.532392   -1.872470
 C   -0.355419   -1.521619   -1.835388
 O   -0.923485   -0.456275   -1.650391
 C    1.818702   -2.852279   -1.468074
 N   -1.009384   -2.676741   -1.971937
 C   -2.447590   -2.712412   -1.754552
 C   -2.713595   -2.763232   -0.241736
 O   -3.116330   -3.791434    0.297341
 C   -3.153727   -3.895797   -2.415005
 C   -4.659269   -3.585827   -2.476360
 C   -5.607721   -4.767677   -2.274370
 C   -5.597146   -5.386974   -0.876354
 N   -5.684864   -4.363703    0.193693
 N   -2.504124   -1.642940    0.441047
 C   -2.821563   -1.608386    1.862003
 C   -4.358318   -1.564953    1.919878
 O   -5.022104   -2.535338    2.225582
 C   -2.158439   -0.448336    2.598469
 C   -0.841051   -0.819271    3.284811
 C    0.300325   -1.059436    2.326566
 O    0.143055   -1.360481    1.148169
 N    1.523765   -0.957521    2.859522
 N   -4.890570   -0.404010    1.509031
 C   -6.329961   -0.255186    1.356222
 C   -6.578596   -0.632043   -0.109117
 O   -6.534183   -1.802574   -0.470188
 C   -6.759778    1.140626    1.810331
 C   -6.444612    1.292274    3.277357
 C   -7.335448    0.839543    4.240798
 C   -5.233376    1.839874    3.678802
 C   -7.024316    0.938617    5.585152
 C   -4.920230    1.935859    5.023558
 C   -5.814609    1.485042    5.979130
 N   -6.712325    0.384362   -0.961802
 C   -6.509792    0.260155   -2.388994
 C   -4.992502    0.309124   -2.658383
 O   -4.398499   -0.591214   -3.211791
 C   -7.262225    1.392016   -3.109197
 O   -6.910196    2.601119   -2.449339
 C   -8.768014    1.154490   -3.076815
 N   -4.395196    1.401379   -2.152711
 C   -2.987822    1.663719   -2.311887
 C   -2.374850    2.042512   -0.952664
 O   -3.012447    1.944856    0.084814
 C   -2.770692    2.749136   -3.384510
 O   -1.417867    2.749806   -3.783864
 N   -1.112866    2.463684   -1.075397
 C   -0.286296    3.193040   -0.139569
 C    1.149603    3.137234   -0.657746
 O    1.535384    2.240048   -1.395895
 C   -0.289272    2.632754    1.306435
 O    0.471241    1.465811    1.455713
 N    1.944205    4.125506   -0.232097
 C    3.376318    4.053003   -0.410658
 C    3.891120    2.758903    0.227143
 O    3.187226    2.083458    0.980304
 C    4.023952    5.300163    0.226194
 O    3.434321    5.430287    1.503456
 C    3.798515    6.537278   -0.639478
 N    5.116445    2.406760   -0.130813
 C    5.834914    1.228850    0.318060
 C    7.262991    1.399143   -0.242388
 O    7.486806    2.280509   -1.046718
 C    5.206212   -0.049731   -0.252144
 O    3.988664   -0.376724    0.397703
 N    8.169325    0.551350    0.251411
 C    9.428540    0.333928   -0.429950
 C    9.133447   -0.460557   -1.705293
 O    8.040537   -0.889380   -1.969990
 C   10.407906   -0.426327    0.480136
 C    9.830704   -1.762012    0.864278
 C    8.997081   -1.884235    1.972771
 C   10.066874   -2.887794    0.086365
 C    8.394210   -3.087666    2.281843
 C    9.477662   -4.099591    0.392198
 C    8.624736   -4.206726    1.486140
 O    8.001031   -5.362494    1.814212
 O   10.202988   -0.608470   -2.464794
 H    2.579084   -0.532129   -0.635179
 H    1.329985    0.474915   -1.213230
 H    1.017432   -0.694263   -0.013830
 H    1.512661   -1.234679   -2.873867
 H    1.413463   -3.192229   -0.517973
 H    1.659931   -3.615148   -2.224706
 H    2.893493   -2.725306   -1.358879
 H   -0.522101   -3.555721   -2.037119
 H   -2.853849   -1.779647   -2.161977
 H   -2.758320   -4.049463   -3.417891
 H   -2.963105   -4.794433   -1.827025
 H   -4.876715   -3.140472   -3.445936
 H   -4.897909   -2.821863   -1.737999
 H   -5.380733   -5.556885   -2.991275
 H   -6.616849   -4.411064   -2.485391
 H   -6.441650   -6.072789   -0.795220
 H   -4.679909   -5.953788   -0.714002
 H   -6.105335   -4.717983    1.053463
 H   -6.191800   -3.499240   -0.092332
 H   -4.704301   -4.064792    0.433402
 H   -2.095345   -0.830725   -0.005641
 H   -2.524073   -2.572569    2.291923
 H   -2.845012   -0.091000    3.368329
 H   -1.975224    0.364079    1.895882
 H   -0.977509   -1.722637    3.885105
 H   -0.554550   -0.012086    3.959464
 H    2.342014   -1.117454    2.291394
 H    1.661149   -0.704643    3.822105
 H   -4.303813    0.358383    1.193461
 H   -6.787396   -1.022866    1.991759
 H   -6.210271    1.903578    1.253674
 H   -7.830370    1.263595    1.639974
 H   -8.281497    0.415035    3.937689
 H   -4.537381    2.206731    2.936793
 H   -7.727498    0.591300    6.326127
 H   -3.978719    2.370003    5.326654
 H   -5.572964    1.564824    7.027727
 H   -6.758754    1.334716   -0.623876
 H   -6.875082   -0.715112   -2.722178
 H   -6.916349    1.427573   -4.153236
 H   -7.477823    3.306623   -2.779023
 H   -9.290780    1.976499   -3.561296
 H   -9.014105    0.237939   -3.603928
 H   -9.116558    1.075069   -2.049700
 H   -4.972495    2.161027   -1.819230
 H   -2.508878    0.740278   -2.657199
 H   -3.424333    2.512118   -4.232880
 H   -3.057733    3.734555   -2.987272
 H   -1.318737    3.275869   -4.584325
 H   -0.717002    2.389689   -2.008091
 H   -0.625692    4.237894   -0.088210
 H   -1.317522    2.386232    1.573646
 H    0.070383    3.420788    1.980250
 H    1.414781    1.694207    1.384279
 H    1.650417    4.745765    0.511155
 H    3.608146    4.015139   -1.480601
 H    5.105010    5.117996    0.325856
 H    3.783824    6.217168    1.935869
 H    2.736267    6.705506   -0.798856
 H    4.219364    7.413943   -0.152371
 H    4.286233    6.417239   -1.602118
 H    5.687149    2.955426   -0.778785
 H    5.847875    1.181205    1.413866
 H    5.031338    0.097535   -1.325758
 H    5.880303   -0.901742   -0.132953
 H    3.650051    0.457401    0.801889
 H    7.874768   -0.221581    0.836543
 H    9.843236    1.303575   -0.723029
 H   11.344696   -0.555164   -0.061044
 H   10.596453    0.179216    1.367408
 H    8.846057   -1.037513    2.629008
 H   10.732543   -2.822242   -0.761179
 H    7.754066   -3.188388    3.143550
 H    9.682677   -4.969514   -0.216202
 H    8.301284   -6.081976    1.245085
 H   10.004081   -1.100776   -3.278489
