30 
5cgd_ligand_xtb.xyz
 C   -2.048851    1.020140   -0.286886
 C   -3.312913    1.578529   -0.175967
 C   -4.416240    0.801638    0.132375
 C   -4.238915   -0.569422    0.320314
 C   -2.977813   -1.145299    0.205730
 C   -1.875829   -0.348219   -0.090030
 C   -0.552468   -0.979408   -0.200436
 C    0.639635   -0.280454   -0.026683
 C    1.824700   -1.001472   -0.168645
 N    1.814878   -2.304908   -0.452374
 C    0.632667   -2.873641   -0.577407
 N   -0.541176   -2.288393   -0.466561
 C   -5.359038   -1.379190    0.631379
 N   -6.266573   -2.030487    0.884781
Cl   -3.514238    3.275577   -0.429963
 C    5.490580    0.915229    0.295569
 C    5.522245   -0.436626   -0.007859
 C    4.310713   -1.083349   -0.163781
 C    3.131664   -0.351462   -0.010274
 N    3.125762    0.948284    0.281098
 C    4.274184    1.571855    0.432444
 F    6.637684    1.594413    0.457717
 H   -1.213250    1.650514   -0.545932
 H   -5.396313    1.243829    0.221483
 H   -2.840159   -2.206439    0.342600
 H    0.683325    0.764860    0.224931
 H    0.625490   -3.934187   -0.795979
 H    6.465183   -0.950277   -0.114776
 H    4.250448   -2.133199   -0.399743
 H    4.232013    2.625801    0.669652
