60 
5cgj_ligand_dft.xyz
 C    0.799085   -1.930561   -1.506721
 C    2.056600   -1.320380   -1.339655
 C    2.176790    0.051924   -1.310494
 C   -1.401197    1.069222   -1.874121
 C   -1.288825    2.433990   -1.906112
 C   -0.022019    3.044213   -1.786701
 C    1.097749    2.271866   -1.617027
 C    3.445883    1.362008    0.304834
 C    4.558866    0.592472    1.037421
 C    5.568498    0.381581   -0.090757
 C    4.683115    0.115524   -1.323584
 C    4.030372   -0.726481    1.565569
 O    4.319475   -1.823225    1.149237
 C   -2.473468   -0.589439    0.718096
 C   -3.665655    0.105742    0.407410
 C   -1.566397    1.339256    1.849448
 C   -5.041978    2.250637    0.623952
 C   -0.471321    2.095835    2.564689
 C   -0.137071   -0.712732    1.832858
 C   -0.345351   -1.184690   -1.630242
 C    1.010311    0.857266   -1.543722
 C   -0.264098    0.241196   -1.690729
 N    3.382288    0.730199   -1.019330
 O    3.159204   -0.544173    2.575950
 N   -1.593529   -1.872759   -1.570247
 S   -2.221873   -2.221534   -0.040694
 O   -3.499347   -2.861711   -0.294251
 O   -1.191851   -2.942613    0.679311
 C   -3.801006    1.423483    0.871998
 C   -2.747625    2.008055    1.562646
 C   -1.417504   -0.001066    1.451592
 C   -4.794034   -0.475818   -0.418896
 H    0.709565   -3.009488   -1.452134
 H    2.913475   -1.955625   -1.148261
 H   -2.382312    0.616568   -1.966509
 H   -2.177101    3.045648   -2.031428
 H    0.066156    4.124821   -1.845697
 H    2.078972    2.729585   -1.558929
 H    3.730410    2.420117    0.227719
 H    2.478448    1.306764    0.808699
 H    4.954328    1.167213    1.880673
 H    6.254678   -0.444139    0.105324
 H    6.153067    1.297451   -0.222332
 H    5.108272    0.560518   -2.229709
 H    4.592609   -0.958863   -1.493721
 H   -5.208398    2.435310   -0.443653
 H   -5.942821    1.768922    1.018533
 H   -4.950258    3.224652    1.112344
 H   -0.229639    1.657956    3.539200
 H   -0.775690    3.132046    2.735615
 H    0.450968    2.118712    1.973549
 H   -0.346035   -1.632637    2.379876
 H    0.485828   -0.072167    2.455203
 H    0.453492   -0.994288    0.957950
 H    2.823507   -1.423261    2.816313
 H   -2.327273   -1.562402   -2.198169
 H   -2.851414    3.040783    1.888200
 H   -5.265802   -1.322636    0.081686
 H   -5.554703    0.278016   -0.617383
 H   -4.451869   -0.851961   -1.387300
