54 
5cgv_ligand_xtb.xyz
Cl    4.974354    1.603322    0.082352
 C    3.984471    0.196453    0.382977
 C    3.868233   -0.771056   -0.601561
 C    2.988066   -1.818182   -0.412062
 C    3.306744    0.078249    1.585936
 C    2.432392   -0.978957    1.762554
 C    2.226045   -1.907284    0.748620
 C    1.129233   -2.934112    0.840585
 C   -0.219987   -2.330248    0.352000
 C   -1.076895   -1.874643    1.542418
 C   -2.526154   -1.587161    1.116562
 C    0.153500   -1.212135   -0.660707
 O    0.228770   -1.487037   -1.840159
 C    0.360375    0.139889   -0.144826
 C    1.085429    1.096177   -0.766754
 O    1.739858    0.917786   -1.911011
 C    1.131670    2.461508   -0.104012
 O    2.261665    3.142715   -0.235352
 O    0.163801    2.898387    0.453304
 C   -1.046762   -3.384997   -0.402050
 C   -2.310344   -2.751270   -1.005181
 N   -2.620993   -1.458901   -0.352570
 C   -3.911723   -0.866752   -0.792413
 C   -3.996054    0.565439   -0.328177
 C   -5.004711    0.980206    0.530832
 C   -5.048471    2.293853    0.967579
 C   -4.075243    3.192379    0.565007
 C   -3.064857    2.784556   -0.291253
 C   -3.029646    1.478125   -0.742895
 H    4.433870   -0.691170   -1.515386
 H    2.870900   -2.554155   -1.192208
 H    3.443962    0.812767    2.363261
 H    1.894756   -1.068500    2.694468
 H    1.024846   -3.293322    1.864343
 H    1.385146   -3.782523    0.205997
 H   -0.638315   -1.008440    2.032582
 H   -1.085754   -2.679397    2.279229
 H   -2.888116   -0.660296    1.565734
 H   -3.193254   -2.397789    1.416964
 H   -0.066369    0.431838    0.799429
 H    2.162514    1.731523   -2.226992
 H    3.075507    2.616707   -0.392230
 H   -1.304009   -4.188965    0.287232
 H   -0.452368   -3.808792   -1.210139
 H   -3.172078   -3.410441   -0.885590
 H   -2.159631   -2.560641   -2.069159
 H   -1.892851   -0.787128   -0.634661
 H   -4.731877   -1.461097   -0.384580
 H   -3.949536   -0.917556   -1.884020
 H   -5.762089    0.279726    0.850759
 H   -5.840697    2.610689    1.627347
 H   -4.103998    4.212100    0.913975
 H   -2.300723    3.479139   -0.599079
 H   -2.251521    1.176524   -1.432615
