54 
5cgv_ligand_dft.xyz
Cl    5.662345    2.226164    0.359321
 C    4.659476    0.818971    0.150368
 C    4.168345    0.506620   -1.113556
 C    3.360591   -0.613424   -1.270734
 C    4.366356    0.015179    1.247287
 C    3.557781   -1.103083    1.071628
 C    3.032572   -1.425253   -0.181660
 C    2.081287   -2.585687   -0.354497
 C    0.588950   -2.212177   -0.137257
 C    0.281433   -1.919558    1.341292
 C   -1.166017   -1.451812    1.547395
 C    0.255140   -1.000719   -1.058043
 O   -0.137352   -1.195203   -2.194242
 C    0.292660    0.340987   -0.447080
 C   -0.613943    1.290552   -0.733662
 O   -1.484590    1.202831   -1.757343
 C   -0.710234    2.509011    0.156837
 O   -1.095372    3.638953   -0.452183
 O   -0.518331    2.451200    1.341744
 C   -0.299655   -3.404753   -0.555674
 C   -1.710867   -3.347529    0.063522
 N   -2.063308   -1.931305    0.427480
 C   -3.530387   -1.693405    0.723456
 C   -3.874354   -0.245496    0.490222
 C   -3.662377    0.720783    1.478911
 C   -3.892527    2.065458    1.209874
 C   -4.364020    2.454064   -0.043759
 C   -4.611709    1.493325   -1.024594
 C   -4.357995    0.147977   -0.760240
 H    4.421072    1.129922   -1.964112
 H    2.978154   -0.854893   -2.259336
 H    4.773680    0.256962    2.222707
 H    3.348294   -1.740830    1.927209
 H    2.331317   -3.393132    0.344282
 H    2.174898   -2.996116   -1.366157
 H    0.950046   -1.165979    1.762947
 H    0.459186   -2.841800    1.905732
 H   -1.240449   -0.364556    1.572286
 H   -1.590641   -1.857251    2.468833
 H    0.961306    0.535096    0.382953
 H   -2.318145    1.651978   -1.532788
 H   -1.024821    3.558646   -1.415890
 H    0.172045   -4.336987   -0.231226
 H   -0.368927   -3.426179   -1.644624
 H   -1.791804   -3.925265    0.988017
 H   -2.468954   -3.707710   -0.633786
 H   -1.869221   -1.359060   -0.402592
 H   -3.709491   -2.020355    1.750213
 H   -4.093471   -2.342479    0.049356
 H   -3.315775    0.427495    2.466071
 H   -3.702890    2.809159    1.975824
 H   -4.553453    3.502794   -0.248118
 H   -5.011603    1.786725   -1.990393
 H   -4.544939   -0.594302   -1.532225
