28 
5chk_ligand_xtb.xyz
 O    3.585286    2.572618    0.301915
 O    1.466134    2.325558   -0.216765
 C    2.536813    1.799445   -0.001288
 C    2.747754    0.333374   -0.032535
 C    1.642053   -0.549962   -0.023364
 C    1.862255   -1.933161   -0.000185
 C    3.138890   -2.442389   -0.021111
 C    4.231734   -1.583592   -0.072131
 C    4.031916   -0.219539   -0.073026
 O   -5.884755    0.511123   -0.005227
 C   -4.695595    0.221926    0.002909
 C   -4.222134   -1.158600    0.100723
 C   -2.914539   -1.461827    0.107991
 C   -3.644288    1.238052   -0.085109
 C   -2.336944    0.928861   -0.075714
 C   -1.899750   -0.443387    0.020914
 N   -0.669744   -0.875970    0.038211
 N    0.361515   -0.066570   -0.029875
 H    4.382670    2.069365    0.513198
 H    0.998258   -2.577038    0.023145
 H    3.293424   -3.510263   -0.009477
 H    5.233838   -1.980551   -0.111898
 H    4.903380    0.419237   -0.140283
 H   -4.981299   -1.923979    0.166526
 H   -2.567195   -2.482180    0.180162
 H   -3.977816    2.263189   -0.159428
 H   -1.598701    1.717560   -0.144668
 H    0.268713    0.952837   -0.103441
