35 
5cj6_ligand_xtb.xyz
 C    0.587114   -1.435812    0.310997
 C    0.270959   -0.091116    0.083591
 C    1.894608   -1.856392    0.357353
 C    0.985498    2.294573   -0.324210
 C    1.314881    0.847633   -0.098167
 C    2.622722    0.400275   -0.055787
 C    2.934617   -0.946876    0.169756
 N   -1.018961    0.366312    0.082176
 C   -2.189711   -0.469990    0.071891
 C   -3.469420    0.273209    0.543079
 O   -3.546332    0.319298    1.951082
 C   -3.599817    1.679658   -0.046842
 C   -4.572533   -0.656057    0.022575
 C   -4.085433   -1.150468   -1.342260
 C   -2.550898   -1.046065   -1.311310
Cl    3.952537    1.491847   -0.281761
 C    4.272483   -1.387608    0.204545
 N    5.355441   -1.765444    0.234358
 H   -0.197864   -2.160700    0.447098
 H    2.129397   -2.895575    0.530792
 H    0.427787    2.427590   -1.252825
 H    0.390150    2.684507    0.501428
 H    1.895957    2.880542   -0.394655
 H   -1.148618    1.256244   -0.373416
 H   -2.039733   -1.281521    0.789912
 H   -2.824844    0.865012    2.283709
 H   -4.576595    2.081012    0.212689
 H   -2.846821    2.348995    0.367150
 H   -3.509474    1.657118   -1.128904
 H   -4.666002   -1.481591    0.727773
 H   -5.533257   -0.149646   -0.034064
 H   -4.493615   -0.527458   -2.137885
 H   -4.413778   -2.171951   -1.525482
 H   -2.072413   -2.011209   -1.468737
 H   -2.188556   -0.373019   -2.090315
