53 
5cls_ligand_xtb.xyz
 C   -2.438234    1.012536    1.772553
 C   -3.499999    0.279163    0.988041
 C   -4.341543    0.953250    0.111827
 C   -5.293500    0.264724   -0.610051
 C   -5.422349   -1.118679   -0.475104
 C   -4.572692   -1.796620    0.393669
 C   -3.622566   -1.096344    1.115575
 O   -6.393623   -1.699860   -1.230223
 C   -6.585771   -3.090087   -1.126952
 N   -1.127131    0.557571    1.382866
 C   -0.287262    1.060852    0.450564
 C    0.756709    0.152816    0.411604
 N    0.492672   -0.825676    1.297891
 N   -0.626154   -0.575179    1.867850
 C    1.920487    0.260594   -0.509807
 C   -0.396628    2.320399   -0.349975
 C    1.966190    1.676831   -1.105477
 C    0.583942    2.165303   -1.532994
 O   -1.716217    2.546724   -0.818574
 C   -0.044708    3.534006    0.518150
 O    3.121686   -0.020070    0.203998
 C    4.151846   -0.486266   -0.543045
 O    4.117206   -0.628323   -1.741067
 N    5.212911   -0.738648    0.247168
 C    6.445243   -1.321992   -0.242149
 C    7.630654   -0.464045    0.192367
 C    6.587727   -2.760532    0.251873
 H   -2.508249    2.085392    1.590203
 H   -2.546904    0.803847    2.840691
 H   -4.247807    2.022290   -0.008218
 H   -5.954522    0.776833   -1.291025
 H   -4.639682   -2.865632    0.517636
 H   -2.955295   -1.626194    1.779533
 H   -5.693714   -3.644107   -1.436308
 H   -7.406562   -3.324609   -1.802846
 H   -6.861163   -3.382801   -0.108673
 H    1.827847   -0.479791   -1.319199
 H    2.637413    1.669597   -1.965272
 H    2.388477    2.346637   -0.353954
 H    0.672604    3.125035   -2.044230
 H    0.158898    1.446023   -2.240273
 H   -1.974372    1.831939   -1.411632
 H   -0.065292    4.430667   -0.094996
 H   -0.776561    3.645606    1.313686
 H    0.939296    3.416476    0.960585
 H    5.082669   -0.647519    1.242285
 H    6.359424   -1.314809   -1.333543
 H    8.552025   -0.861036   -0.224222
 H    7.714851   -0.457234    1.277252
 H    7.504010    0.558329   -0.153961
 H    7.487324   -3.210138   -0.159174
 H    5.729788   -3.350484   -0.059865
 H    6.651709   -2.784018    1.337996
