40 
5cqj_ligand_dft.xyz
 C    4.323395   -3.729941    0.444108
 C    2.819750   -2.035739   -0.256631
 C    2.570904   -0.962740   -1.119338
 C    1.370437   -0.279802   -1.052734
 C    0.382184   -0.640812   -0.125807
 C    0.635394   -1.727853    0.710618
 C    1.842362   -2.420578    0.662086
 C   -0.926353    0.069646   -0.050917
 C   -0.990888    1.414381   -0.033729
 C    0.157780    2.344947    0.092134
 C    0.327583    3.408707   -0.799080
Cl   -2.545474    2.235698   -0.171430
 C    1.090492    2.164561    1.118470
 C    2.181302    3.017233    1.237291
 C    2.352504    4.064329    0.335949
 C    1.421608    4.258223   -0.681187
 C   -2.127680   -0.811542   -0.021631
 C   -2.302306   -1.777331   -1.017644
 C   -3.397976   -2.632149   -0.989463
 C   -4.322843   -2.548178    0.048409
 C   -4.145820   -1.603935    1.055655
 C   -3.056101   -0.740123    1.020334
 O    4.027056   -2.637869   -0.396449
 H    4.315487   -3.437889    1.502203
 H    3.618605   -4.557740    0.292864
 H    5.326692   -4.057588    0.169469
 H    3.335137   -0.686054   -1.837878
 H    1.192120    0.550747   -1.728231
 H   -0.125589   -2.043388    1.418868
 H    2.001197   -3.253870    1.336776
 H   -0.400429    3.566823   -1.589114
 H    0.960027    1.343875    1.816593
 H    2.897744    2.864337    2.038750
 H    3.205274    4.730192    0.428821
 H    1.546125    5.075161   -1.385682
 H   -1.570834   -1.854295   -1.817071
 H   -3.527080   -3.369153   -1.776577
 H   -5.175631   -3.220084    0.074618
 H   -4.857490   -1.538723    1.873380
 H   -2.919105   -0.004090    1.806744
