40 
5cqj_ligand_xtb.xyz
 C    4.669175   -3.319656    0.401668
 C    3.004369   -1.742789   -0.236339
 C    2.663520   -0.661978   -1.053460
 C    1.411233   -0.096776   -0.983374
 C    0.455016   -0.592187   -0.095790
 C    0.793654   -1.681428    0.699146
 C    2.053391   -2.250299    0.641984
 C   -0.903794   -0.028308   -0.027457
 C   -1.119246    1.297449   -0.031122
 C   -0.091298    2.335647    0.078005
 C   -0.125998    3.466297   -0.734670
Cl   -2.742225    1.919231   -0.173825
 C    0.922876    2.217215    1.028217
 C    1.889584    3.196908    1.142494
 C    1.858644    4.308987    0.316388
 C    0.847061    4.441285   -0.619704
 C   -1.995020   -1.020075   -0.007049
 C   -2.007392   -2.048801   -0.945625
 C   -3.014073   -2.995625   -0.933245
 C   -4.011919   -2.937667    0.025765
 C   -3.996921   -1.927845    0.973220
 C   -2.997174   -0.972793    0.957503
 O    4.269988   -2.221959   -0.382267
 H    4.632779   -3.085451    1.470542
 H    4.052943   -4.202402    0.201761
 H    5.698584   -3.528187    0.114454
 H    3.405129   -0.287363   -1.741033
 H    1.159494    0.728376   -1.631643
 H    0.062931   -2.085106    1.385237
 H    2.277781   -3.087729    1.283840
 H   -0.914684    3.570705   -1.465081
 H    0.941750    1.356829    1.679824
 H    2.668706    3.095686    1.883552
 H    2.616893    5.072571    0.406971
 H    0.814343    5.308895   -1.262329
 H   -1.226944   -2.092202   -1.691858
 H   -3.019984   -3.782955   -1.672992
 H   -4.796917   -3.679517    0.036959
 H   -4.767446   -1.884110    1.729205
 H   -2.981563   -0.194671    1.706439
