47 
5cqt_ligand_xtb.xyz
 C    4.512800    0.116709    0.321482
 C    4.957405    1.583279    0.284942
 C    4.401291    2.338828    1.486840
 C    2.871307    2.419811    1.405197
 C    2.282198    1.216093    0.659237
 C    3.110709   -0.032645    0.938635
 N    2.408181   -1.213304    0.459510
 S    1.822937   -1.290711   -1.108670
 O    2.559575   -0.456892   -2.019064
 O    1.734173   -2.693494   -1.397535
 C    0.180143   -0.619544   -0.931207
 C   -0.178489    0.477959   -1.670988
 C   -1.443819    1.093018   -1.586385
 C   -2.350742    0.549715   -0.709738
 C   -1.974825   -0.590419    0.035048
 C   -0.733919   -1.222567   -0.038335
 C   -0.585380   -2.363512    0.777515
 C   -1.627174   -2.777684    1.578165
 C   -2.867812   -2.113676    1.638647
 C   -3.037870   -1.003358    0.849540
 C   -4.140327   -0.040383    0.592492
 O   -5.251855    0.014888    1.063508
 N   -3.649344    0.853799   -0.359181
 C   -4.413438    1.975049   -0.849052
 C   -3.974893    3.283007   -0.196306
 H    5.224835   -0.478264    0.898324
 H    4.484165   -0.277142   -0.694553
 H    4.599073    2.055829   -0.630092
 H    6.047218    1.634928    0.278131
 H    4.823066    3.344202    1.528661
 H    4.701689    1.819960    2.399266
 H    2.574885    3.332818    0.886643
 H    2.457441    2.467468    2.414115
 H    2.286662    1.391469   -0.415728
 H    1.249605    1.048031    0.970478
 H    3.191612   -0.157129    2.026702
 H    2.901600   -2.071073    0.657932
 H    0.560267    0.880162   -2.347549
 H   -1.664593    1.952696   -2.198580
 H    0.342873   -2.910297    0.746718
 H   -1.493844   -3.657891    2.189993
 H   -3.653899   -2.477643    2.281956
 H   -5.459593    1.769306   -0.607580
 H   -4.300904    2.031502   -1.935898
 H   -4.120308    3.229130    0.879760
 H   -2.923622    3.478423   -0.395491
 H   -4.565224    4.107326   -0.586435
