41 
5cqu_ligand_dft.xyz
 N   -1.053462    1.385511    2.500062
 C    0.203881    0.575249    2.295735
 C    0.007312   -0.850106    2.791777
 C    1.152279   -1.798026    2.403967
 C    2.564885   -1.360472    2.810454
 N    3.134706   -0.357399    1.920931
 C    3.598355   -0.514758    0.663210
 C    3.989672    0.747119    0.278441
 C    4.545407    1.189065   -1.040523
 C    3.566260    2.050024   -1.857181
 N    2.219710    1.478186   -1.798036
 N    1.193061    2.215798   -1.432404
 C    0.221440    1.301474   -1.265515
 C   -1.091497    1.443975   -0.774450
Br   -1.714849    3.169597   -0.382105
 C   -1.796500    0.293644   -0.498790
Br   -3.508118    0.434321    0.284369
 C   -1.219856   -1.009562   -0.692405
Br   -2.146146   -2.526494   -0.091873
 C    0.041399   -1.149476   -1.228559
Br    0.907967   -2.789506   -1.424266
 C    0.759678    0.025947   -1.528389
 N    2.043297    0.178795   -1.891490
 N    3.734284    1.599052    1.307873
 N    3.227291    0.930218    2.299148
 H   -1.001333    2.288336    2.007742
 H   -1.882971    0.907712    2.113047
 H   -1.228547    1.567248    3.492057
 H    1.010258    1.103341    2.807502
 H    0.415790    0.603988    1.226648
 H   -0.912376   -1.264884    2.357328
 H   -0.113956   -0.848001    3.882432
 H    1.130492   -1.989869    1.325140
 H    0.949444   -2.761368    2.882164
 H    3.233606   -2.224638    2.806055
 H    2.587484   -0.928624    3.814360
 H    3.585463   -1.460864    0.143339
 H    4.820799    0.305622   -1.621031
 H    5.452981    1.781773   -0.891470
 H    3.876670    2.113071   -2.902480
 H    3.467795    3.054321   -1.446386
