38 
5cs3_ligand_dft.xyz
 O   -3.311067   -2.163234    0.195690
 S   -2.271125   -1.148957    0.007338
 O   -1.907215   -0.876892   -1.406946
 O   -1.062332   -1.386690    0.854205
 C   -3.033464    0.405062    0.615812
 C   -2.710155    1.676676   -0.170992
 C   -1.414940    2.384276    0.233490
 N   -0.253412    1.531342    0.100069
 C    0.765038    1.554953    1.106607
 C    1.425913    0.184627    1.157073
 N    1.991842   -0.189106   -0.191846
 C    0.942918   -0.052387   -1.270556
 C    0.273555    1.310510   -1.219527
 C    3.277949    0.494463   -0.518949
 C    4.418108   -0.135329    0.264775
 O    4.311568   -1.524906    0.038351
 H    0.632100   -2.822489    0.381651
 H   -2.771543    0.492711    1.675200
 H   -4.105537    0.206037    0.550745
 H   -3.527567    2.396484   -0.031421
 H   -2.695133    1.425102   -1.236624
 H   -1.488292    2.675043    1.288279
 H   -1.307302    3.321322   -0.343109
 H    1.309169   -3.127005    0.271650
 H    0.310228    1.716501    2.088109
 H    1.514954    2.364347    0.963067
 H    0.643655   -0.553449    1.361982
 H    2.237626    0.131520    1.885726
 H    2.224579   -1.188332   -0.137603
 H    0.177658   -0.808499   -1.082952
 H    1.439198   -0.239966   -2.225647
 H    0.965115    2.118862   -1.541469
 H   -0.547919    1.259211   -1.936471
 H    3.182512    1.561623   -0.314345
 H    3.451090    0.353662   -1.588065
 H    4.346655    0.108900    1.333058
 H    5.364749    0.274657   -0.111299
 H    4.895826   -2.001912    0.637783
