38 
5cs3_ligand_xtb.xyz
 O   -4.384577   -1.393195   -0.792197
 S   -4.419265   -0.168944   -0.063860
 O   -4.723968   -0.212025    1.334857
 O   -5.512118    0.817562   -0.743382
 C   -2.908148    0.758680   -0.356333
 C   -1.787647   -0.089926    0.200982
 C   -0.403159    0.574021    0.035149
 N    0.702038   -0.151163    0.606661
 C    2.639061    3.234599   -0.186438
 C    2.881405    2.391574    0.796399
 N    3.430452   -0.978081    0.486555
 C    2.356694   -1.947260    0.552202
 C    1.054169   -1.397550   -0.040060
 C    3.977605   -0.770573   -0.839800
 C    5.235550    0.083938   -0.739975
 O    6.226852   -0.656922   -0.054392
 H   -6.188627    1.039895   -0.101848
 H   -3.014554    1.707680    0.158062
 H   -2.839108    0.901876   -1.428859
 H   -1.804194   -1.054704   -0.308806
 H   -1.983738   -0.267574    1.261364
 H   -0.422938    1.560855    0.507650
 H   -0.196451    0.713305   -1.029814
 H    0.560250   -0.299554    1.599997
 H    2.982541    4.257592   -0.173017
 H    2.080311    2.939224   -1.059781
 H    3.440756    2.694741    1.668126
 H    2.536011    1.370579    0.775717
 H    4.192538   -1.272190    1.089936
 H    2.187961   -2.180253    1.607040
 H    2.600344   -2.889840    0.027782
 H    1.189074   -1.190984   -1.104482
 H    0.281490   -2.179387    0.056195
 H    3.243061   -0.239127   -1.449002
 H    4.233465   -1.721082   -1.340516
 H    4.993790    1.005838   -0.196333
 H    5.582993    0.344878   -1.749460
 H    7.003152   -0.102324    0.067445
