28 
5csh_ligand_dft.xyz
Cl    0.179735    2.386873   -0.423698
 C   -0.574616    0.883246    0.011039
 C   -1.959278    0.879718    0.144808
 C    0.177996   -0.289786    0.188578
 C   -0.525381   -1.464599    0.489904
 C   -1.906356   -1.484640    0.617255
 C   -2.631414   -0.303885    0.448249
 C   -4.125802   -0.309412    0.525832
 N   -4.695566   -0.559527   -0.873341
 C    1.656979   -0.348449    0.069569
 C    2.479405    0.462137    0.857673
 C    3.861609    0.353570    0.763668
 C    4.434514   -0.557244   -0.120515
 C    3.621243   -1.367785   -0.906781
 C    2.237706   -1.269192   -0.807497
 H   -2.500412    1.814247    0.020289
 H    0.043001   -2.375133    0.649338
 H   -2.409579   -2.412661    0.878502
 H   -4.544998    0.644817    0.850830
 H   -4.519468   -1.109614    1.155447
 H   -5.721050   -0.576224   -0.888681
 H   -4.374981    0.169104   -1.520086
 H   -4.352158   -1.453873   -1.239212
 H    2.039133    1.167104    1.556049
 H    4.492885    0.980733    1.384723
 H    5.514391   -0.635851   -0.194923
 H    4.063054   -2.077334   -1.598931
 H    1.604009   -1.897553   -1.427783
