28 
5csh_ligand_xtb.xyz
Cl    0.192996    2.308574   -0.366868
 C   -0.571919    0.812220    0.028827
 C   -1.951282    0.793373    0.152026
 C    0.175843   -0.362332    0.179352
 C   -0.513900   -1.547646    0.428250
 C   -1.890697   -1.575124    0.542292
 C   -2.618249   -0.398258    0.417435
 C   -4.116171   -0.391504    0.516286
 N   -4.697719   -0.244710   -0.868204
 C    1.642310   -0.376821    0.076396
 C    2.420976    0.488618    0.840665
 C    3.799472    0.455214    0.739874
 C    4.413918   -0.432133   -0.128274
 C    3.645597   -1.300431   -0.886347
 C    2.267492   -1.280757   -0.779558
 H   -2.492854    1.722793    0.056527
 H    0.051954   -2.458309    0.548142
 H   -2.393849   -2.507153    0.750363
 H   -4.465057    0.450582    1.115790
 H   -4.485929   -1.320002    0.951116
 H   -5.722915   -0.176332   -0.849953
 H   -4.305291    0.603129   -1.300457
 H   -4.422761   -1.050711   -1.444542
 H    1.946720    1.166177    1.534938
 H    4.395514    1.124761    1.340857
 H    5.489522   -0.449514   -0.211054
 H    4.120875   -1.995372   -1.561617
 H    1.666847   -1.949347   -1.379274
