19 
5csp_ligand_xtb.xyz
 C    2.065162    0.967696   -0.039720
 C    0.654639   -0.947484    0.081490
 C   -1.839335   -0.747408    0.106601
 C   -0.477854   -0.139821    0.016609
 C   -0.328312    1.249175   -0.080336
 C    0.956240    1.785724   -0.113250
 O   -2.729114   -0.324981    0.784254
 O   -2.002948   -1.870728   -0.628899
 O   -1.430027    2.020093   -0.186774
 C    1.932833   -0.413612    0.061258
 C    3.145850   -1.287747    0.155163
 H    3.051892    1.406527   -0.060200
 H    0.533176   -2.017702    0.188763
 H    1.078954    2.857779   -0.192864
 H   -1.216365   -2.080214   -1.149594
 H   -1.186796    2.953940   -0.207491
 H    3.816187   -1.101872   -0.682582
 H    3.693194   -1.073552    1.072386
 H    2.871127   -2.339109    0.156048
