40 
5cst_ligand_dft.xyz
 O   -3.707578    0.644326    0.185691
 P   -2.493982   -0.110883    0.817519
 O   -1.323651    0.657722    1.283767
 O   -3.195570   -1.095608    1.845716
 O   -2.049630   -1.142642   -0.415527
 P   -0.991572   -2.311151   -0.171587
 O   -1.123397   -2.939392    1.161348
 O   -1.193820   -3.298230   -1.413794
 O    0.373170   -1.593926   -0.533788
 C    1.535692   -2.282802   -1.010160
 C    2.737696   -1.386867   -0.775413
 O    2.545818   -0.122245   -1.421576
 C    3.047467   -1.075192    0.688187
 O    4.435342   -0.901357    0.809750
 C    2.327601    0.257846    0.921474
 O    3.039195    0.980547    1.887758
 C    2.363338    0.900552   -0.487662
 N    1.101217    1.618864   -0.787823
 C    0.809134    2.680209    0.036682
 O    1.584151    3.099266    0.887521
 N   -0.423460    3.266793   -0.160256
 C   -1.470847    2.696532   -0.874232
 N   -2.714706    3.003390   -0.715623
 C   -1.047541    1.679307   -1.809060
 C    0.190579    1.165726   -1.712355
 H   -3.458154    1.530103   -0.232640
 H   -2.588689   -1.832203    2.063086
 H   -1.795119   -4.022980   -1.192501
 H    1.670908   -3.233737   -0.483979
 H    1.401809   -2.477550   -2.077538
 H    3.611007   -1.863253   -1.231199
 H    2.679750   -1.859913    1.363975
 H    4.550816   -0.184842    1.455416
 H    1.282756    0.096394    1.213318
 H    2.689861    1.888377    1.859326
 H    3.178386    1.627291   -0.559875
 H   -0.642814    3.945360    0.558083
 H   -2.851031    3.719977   -0.003514
 H   -1.767529    1.291988   -2.515783
 H    0.549036    0.362609   -2.338933
