31 
5ct1_ligand_dft.xyz
 C    3.590092    1.450246   -0.245544
 C    2.224190    1.258294    0.425513
 C    1.563322   -0.023083   -0.080077
 C    2.437342   -1.255124    0.134657
 N    0.228673   -0.173513    0.625030
 C   -0.641009   -1.301868    0.160732
 C   -2.077250   -1.163638    0.660559
 S   -2.916210    0.275037   -0.021998
 O   -1.970679    1.377367    0.113145
 O   -2.951667   -0.138635   -1.577155
 O   -4.260469    0.366993    0.482896
 C    3.807522   -1.048914   -0.528028
 C    4.487638    0.229264   -0.033315
 H    4.060003    2.351836    0.156695
 H    3.444434    1.622785   -1.319689
 H    1.577411    2.122260    0.231202
 H    2.364987    1.186863    1.513968
 H    1.308465    0.084190   -1.140673
 H    1.962589   -2.152957   -0.276103
 H    2.575381   -1.414690    1.214294
 H   -0.318526    0.699540    0.493872
 H    0.400826   -0.259713    1.631676
 H   -0.214899   -2.236534    0.527169
 H   -0.604938   -1.307516   -0.931290
 H   -2.136122   -1.049194    1.748220
 H   -2.655608   -2.047728    0.383124
 H   -3.865748   -0.077875   -1.908828
 H    3.675447   -0.999690   -1.616734
 H    4.432645   -1.923346   -0.327168
 H    4.725242    0.129389    1.034181
 H    5.438520    0.369517   -0.555227
