34 
5ct2_ligand_dft.xyz
 S    4.008609    0.044771   -0.097606
 O    5.050997   -0.823876   -0.594513
 O    3.971073   -0.090681    1.520096
 O    3.937057    1.444306   -0.449154
 C    2.404747   -0.683764   -0.458759
 C    1.273276    0.191447    0.075720
 C   -0.084254   -0.366807   -0.331407
 N   -1.182895    0.527539    0.170138
 C   -2.599211    0.208955   -0.287220
 C   -3.513829    1.347033    0.163511
 C   -4.962848    1.060931   -0.251915
 C   -5.435727   -0.290342    0.287789
 C   -4.502867   -1.418288   -0.156536
 C   -3.047231   -1.146395    0.252481
 H    4.834044   -0.428177    1.816635
 H    2.405592   -1.690507   -0.034191
 H    2.378860   -0.761875   -1.550461
 H    1.404255    1.204751   -0.321628
 H    1.347741    0.249823    1.168014
 H   -0.259428   -1.359436    0.086368
 H   -0.196502   -0.418237   -1.417630
 H   -0.968881    1.491476   -0.108341
 H   -1.169389    0.532343    1.195912
 H   -2.541961    0.183197   -1.381277
 H   -3.178825    2.300615   -0.264021
 H   -3.464683    1.438391    1.258340
 H   -5.033795    1.070065   -1.347145
 H   -5.602095    1.869959    0.111651
 H   -6.453833   -0.493150   -0.056260
 H   -5.474363   -0.254968    1.384616
 H   -4.553731   -1.533143   -1.247034
 H   -4.816401   -2.373183    0.274032
 H   -2.973046   -1.139674    1.349952
 H   -2.406399   -1.951977   -0.120230
