61 
5cu4_ligand_dft.xyz
 C   -1.215918   -2.720738    0.289046
 C   -3.756444   -2.558087    0.291447
 C   -4.874608   -1.559839    0.279357
 C   -5.419365   -1.085521    1.473032
 C   -6.887496    0.418976    0.234286
 C   -6.333196   -0.082093   -0.954552
 C   -5.339990   -1.056120   -0.934561
 C   -7.957395    1.448847    0.277761
 C   -7.779781    2.704614   -0.310076
 C   -8.776970    3.667851   -0.215015
 C   -9.961395    3.385303    0.460905
 C  -10.144324    2.137255    1.048616
Cl   -6.898416    0.449373   -2.510702
 C   -9.144368    1.174444    0.963044
 C   -6.408540   -0.113405    1.438930
 N   -2.424752   -1.830207    0.291042
 C    0.072343   -1.914589    0.270125
 C    1.238062   -2.900158    0.076055
 O    1.018157   -4.020615   -0.363231
 N    2.443832   -2.417552    0.413727
 C    3.674456   -3.174372    0.260162
 C    4.711609   -2.409267   -0.563509
 C    5.105666   -1.085425    0.085564
 O    4.321248   -0.458724    0.792998
 N    6.363763   -0.664801   -0.209502
 C    7.019518    0.528167    0.172281
 C    6.468632    1.464839    1.052304
 C    7.204087    2.597754    1.383132
 C    8.466870    2.820108    0.846278
 C    8.287320    0.743748   -0.363360
 C    9.008139    1.888774   -0.041140
 C   10.369967    2.021497   -0.665167
 O   10.968460    1.079455   -1.114817
 O   10.905339    3.255366   -0.709009
 H   -1.277141   -3.363636   -0.589801
 H   -1.284956   -3.353371    1.176229
 H   -3.748801   -3.201266   -0.591540
 H   -3.759651   -3.186277    1.185027
 H   -5.085396   -1.481206    2.429282
 H   -4.959926   -1.438332   -1.878467
 H   -6.856064    2.933277   -0.832909
 H   -8.628238    4.642185   -0.669348
 H  -10.740668    4.137659    0.529025
 H  -11.067177    1.910429    1.572743
 H   -9.292764    0.196602    1.413192
 H   -6.829315    0.259825    2.367095
 H   -2.403203   -1.210693   -0.525855
 H   -2.404404   -1.203281    1.102036
 H    0.201542   -1.336638    1.192172
 H    0.077245   -1.206452   -0.569108
 H    2.573662   -1.469377    0.750597
 H    3.422536   -4.115592   -0.230947
 H    4.081916   -3.406687    1.250168
 H    4.302787   -2.190159   -1.557897
 H    5.588150   -3.049579   -0.710659
 H    6.913058   -1.273985   -0.799310
 H    5.487607    1.298728    1.473271
 H    6.783524    3.313162    2.082363
 H    9.028756    3.695138    1.162135
 H    8.747742    0.025514   -1.036651
 H   10.255446    3.923299   -0.454984
