48 
5cuh_ligand_xtb.xyz
 O   -3.197335    1.663981   -1.734674
 C   -3.419274    1.411003   -0.564726
 N   -3.230413    2.322732    0.406261
 O   -2.545239    3.483308    0.036926
 C   -4.039391    0.107641   -0.067361
 C   -4.957995   -0.500736   -1.120245
 S   -4.932190   -2.303422   -0.820802
 C   -3.585698   -2.158909    0.401534
 N   -2.988367   -0.877640    0.141696
 S   -1.708784   -0.423863    1.112697
 O   -2.172526    0.451955    2.151909
 O   -1.029845   -1.622243    1.487405
 N   -0.887722    0.509141    0.017714
 C    0.036080    1.475406    0.586787
 C    1.351178    0.803315    0.975131
 C   -0.299620   -0.237537   -1.078100
 C    1.033659   -0.880552   -0.686000
 N    1.918704    0.160221   -0.197319
 C    3.295977   -0.105420   -0.170041
 C    3.792859   -1.409839   -0.128688
 C    5.148166   -1.660072   -0.128442
 C    4.198537    0.970539   -0.254066
 C    3.724036    2.384750   -0.406396
 C    5.556608    0.710997   -0.245932
 C    6.044688   -0.593810   -0.174317
 C    7.436021   -0.829340   -0.163980
 N    8.567198   -1.019821   -0.153971
 H   -3.037113    2.044887    1.364359
 H   -2.509082    3.426889   -0.940684
 H   -4.581271    0.294387    0.873303
 H   -4.563252   -0.308060   -2.118103
 H   -5.979109   -0.135534   -1.043525
 H   -2.853237   -2.950608    0.256407
 H   -4.017254   -2.229724    1.408365
 H    0.207123    2.249270   -0.166612
 H   -0.442173    1.918188    1.459618
 H    2.048341    1.539167    1.371347
 H    1.140497    0.059008    1.761862
 H   -0.157052    0.462397   -1.905911
 H   -1.020368   -0.999162   -1.373586
 H    0.834679   -1.649942    0.074714
 H    1.481676   -1.342562   -1.567727
 H    3.108357   -2.241516   -0.074486
 H    5.518849   -2.673130   -0.082525
 H    4.428844    2.947958   -1.014212
 H    3.651372    2.884983    0.559618
 H    2.747412    2.405297   -0.882869
 H    6.257122    1.531325   -0.313805
