48 
5cuh_ligand_dft.xyz
 O   -2.968356    1.727990   -1.741230
 C   -3.316095    1.510570   -0.587857
 N   -3.180000    2.453641    0.378007
 O   -2.349589    3.518589    0.044908
 C   -4.016991    0.232185   -0.126395
 C   -4.970909   -0.274552   -1.202809
 S   -5.209259   -2.055769   -0.869450
 C   -3.772066   -2.137039    0.260895
 N   -3.057491   -0.870372    0.060903
 S   -1.801163   -0.606489    1.138936
 O   -2.237391    0.222711    2.259326
 O   -1.230551   -1.915721    1.400359
 N   -0.860405    0.364885    0.193132
 C    0.052469    1.301147    0.861422
 C    1.423808    0.674932    1.081662
 C   -0.291595   -0.222372   -1.025927
 C    1.082254   -0.833363   -0.768870
 N    1.955975    0.180099   -0.189040
 C    3.345236   -0.090353   -0.190208
 C    3.835182   -1.401204   -0.227263
 C    5.197109   -1.658755   -0.246495
 C    4.251747    0.992340   -0.188991
 C    3.774487    2.420847   -0.229352
 C    5.614616    0.719537   -0.196404
 C    6.097292   -0.592692   -0.220999
 C    7.511779   -0.837108   -0.235978
 N    8.654440   -1.033451   -0.246899
 H   -3.006461    2.147539    1.330956
 H   -2.220468    3.371198   -0.914763
 H   -4.559750    0.427243    0.809730
 H   -4.520988   -0.125913   -2.185142
 H   -5.929346    0.245098   -1.153325
 H   -3.118285   -2.966851   -0.003217
 H   -4.123124   -2.259398    1.291626
 H    0.132047    2.175113    0.207339
 H   -0.391521    1.622315    1.803983
 H    2.100464    1.425969    1.493793
 H    1.346426   -0.142902    1.819132
 H   -0.219740    0.590961   -1.754835
 H   -0.990382   -0.962359   -1.419502
 H    0.962609   -1.711185   -0.112471
 H    1.511035   -1.166764   -1.718392
 H    3.142570   -2.235563   -0.227878
 H    5.563875   -2.679402   -0.270160
 H    4.495300    3.053055   -0.755215
 H    3.648842    2.842058    0.775674
 H    2.809876    2.486490   -0.740920
 H    6.323314    1.542550   -0.206407
