49 
5cxh_ligand_xtb.xyz
 C   -2.534201   -1.944660   -0.095896
 C   -1.551778   -2.910556   -0.392568
 C   -0.206539   -2.549238   -0.346415
 C   -2.651091    4.024693    0.436355
 C   -0.921615    3.378531   -1.021028
 C   -2.072955    2.411198   -1.246776
 C   -2.982974    2.594604   -0.025313
 C   -2.680809    1.529838    1.045683
 C   -3.475173    1.726178    2.335042
 C    2.543271   -1.574768    0.331515
 C    3.857744   -1.124079    0.341224
 C    4.119967    0.221217    0.015308
 C    3.045765    1.048591   -0.293771
 C    1.745431    0.586691   -0.288582
 C    6.149460   -1.845825    0.648588
 C    5.686156    1.989479   -0.346407
 C    0.096530   -1.238245   -0.013652
 N   -0.854081   -0.329401    0.265751
 C   -2.126646   -0.648028    0.238856
 C    1.475143   -0.741794    0.017841
 S   -4.116511   -2.640016   -0.224927
 C   -3.333707   -4.141190   -0.659964
 N   -2.060242   -4.138290   -0.706020
 N   -1.309487    4.228213   -0.047237
 O    0.142461    3.405365   -1.592103
 O   -3.074797    0.256021    0.525276
 O    5.421546    0.658331    0.020108
 O    4.761740   -2.086351    0.689315
 H    0.554533   -3.269225   -0.589738
 H   -2.693891    4.146157    1.519072
 H   -3.343052    4.745893   -0.019093
 H   -1.702245    1.394890   -1.358646
 H   -2.577733    2.692339   -2.172800
 H   -4.038374    2.500433   -0.289913
 H   -1.604779    1.502648    1.251508
 H   -3.352013    0.848447    2.964530
 H   -4.532155    1.841679    2.108736
 H   -3.127860    2.592529    2.888461
 H    2.383961   -2.606087    0.603268
 H    3.213601    2.080869   -0.552723
 H    0.944278    1.256793   -0.550209
 H    6.482516   -1.564140   -0.352657
 H    6.450133   -1.073359    1.359296
 H    6.608110   -2.794417    0.928785
 H    5.346030    2.203992   -1.364263
 H    5.226319    2.699362    0.348530
 H    6.769804    2.091414   -0.299382
 H   -3.929995   -5.007304   -0.872337
 H   -0.745828    5.010935    0.239933
