48 
5cxz_ligand_xtb.xyz
 C    0.305794   -0.703087   -0.081807
 C    5.133481   -1.968824   -0.087825
 C    3.116572   -0.674051   -0.168192
 C    2.304589    2.965393   -0.805877
 C    2.012686    3.855940    0.408449
 C    1.040100    3.227028    1.406490
 C   -6.019319    0.547750   -0.911229
 N   -5.328536   -0.423127   -0.095444
 C   -6.112159   -1.374449    0.657999
 C   -3.976763   -0.477960   -0.081421
 C   -3.190128    0.464506   -0.776753
 C   -1.819235    0.404732   -0.760348
 C   -1.138109   -0.604845   -0.067175
 C   -1.915287   -1.545572    0.622870
 C   -3.284267   -1.481093    0.629360
 C    0.992554   -1.884956    0.027413
 C    2.401404   -1.895290    0.003405
 N    3.028590   -3.076124    0.129924
 C    4.330125   -3.109907    0.087396
 C    4.522397   -0.747728   -0.213575
 C    2.354002    0.529207   -0.288131
 N    2.949077    1.714953   -0.470329
 N   -0.149989    2.730059    0.712305
 N    1.020304    0.464706   -0.223867
 H    6.206592   -2.061288   -0.120021
 H    2.972714    3.507587   -1.478856
 H    1.380268    2.758385   -1.348482
 H    1.594281    4.791704    0.034654
 H    2.942239    4.090413    0.927351
 H    0.801529    3.971820    2.175646
 H    1.509384    2.374132    1.906013
 H   -7.087842    0.354128   -0.880767
 H   -5.846983    1.565267   -0.548676
 H   -5.695327    0.484536   -1.952966
 H   -7.164273   -1.112070    0.591169
 H   -5.986865   -2.389806    0.271120
 H   -5.828783   -1.361413    1.712901
 H   -3.661332    1.248987   -1.344205
 H   -1.267361    1.128148   -1.342715
 H   -1.426949   -2.323674    1.188233
 H   -3.828396   -2.225709    1.184140
 H    0.483891   -2.828361    0.112337
 H    4.780967   -4.086972    0.195994
 H    5.127055    0.138332   -0.347380
 H    3.955147    1.733151   -0.420109
 H   -0.819126    2.361616    1.381117
 H   -0.607402    3.491656    0.218615
 H    0.479825    1.355401   -0.089532
