48 
5cxz_ligand_dft.xyz
 C    0.413526   -0.748538   -0.079153
 C    5.311649   -1.664829   -0.089462
 C    3.195230   -0.539240   -0.008056
 C    2.449396    2.990522   -0.671471
 C    1.014588    3.530939   -0.554968
 C    0.486265    3.657270    0.876423
 C   -5.957624    0.502033   -0.834748
 N   -5.272710   -0.521870   -0.070223
 C   -6.039939   -1.587661    0.547841
 C   -3.906159   -0.584913   -0.083748
 C   -3.128853    0.382741   -0.764398
 C   -1.745986    0.309311   -0.763865
 C   -1.059676   -0.711113   -0.093889
 C   -1.826414   -1.675352    0.569094
 C   -3.208465   -1.620569    0.579973
 C    1.157835   -1.896809   -0.121574
 C    2.571365   -1.813926   -0.073189
 N    3.282346   -2.971666   -0.121763
 C    4.591849   -2.884028   -0.120956
 C    4.609989   -0.491315   -0.035129
 C    2.337564    0.602301    0.060181
 N    2.821699    1.891557    0.232013
 N   -0.239953    2.407267    1.255213
 N    1.023784    0.475840    0.030493
 H    6.395183   -1.674658   -0.116342
 H    3.138484    3.803468   -0.426395
 H    2.630428    2.715654   -1.718619
 H    0.326922    2.915184   -1.144142
 H    1.007760    4.519445   -1.024145
 H   -0.198113    4.500623    0.984298
 H    1.305101    3.781066    1.587892
 H   -7.033257    0.396587   -0.694237
 H   -5.676897    1.507218   -0.496253
 H   -5.746201    0.424662   -1.909910
 H   -7.103028   -1.370051    0.445951
 H   -5.844856   -2.559470    0.075565
 H   -5.818274   -1.669487    1.618743
 H   -3.609328    1.170921   -1.331601
 H   -1.182136    1.037779   -1.343417
 H   -1.331008   -2.477589    1.109190
 H   -3.750886   -2.390781    1.113737
 H    0.699702   -2.873683   -0.217862
 H    5.135134   -3.825910   -0.155055
 H    5.146043    0.453372   -0.030697
 H    3.807669    1.915204    0.447098
 H   -0.281266    2.263567    2.264206
 H   -1.199333    2.396252    0.901245
 H    0.279156    1.531794    0.747193
