38 
5cy3_ligand_dft.xyz
 N   -4.432886   -2.566032    0.022596
 N    4.681952   -0.930812   -1.256305
 C   -1.905800    0.043129    0.009614
 C   -2.421610    1.266266   -0.319452
 C   -1.577534    2.415293   -0.258240
 C    0.433611    3.497482    0.114148
 C   -0.199290    2.272833    0.126486
 C   -4.106370   -1.262207    0.145343
 C    2.610096   -0.961750   -0.207859
 C    4.479930   -2.183941   -0.583348
 O    5.239375   -3.099326   -0.535886
 C    3.630720   -0.244372   -1.043466
 O    3.249122   -2.198344    0.029283
 C    2.276070   -0.251585    1.119106
 C    3.502373    0.083411    1.947792
 O    1.626100    0.973642    0.811182
 C    0.312922    0.976270    0.455649
 S   -0.692819    4.673181   -0.358778
 N   -1.973205    3.653785   -0.548455
 C   -0.523576   -0.099416    0.400770
 C   -2.735633   -1.166658   -0.024965
 C   -2.338471   -2.506349   -0.246287
 N   -3.365856   -3.343758   -0.220563
 C   -5.742770   -3.170735    0.128328
 H   -3.446879    1.385357   -0.650861
 H    1.462920    3.720761    0.358106
 H   -4.849638   -0.509104    0.364597
 H    1.688585   -1.129999   -0.777900
 H    3.496431    0.761848   -1.430004
 H    1.611809   -0.900054    1.701495
 H    3.194605    0.548562    2.887155
 H    4.061313   -0.827631    2.176798
 H    4.159957    0.778309    1.417010
 H   -0.181020   -1.090780    0.674071
 H   -1.346544   -2.891022   -0.444614
 H   -6.475513   -2.391394    0.343351
 H   -5.999644   -3.663791   -0.811907
 H   -5.746085   -3.908053    0.933901
