43 
5cy9_ligand_xtb.xyz
 C   -3.146092    2.791077    2.777379
 C   -3.156777    1.273293    2.646974
 C   -3.047336    0.837155    1.184669
 C   -3.047620   -0.668307    1.030970
 S   -3.190599   -1.089812   -0.729829
 O   -3.080500   -2.507434   -0.877147
 O   -4.323345   -0.422183   -1.294212
 N   -1.872717   -0.341664   -1.443239
 C   -0.562807   -0.477834   -1.000311
 C   -0.139468   -1.674729   -0.453699
 C    1.167835   -1.899656    0.017369
 C    2.070662   -0.871881   -0.074326
 C    1.642504    0.346778   -0.633881
 C    0.356581    0.609135   -1.109547
 C    0.166910    1.908674   -1.625852
 C    1.203987    2.815339   -1.643640
 C    2.491893    2.517358   -1.163384
 C    2.705411    1.262950   -0.651692
 C    3.866414    0.549250   -0.058914
 O    4.998541    0.936459    0.131331
 N    3.408969   -0.721880    0.256368
 C    4.234148   -1.722064    0.886093
 C    3.946214   -1.832966    2.381081
 H   -2.221632    3.202718    2.378559
 H   -3.979840    3.225454    2.231081
 H   -3.229469    3.083949    3.820798
 H   -4.080539    0.877948    3.073173
 H   -2.321651    0.852546    3.211089
 H   -2.127157    1.247089    0.760421
 H   -3.891201    1.236183    0.617522
 H   -3.912719   -1.127692    1.501669
 H   -2.137559   -1.136879    1.393662
 H   -2.119931    0.543223   -1.853690
 H   -0.852980   -2.482257   -0.407477
 H    1.423001   -2.865682    0.423275
 H   -0.795817    2.207063   -2.017860
 H    1.024370    3.801187   -2.047531
 H    3.276609    3.256593   -1.201971
 H    5.271828   -1.416076    0.728454
 H    4.064152   -2.683069    0.390991
 H    4.146088   -0.882374    2.869555
 H    2.905953   -2.100646    2.552665
 H    4.582006   -2.593652    2.825469
