64 
5czb_ligand_dft.xyz
 C    2.302656    2.032753   -0.135201
 C    2.683523    0.687515   -0.141492
 C    0.963652    2.393661   -0.176318
 C    1.684973   -0.289529   -0.194363
 C   -0.013701    1.402186   -0.203713
 C    0.342070    0.055246   -0.219212
 C   -1.981970    2.814707    0.356553
 C   -4.453979    3.438776    0.700495
 O   -5.627042    3.131721    0.582751
 C    4.107562    0.315490   -0.102805
 C    4.662190   -0.954800    0.130989
 C    6.038134   -0.774401    0.069050
 C    8.287805   -1.073967    0.056815
 C    7.433355    1.146568   -0.342275
 O   -6.210627   -1.168446   -0.401942
 O   -4.738770   -1.264074   -2.553563
 C   -6.894099   -2.381239   -0.716657
 C   -1.371504   -3.166845    1.038968
 C   -1.602882   -3.297770   -0.328935
 C   -2.247461   -2.377195    1.787878
 C   -2.664601   -2.629138   -0.926218
 C   -3.322448   -1.698789    1.216555
 C   -3.521250   -1.825073   -0.172435
 C   -4.192838   -0.835705    2.096996
 C   -0.187892   -3.826298    1.699241
 P   -4.773207   -0.924993   -1.113334
 N   -4.645105    0.695031   -0.668190
 C   -3.469605    1.356899   -0.402951
 C   -3.347966    2.621771    0.242878
 O   -4.069439    4.589023    1.286117
 N   -2.288180    0.841724   -0.679894
 N   -1.389564    1.743715   -0.197627
 N    5.042918    1.256221   -0.300543
 N    6.204425    0.580372   -0.190933
 N    7.450916    2.482545   -0.562036
 C    8.513881    0.295462   -0.219116
 C    9.456614   -2.013546    0.194433
 N    7.087379   -1.608045    0.201183
 H    3.069964    2.798419   -0.108051
 H    0.686888    3.443049   -0.204348
 H    1.954063   -1.340945   -0.222728
 H   -0.432169   -0.702400   -0.256578
 H   -1.425553    3.614259    0.821028
 H    4.158811   -1.886201    0.334990
 H   -7.875049   -2.312890   -0.245018
 H   -7.003827   -2.494294   -1.798193
 H   -6.352275   -3.242622   -0.309789
 H   -0.944474   -3.914728   -0.934883
 H   -2.079043   -2.278246    2.858623
 H   -2.830063   -2.704993   -1.996004
 H   -5.253900   -0.953926    1.865747
 H   -3.948711    0.224934    1.966305
 H   -4.036316   -1.083027    3.150724
 H   -0.465744   -4.285650    2.653298
 H    0.595265   -3.087553    1.909187
 H    0.245962   -4.601448    1.060969
 H   -5.485344    1.202926   -0.407919
 H   -4.885873    5.041760    1.550753
 H    6.565267    2.906620   -0.802796
 H    8.290787    2.899398   -0.927694
 H    9.519125    0.685332   -0.324314
 H   10.414576   -1.491887    0.124632
 H    9.403726   -2.532108    1.155965
 H    9.414212   -2.776041   -0.589477
