87 
5czm_ligand_xtb.xyz
 O   -2.400888    1.199318   -2.125834
 N    0.678296   -2.285737    1.097771
 O   -0.626028   -2.210585    0.765769
 C   -2.097907    0.689791   -1.067808
 C   -2.814639   -0.539937   -0.505543
 C   -2.113463   -1.782096   -1.098533
 C    0.506189   -1.829291   -1.087509
 C    1.380315   -2.058150    0.013631
 C    2.832796   -2.066888    0.041283
 C    3.581264   -2.228284   -1.121687
 C    4.960361   -2.279366   -1.062916
 C    5.626264   -2.151274    0.154831
 C    4.873387   -1.961181    1.312940
 C    3.496509   -1.927709    1.259382
 C   -0.740880   -1.931894   -0.546711
Cl   10.056002   -0.280450    2.065874
 C    9.186978   -1.392978    1.062662
 C    7.804117   -1.339285    1.031323
 C    9.886513   -2.315556    0.299568
 C    9.178478   -3.193612   -0.504203
 C    7.797375   -3.145538   -0.553558
 C    7.093377   -2.217797    0.213569
 C   -4.290646   -0.517783   -0.886138
 P   -5.275032    0.539812    0.265761
 O   -4.819657    0.145626    1.735990
 O   -5.186276    1.994112    0.007447
 C   -6.968353   -0.102279    0.191539
 C   -7.277914   -1.343083    0.729604
 C   -8.575202   -1.816304    0.673637
 C   -9.549349   -1.036106    0.070291
Br  -11.335677   -1.686354   -0.012202
 C   -9.254607    0.204306   -0.471161
 C   -7.953009    0.667866   -0.406373
 N   -1.066467    1.113868   -0.311062
 C   -0.141481    2.139297   -0.727919
 C    1.278746    1.650962   -0.437726
 O    1.514158    0.760630    0.351426
 C   -0.365560    3.482406    0.012231
 C   -0.900504    3.267162    1.430177
 C   -2.321723    2.747672    1.379737
 O   -2.699658    1.771968    2.005047
 O   -3.093049    3.466829    0.608556
 N    2.225000    2.289240   -1.164620
 C    3.612130    2.281510   -0.750433
 C    3.820812    3.431507    0.256910
 O    2.980849    4.291428    0.421233
 C    4.545800    2.430972   -1.963118
 C    5.227744    1.123288   -2.361191
 C    6.344193    0.749022   -1.420024
 O    6.479730    1.162601   -0.295240
 O    7.199259   -0.100215   -1.978769
 N    4.995148    3.375103    0.894728
 H   -2.706141   -0.569383    0.582782
 H   -2.066106   -1.695484   -2.184909
 H   -2.693022   -2.671475   -0.837836
 H    0.759944   -1.600432   -2.100519
 H    3.083355   -2.337237   -2.074213
 H    5.531443   -2.402924   -1.972225
 H    5.376564   -1.870614    2.263936
 H    2.906512   -1.795098    2.151180
 H    7.280113   -0.601353    1.617698
 H   10.963291   -2.347555    0.340859
 H    9.713003   -3.922956   -1.093450
 H    7.255812   -3.845514   -1.170806
 H   -4.709449   -1.524492   -0.861112
 H   -4.403548   -0.111108   -1.892428
 H   -4.090354    0.746073    2.014414
 H   -6.504620   -1.925560    1.206719
 H   -8.832155   -2.777031    1.093279
 H  -10.030941    0.795833   -0.931771
 H   -7.687079    1.633502   -0.808617
 H   -0.783586    0.604262    0.515693
 H   -0.279926    2.285486   -1.804759
 H   -1.089102    4.081079   -0.541146
 H    0.577927    4.028697    0.068038
 H   -0.275569    2.573540    1.992785
 H   -0.913303    4.227115    1.949139
 H   -3.973431    3.028130    0.434637
 H    1.937259    3.136244   -1.635619
 H    3.785664    1.335402   -0.228874
 H    5.312123    3.177453   -1.747329
 H    3.958007    2.794903   -2.806859
 H    5.646995    1.188001   -3.366109
 H    4.507312    0.301543   -2.354340
 H    7.886224   -0.374204   -1.346178
 H    5.216981    4.071941    1.586410
 H    5.641930    2.618833    0.715041
