25 
5d0r_ligand_dft.xyz
 O    1.268408   -1.730751   -1.748809
 C    1.870912   -1.062492   -0.757628
 C    3.099591   -0.438540   -1.016967
Cl    3.795544   -0.563360   -2.602336
 C    3.764523    0.272795   -0.029875
 C    3.207312    0.369194    1.241749
Cl    4.049396    1.262579    2.481192
 C    1.993433   -0.233884    1.530271
 C    1.324603   -0.943752    0.532559
 S   -0.217004   -1.754611    0.888909
 C   -1.401797   -0.518305    0.370074
 C   -1.064555    0.757533   -0.063829
 C   -2.068011    1.644029   -0.441615
Cl   -1.632275    3.242993   -0.986325
 C   -3.405864    1.284096   -0.392492
 C   -3.727190    0.005949    0.045854
Cl   -5.402042   -0.491118    0.122521
 C   -2.747121   -0.909725    0.430378
 O   -3.011250   -2.160347    0.859245
 H    0.469990   -2.154412   -1.389379
 H    4.713283    0.746047   -0.254368
 H    1.557251   -0.155707    2.519597
 H   -0.027732    1.069150   -0.109163
 H   -4.185556    1.976035   -0.686486
 H   -3.968045   -2.308528    0.867019
