58 
5d10_ligand_dft.xyz
 C  -13.114761  -39.752994    4.477373
 C  -13.064011  -38.625120    5.309750
 C  -11.807873  -38.273222    5.815222
 N  -10.699798  -38.960331    5.510218
 N  -11.992860  -40.433823    4.155817
 C  -14.242779  -41.143284    2.806022
 C  -15.431841  -42.089852    2.824698
 N  -16.679851  -41.343372    2.875894
 C  -17.831370  -42.220178    2.798922
 C  -16.709510  -40.533252    4.080004
 C  -15.545509  -39.548072    4.113218
 N  -14.282558  -40.245968    3.956157
 N  -11.668638  -37.196118    6.641020
 C  -10.503512  -36.719458    7.245064
 C   -9.170093  -37.185360    7.180308
 C   -8.468477  -36.321960    7.994287
 C   -7.015316  -36.272679    8.336222
 N   -9.372473  -35.434266    8.470607
 N  -10.629229  -35.655587    8.028996
 C  -10.879942  -39.984470    4.694940
 O   -9.773235  -40.694153    4.347612
 C   -8.563413  -40.234065    4.835629
 C   -8.085403  -40.703377    6.051405
 C   -6.876511  -40.227254    6.545415
 C   -7.829250  -39.320759    4.090074
 C   -6.605826  -38.871478    4.568455
 C   -6.123826  -39.314265    5.802189
 N   -4.910474  -38.779819    6.296185
 C   -3.865247  -39.406691    6.940804
 O   -2.984465  -38.742011    7.462354
 C   -3.845048  -40.898649    6.917904
 C   -2.980541  -41.558337    7.684618
 H  -13.931819  -38.026352    5.548260
 H  -13.307413  -41.698661    2.836181
 H  -14.268478  -40.552915    1.877297
 H  -15.338116  -42.780910    3.685974
 H  -15.417391  -42.692585    1.909984
 H  -18.750261  -41.624763    2.799247
 H  -17.796575  -42.791822    1.865999
 H  -17.883888  -42.936968    3.641033
 H  -17.647741  -39.967768    4.106543
 H  -16.670192  -41.162427    4.992207
 H  -15.569143  -39.039158    5.077901
 H  -15.674440  -38.795759    3.319608
 H  -12.498876  -36.676277    6.883416
 H   -8.790271  -38.024902    6.625792
 H   -6.501100  -35.463772    7.804034
 H   -6.856602  -36.120767    9.409222
 H   -6.539643  -37.217110    8.060045
 H   -9.211562  -34.666027    9.100499
 H   -8.685546  -41.400112    6.626166
 H   -6.525022  -40.547388    7.521053
 H   -8.225266  -38.964674    3.145352
 H   -6.017777  -38.167518    3.987093
 H   -4.783560  -37.778264    6.231051
 H   -4.526404  -41.421901    6.254186
 H   -2.922718  -42.642065    7.674122
 H   -2.304558  -41.014912    8.338355
