47 
5d1n_ligand_xtb.xyz
 N    2.885965    0.214569   -1.136227
 C    3.028215   -0.700533    0.021627
 C    2.431699   -2.082662   -0.272425
 C    0.919589   -2.154955   -0.109470
 S    0.010831   -1.075920   -1.293653
 C    4.542013   -0.832260    0.242693
 O    5.313571   -0.389805   -0.567599
 O    4.851082   -1.466827    1.345130
 C   -1.533040   -2.005230   -1.505894
 C   -2.593009   -1.686625   -0.451461
 O   -2.026410   -1.586949    0.848560
 C   -3.365433   -0.381954   -0.713933
 O   -4.562561   -0.699650   -1.362929
 C   -3.602493    0.178694    0.710028
 O   -4.791609   -0.294979    1.258776
 C   -2.399376   -0.384846    1.480339
 N   -1.249543    0.502522    1.465804
 C   -0.092738    0.211624    2.134819
 N    0.943335    0.888554    1.742482
 C    0.464168    1.710148    0.752756
 C    1.059899    2.597301   -0.140954
 N    2.452749    2.724097   -0.231033
 N    0.315895    3.221834   -1.035972
 C   -0.986755    2.976223   -1.069601
 N   -1.658012    2.112709   -0.334325
 C   -0.918313    1.479612    0.569162
 H    3.779517    0.144728   -1.661161
 H    2.770185    1.248635   -0.822858
 H    2.083554   -0.054938   -1.718768
 H    2.549010   -0.266236    0.909648
 H    2.713618   -2.390016   -1.282046
 H    2.865218   -2.796740    0.430609
 H    0.586879   -3.172392   -0.307363
 H    0.619537   -1.875157    0.898349
 H    5.811891   -1.558838    1.469178
 H   -1.266097   -3.060987   -1.482952
 H   -1.913463   -1.751301   -2.494807
 H   -3.320462   -2.511908   -0.452617
 H   -2.757662    0.324350   -1.293886
 H   -5.004823    0.109307   -1.647846
 H   -3.597709    1.274308    0.726527
 H   -5.258982   -0.812547    0.582490
 H   -2.657407   -0.606495    2.521642
 H   -0.067519   -0.525877    2.913713
 H    2.903931    2.766580    0.676722
 H    2.711463    3.509274   -0.820973
 H   -1.555852    3.529436   -1.801881
