35 
5d29_ligand_dft.xyz
 C   -1.918492   -1.540882   -0.228299
 C   -3.145487   -1.052832    0.200513
 C   -3.546159    0.237987   -0.146251
 C   -4.867467    0.713770    0.339088
 O   -5.626974    0.065669    1.022974
 O   -5.156715    1.969231   -0.058654
 C   -2.708820    1.037138   -0.927865
 C   -1.483474    0.542401   -1.352660
 C   -1.072326   -0.748713   -1.009118
 C    0.287006   -1.249939   -1.435315
 C    1.406502   -0.782472   -0.487527
 C    1.208741   -1.395351    0.884418
 O    1.436634   -0.515204    1.889671
 O    0.921762   -2.546011    1.103093
 C    2.793214   -1.188002   -1.025152
 C    3.966924   -0.697229   -0.165177
 C    4.015771    0.814182   -0.144782
 O    4.346498    1.498976   -1.108098
 N    3.666430    1.403715    1.029789
 O    3.484841    2.781849    0.973185
 H   -1.604781   -2.542765    0.049654
 H   -3.807391   -1.662438    0.806585
 H   -6.029954    2.170881    0.312362
 H   -3.018750    2.039726   -1.200545
 H   -0.835444    1.166519   -1.963436
 H    0.520940   -0.880948   -2.440065
 H    0.295740   -2.343866   -1.475273
 H    1.356969    0.307554   -0.387874
 H    1.298483   -1.000789    2.720231
 H    2.835716   -2.279538   -1.108379
 H    2.904764   -0.773707   -2.032593
 H    3.908476   -1.099730    0.852010
 H    4.905574   -1.046984   -0.603634
 H    2.961444    0.968713    1.615631
 H    3.779243    2.974935    0.058214
