48 
5d3t_ligand_xtb.xyz
 C   10.793789    6.154040    2.401120
 C   11.138526    6.721798    1.021744
 C   11.148531    5.635551   -0.003462
 C   12.202962    4.764364   -0.422192
 C   11.657037    3.894846   -1.369822
 C    6.432697    7.883581   -1.965107
 C    6.589749    6.402598   -1.735215
 C    6.941202    8.776441   -1.027422
 C    5.019434   10.322570   -4.511278
 C   12.284596    2.778704   -2.113770
 C   13.610508    4.669041   -0.039328
 C   14.164846    5.661155    0.954477
 C   10.028155    5.276235   -0.722367
 C    8.658132    5.807381   -0.620718
 N   10.365750    4.227259   -1.548390
 N    7.983855    5.990082   -1.791598
 O   14.333083    3.813943   -0.518568
 O    8.133985    6.032776    0.458266
 C    5.818330    8.371083   -3.108926
 C    5.696720    9.742238   -3.314773
 C    6.192947   10.622892   -2.359050
 C    6.818948   10.140106   -1.224247
 O    4.452794   11.394163   -4.488467
 N    5.075476    9.567913   -5.639536
 C    8.599911    6.072284   -3.092689
 H   10.850850    6.934811    3.155788
 H    9.781168    5.760824    2.380632
 H   11.472522    5.349308    2.675700
 H   12.093432    7.242992    1.052530
 H   10.367446    7.445818    0.751414
 H    6.228643    6.144234   -0.736310
 H    6.029994    5.833291   -2.484440
 H    7.415635    8.388670   -0.138595
 H   11.570952    2.319904   -2.796100
 H   13.147288    3.137734   -2.672402
 H   12.657944    2.028571   -1.418581
 H   15.199139    5.400124    1.167087
 H   14.133577    6.663135    0.531620
 H   13.591128    5.648087    1.875827
 H    9.716428    3.722638   -2.130226
 H    5.397489    7.672536   -3.819867
 H    6.073808   11.682658   -2.524631
 H    7.204735   10.827595   -0.486767
 H    4.666013    9.943417   -6.478732
 H    5.645829    8.745765   -5.710441
 H    9.683494    6.099575   -3.005442
 H    8.306105    5.224171   -3.720751
 H    8.275418    6.992099   -3.585995
