55 
5d47_ligand_xtb.xyz
 O   -3.170123   -2.467839    2.075161
 C   -2.002424   -2.399910    1.823089
 O   -1.257723   -1.379105    2.271828
 C   -1.271476   -3.430082    0.976270
 C   -1.234741   -2.970993   -0.496456
 N   -0.469088   -1.766109   -0.650537
 C   -0.973209   -0.482206   -0.615594
 C   -2.401355   -0.193614   -0.728744
 C   -3.144661   -0.669833   -1.806689
 C   -4.493095   -0.380683   -1.904689
 C   -5.112111    0.384835   -0.931264
 C   -4.376342    0.869436    0.137496
 C   -3.028368    0.585727    0.239927
 C    0.054495    0.417661   -0.442194
 C    1.265581   -0.340168   -0.372576
 C    2.611606    0.000300   -0.259872
 C    3.557694   -1.004855   -0.224570
 C    5.005929   -0.683910   -0.081308
 C    5.963474   -1.048603   -1.178091
 C    5.633564    0.389744   -0.916730
 C    3.166218   -2.348425   -0.315338
 C    1.845018   -2.713331   -0.455618
 C    0.895275   -1.699809   -0.491085
 C   -0.091265    1.865474   -0.360542
 C   -0.856304    2.572393   -1.280098
 C   -0.969398    3.946786   -1.152226
 N   -0.376893    4.631174   -0.191616
 C    0.346265    3.972588    0.699170
 C    0.521997    2.593061    0.677574
 O    1.218144    1.876875    1.604315
 C    1.853970    2.572430    2.647973
 H   -0.345432   -1.385914    1.949079
 H   -1.818750   -4.370504    1.037259
 H   -0.253420   -3.577446    1.344116
 H   -2.256590   -2.794500   -0.837412
 H   -0.787657   -3.759740   -1.108924
 H   -2.656723   -1.245469   -2.581900
 H   -5.061044   -0.752879   -2.744955
 H   -6.166520    0.604498   -1.007204
 H   -4.856497    1.466424    0.897858
 H   -2.454993    0.949633    1.078713
 H    2.910797    1.034353   -0.197331
 H    5.373742   -0.790575    0.934780
 H    5.557028   -1.503992   -2.068730
 H    6.944193   -1.412637   -0.911011
 H    6.388046    1.019723   -0.470001
 H    5.010871    0.899327   -1.636371
 H    3.929728   -3.111871   -0.285546
 H    1.567731   -3.753234   -0.548194
 H   -1.347378    2.048528   -2.085519
 H   -1.555256    4.528933   -1.850229
 H    0.794252    4.591383    1.464354
 H    2.589928    3.287746    2.267115
 H    1.131571    3.097707    3.280668
 H    2.363825    1.811531    3.237148
