65 
5d48_ligand_dft.xyz
 O    5.831883    7.853581   14.100156
 C    6.012977    7.096871   15.025467
 O    5.562255    5.833669   15.033721
 C    6.743495    7.473276   16.293279
 C    5.980682    8.569815   17.056890
 N    4.883602    8.062971   17.855545
 C    3.623804    7.666956   17.407971
 C    2.977257    6.967917   18.401240
 C    1.622821    6.416131   18.347748
 C    0.451598    7.082948   18.032700
 C    0.202530    8.504209   17.656161
 N   -0.523420    6.145609   18.078645
 N   -0.080271    4.914083   18.397153
 C    1.227591    5.066490   18.562068
 C    2.102259    3.897938   18.890532
 C    3.880050    6.903698   19.517529
 C    3.774043    6.365055   20.806028
 C    4.848637    6.452250   21.676892
 C    4.784795    5.856919   23.049828
 C    3.563888    6.029748   23.912047
 C    4.840919    6.742970   24.269250
 C    6.034976    7.090382   21.253191
 C    6.160274    7.652713   19.995170
 C    5.060776    7.567323   19.134771
 C    3.108141    7.985432   16.064468
 C    2.530178    6.971951   15.295847
 C    2.004696    7.273236   14.043197
 C    2.072668    8.563645   13.536886
 C    2.655856    9.580357   14.296843
 C    3.151743    9.292239   15.568489
 O    2.657720   10.815058   13.732933
 C    3.585949   11.801479   14.191782
 C    5.012653   11.413749   13.817522
 C    3.147492   13.105210   13.545484
 H    5.039145    5.728506   14.221578
 H    6.899911    6.603085   16.934517
 H    7.716785    7.872986   15.991017
 H    6.664464    9.084355   17.735680
 H    5.615729    9.313971   16.347543
 H   -0.760096    8.859975   18.038705
 H    0.992723    9.136834   18.068612
 H    0.213661    8.634569   16.567482
 H   -1.506303    6.278189   17.903985
 H    1.561220    2.966456   18.707411
 H    3.009636    3.910752   18.277420
 H    2.423063    3.907728   19.937777
 H    2.850862    5.886868   21.121699
 H    5.295711    4.900166   23.149727
 H    2.749391    6.629369   23.516192
 H    3.247985    5.194945   24.529918
 H    5.402359    6.398572   25.132461
 H    4.879486    7.815607   24.102619
 H    6.868592    7.148964   21.947998
 H    7.083447    8.144996   19.704144
 H    2.489993    5.961977   15.689091
 H    1.546064    6.489090   13.447605
 H    1.686247    8.809371   12.553493
 H    3.560421   10.077390   16.194027
 H    3.495392   11.907793   15.281289
 H    5.721406   12.140165   14.229181
 H    5.278309   10.417065   14.183033
 H    5.119842   11.404308   12.727893
 H    3.804163   13.922423   13.859649
 H    3.194293   13.019665   12.455244
 H    2.120583   13.349981   13.830578
