53 
5d6e_ligand_dft.xyz
 O    4.704185   -0.574025    0.004944
 C    3.800463    0.233980   -0.088330
 N    3.952064    1.557778   -0.358495
 C    5.265974    2.188685   -0.306294
 C    5.708262    2.450306    1.134984
 C    5.240086    3.463461   -1.144295
 O    2.485998   -0.065432    0.036940
 C    2.189288   -1.439943    0.357539
 C    0.843954   -1.446721    0.997778
 N    0.543697   -1.048995    2.260569
 N   -0.737091   -1.166302    2.433225
 N   -1.272175   -1.651556    1.293470
 C   -0.310014   -1.831100    0.360498
 C   -0.422745   -2.391012   -1.032556
 C   -0.637284   -3.905164   -0.999052
 O   -1.551608   -1.875485   -1.724799
 C    0.889428   -2.016817   -1.756018
 C    2.147071   -2.288466   -0.919521
 C   -2.722802   -1.713102    1.164971
 C   -3.308343   -0.426908    0.624300
 C   -3.115723    0.776281    1.298293
 C   -3.650712    1.967370    0.814981
 C   -4.398765    1.960277   -0.364923
 O   -4.964053    3.058060   -0.925645
 C   -4.808800    4.294672   -0.265736
 C   -4.596888    0.757179   -1.049223
 C   -4.054923   -0.419540   -0.556920
 H    3.137963    2.137590   -0.211713
 H    5.957863    1.472813   -0.758977
 H    5.730122    1.513058    1.697914
 H    6.710405    2.891568    1.159232
 H    5.018364    3.142356    1.632589
 H    4.528877    4.190112   -0.730740
 H    4.951083    3.247853   -2.177143
 H    6.227199    3.935109   -1.149890
 H    2.964644   -1.803150    1.034853
 H   -1.550255   -4.154392   -0.450687
 H    0.201281   -4.412000   -0.514992
 H   -0.739435   -4.277582   -2.022637
 H   -1.517323   -0.909853   -1.689090
 H    0.929725   -2.559506   -2.705843
 H    0.852493   -0.946090   -1.995408
 H    3.049779   -2.084685   -1.501050
 H    2.193602   -3.345700   -0.631867
 H   -2.972500   -2.551040    0.512468
 H   -3.098545   -1.927704    2.168430
 H   -2.527486    0.787422    2.212302
 H   -3.478166    2.885459    1.364618
 H   -5.337691    5.028352   -0.874964
 H   -3.752075    4.581450   -0.189713
 H   -5.250617    4.272325    0.738602
 H   -5.176153    0.769968   -1.966526
 H   -4.199949   -1.345777   -1.105520
