47 
5d6j_ligand_dft.xyz
 P    4.303827   -0.800270   -0.305117
 O    3.908296   -1.274704    1.043138
 O    4.263973   -1.807841   -1.505961
 O    5.777201   -0.224087   -0.406725
 P    2.141633    1.140713   -0.026593
 O    1.756883    2.264602   -1.054472
 O    2.420659    1.532263    1.356928
 O    3.350976    0.418232   -0.823283
 P    0.889229   -1.517742    0.016173
 O    1.645647   -2.256603   -1.023531
 O    1.316139   -1.792542    1.509892
 O    0.917406    0.077498   -0.220105
 O   -0.680300   -1.722804    0.021608
 C   -1.272640   -2.935938    0.513721
 C   -2.779270   -2.743965    0.544068
 O   -3.113677   -1.651667    1.406183
 C   -3.438325   -2.424506   -0.798906
 O   -4.777631   -2.843484   -0.738758
 C   -3.363421   -0.898099   -0.846146
 O   -4.408682   -0.385183   -1.620221
 C   -3.468188   -0.528210    0.654715
 N   -2.561628    0.573489    0.976744
 C   -1.592366    0.629651    1.952918
 N   -0.844546    1.699154    1.897574
 C   -1.337780    2.384092    0.810510
 C   -0.909910    3.522994    0.127799
 N    0.294268    4.138143    0.437084
 N   -1.593217    3.964318   -0.927907
 C   -2.644700    3.247824   -1.344332
 N   -3.103580    2.099631   -0.847982
 C   -2.413008    1.709252    0.231800
 H    3.340220   -2.159005   -1.571294
 H    6.099248    0.048401    0.463935
 H    1.358431    3.045220   -0.583971
 H    2.302565   -1.712823    1.593359
 H   -1.000670   -3.770391   -0.141120
 H   -0.904202   -3.125518    1.525444
 H   -3.228786   -3.648016    0.965517
 H   -2.907015   -2.888218   -1.641615
 H   -5.279669   -2.218318   -1.283868
 H   -2.385138   -0.587221   -1.226552
 H   -4.272951    0.581213   -1.640623
 H   -4.491359   -0.226089    0.901436
 H   -1.490143   -0.168329    2.673097
 H    0.625349    3.967500    1.381970
 H    0.349938    5.105682    0.140920
 H   -3.172724    3.644241   -2.206580
