47 
5d6j_ligand_xtb.xyz
 P    3.665090   -1.210227   -0.160308
 O    2.970784   -1.154970    1.133754
 O    4.014445   -2.573308   -0.808465
 O    5.070048   -0.511945   -0.126659
 P    1.941446    0.755465   -0.694171
 O    1.367155    1.426996   -1.983102
 O    2.632101    1.624878    0.245163
 O    2.863721   -0.380639   -1.309398
 P    0.560347   -1.602168    0.256692
 O    1.404377   -2.518295   -0.518654
 O    0.556492   -1.743110    1.816268
 O    0.702571   -0.050588   -0.097271
 O   -0.975654   -1.706591   -0.113877
 C   -1.800822   -2.750960    0.383165
 C   -3.250986   -2.248218    0.408455
 O   -3.395031   -1.165684    1.315811
 C   -3.723485   -1.710106   -0.951571
 O   -5.112967   -1.826046   -1.060342
 C   -3.273034   -0.243044   -0.883209
 O   -4.099247    0.590839   -1.637977
 C   -3.335145    0.054545    0.638023
 N   -2.186852    0.831125    1.047177
 C   -1.458335    0.740335    2.200979
 N   -0.482593    1.591182    2.273969
 C   -0.531113    2.290304    1.097527
 C    0.280159    3.281902    0.520126
 N    1.276911    3.889329    1.183889
 N   -0.005100    3.673049   -0.732792
 C   -1.084976    3.190814   -1.334525
 N   -1.936053    2.288066   -0.891838
 C   -1.602003    1.819989    0.318633
 H    3.192044   -3.065306   -0.934127
 H    5.041973    0.279862    0.414004
 H    1.132077    2.354563   -1.836019
 H    1.458217   -1.613245    2.140264
 H   -1.713419   -3.627401   -0.264965
 H   -1.492758   -3.012317    1.397197
 H   -3.909671   -3.048533    0.757932
 H   -3.231603   -2.237761   -1.779226
 H   -5.427251   -1.037763   -1.526934
 H   -2.232482   -0.175728   -1.214987
 H   -3.641396    1.448586   -1.688232
 H   -4.247396    0.630715    0.872373
 H   -1.703587    0.023425    2.958188
 H    1.643355    3.383600    1.974342
 H    1.935743    4.410976    0.628973
 H   -1.283204    3.585344   -2.322442
