30 
5d7x_ligand_dft.xyz
 C   -2.490167   -3.167651   -0.498594
 C   -2.810336   -1.706057   -0.274808
 O   -3.944473   -1.288308   -0.216082
 N   -1.712285   -0.847047   -0.135728
 C   -0.373578   -1.217418   -0.188431
 C    0.431332   -0.130212   -0.032576
 C    1.882095   -0.174901   -0.019800
 C    2.711908   -1.115019    0.449813
 C    2.480603   -2.388945    1.171040
 N    4.115017   -0.736561    0.188268
 N    4.191617    0.349652   -0.405218
 C    2.793874    0.850194   -0.620261
 O    2.560554    1.878166   -1.182204
 C   -0.444661    1.018525    0.130298
 C   -0.208081    2.379838    0.345227
 C   -1.294662    3.226545    0.486905
 C   -2.606386    2.734668    0.419814
 C   -2.868069    1.388674    0.211902
 C   -1.767610    0.543063    0.069956
 H   -1.910488   -3.580489    0.333161
 H   -3.435940   -3.702945   -0.576401
 H   -1.918918   -3.311837   -1.421242
 H   -0.089507   -2.242081   -0.372666
 H    1.485929   -2.403787    1.625908
 H    2.563275   -3.244797    0.489693
 H    3.240673   -2.520700    1.947097
 H    0.803526    2.766358    0.383443
 H   -1.128988    4.286946    0.649323
 H   -3.439866    3.421159    0.532562
 H   -3.876363    1.003195    0.161237
