30 
5d7x_ligand_xtb.xyz
 C   -2.482415   -3.155872   -0.389485
 C   -2.803328   -1.692916   -0.220152
 O   -3.928745   -1.264903   -0.181031
 N   -1.699858   -0.851830   -0.107770
 C   -0.378836   -1.221052   -0.138917
 C    0.443969   -0.125270   -0.023297
 C    1.868291   -0.173073   -0.011468
 C    2.711848   -1.187015    0.323908
 C    2.469249   -2.549881    0.848315
 N    4.045618   -0.761271    0.167454
 N    4.130351    0.394684   -0.268104
 C    2.801678    0.930446   -0.463348
 O    2.559998    2.000816   -0.935655
 C   -0.425395    1.024772    0.101518
 C   -0.196524    2.383380    0.280448
 C   -1.287194    3.223751    0.397459
 C   -2.586668    2.731505    0.340165
 C   -2.839062    1.381305    0.172733
 C   -1.747950    0.537625    0.055971
 H   -1.901195   -3.524546    0.452968
 H   -3.419026   -3.704423   -0.441984
 H   -1.924021   -3.319967   -1.308910
 H   -0.086718   -2.239429   -0.293866
 H    1.588133   -2.562478    1.488048
 H    2.317135   -3.253747    0.029196
 H    3.341468   -2.874326    1.410606
 H    0.805571    2.777968    0.312209
 H   -1.127454    4.282567    0.533027
 H   -3.417514    3.414492    0.430570
 H   -3.845152    0.999279    0.137468
