66 
5db0_ligand_dft.xyz
 C   -2.880027    2.723525   -0.640586
 C   -2.328233    1.591822   -0.023422
 C   -3.281111    0.684977    0.486760
 N   -4.580137    0.903054    0.361731
 N   -4.186695    2.967728   -0.775352
 F    1.441528    3.494447    1.420708
 C    1.585060    3.984700    0.177781
 F    2.906416    4.196683   -0.016382
 F    0.979016    5.172359    0.135339
 C    1.054079    3.019682   -0.865704
 C   -0.396680    2.694132   -0.675815
 S   -1.642070    3.784091   -1.242591
 C   -0.893121    1.590858   -0.056320
 C   -4.964550    2.032297   -0.264689
 N   -2.847742   -0.497442    1.090905
 C   -3.763857   -1.412401    1.802074
 C   -4.842814   -2.005261    0.880332
 C   -4.225939   -2.631365   -0.379368
 C   -2.907413   -2.581840    2.320709
 C   -2.557180   -3.568481    1.185314
 N   -2.772761   -2.912073   -0.144257
 C   -2.055994   -3.587402   -1.285676
 C   -0.616427   -3.160153   -1.243899
 C    0.379744   -4.013104   -0.804277
 C   -0.326245   -1.804559   -1.543761
 C    0.936443   -1.280810   -1.380922
 C    1.937008   -2.143739   -0.916402
 C    1.680481   -3.510455   -0.641026
 C    2.903767   -4.082915   -0.186927
 C    3.827337   -3.070342   -0.200264
 C    5.198691   -3.103144    0.179064
 N    6.315410   -3.090174    0.489852
 N    3.254653   -1.891663   -0.653050
 C    3.915227   -0.597893   -0.693461
 C    3.739314    0.189081    0.596940
 O    2.372107    0.531369    0.738289
 C    4.574369    1.467176    0.598639
 O    4.162506    2.182279    1.746803
 H    1.249546    3.457839   -1.848840
 H    1.640182    2.101924   -0.761081
 H   -0.246824    0.814586    0.341572
 H   -6.036244    2.184108   -0.352191
 H   -1.980593   -0.357180    1.598753
 H   -4.253881   -0.899216    2.636144
 H   -5.378884   -2.764844    1.458390
 H   -5.555741   -1.235863    0.590088
 H   -4.707778   -3.569950   -0.664108
 H   -4.267824   -1.944125   -1.227935
 H   -1.993003   -2.209513    2.794094
 H   -3.464482   -3.113523    3.095953
 H   -3.188643   -4.460964    1.196402
 H   -1.512639   -3.880673    1.225759
 H   -2.358296   -1.966713   -0.045526
 H   -2.194082   -4.665949   -1.177734
 H   -2.557028   -3.260771   -2.201250
 H    0.163552   -5.054828   -0.580411
 H   -1.118325   -1.152966   -1.910079
 H    1.136219   -0.236902   -1.589242
 H    3.092301   -5.104801    0.107213
 H    4.979111   -0.767973   -0.882270
 H    3.513506   -0.032508   -1.539688
 H    4.055991   -0.438432    1.443470
 H    2.373317    1.236629    1.409506
 H    4.372630    2.037975   -0.318456
 H    5.645029    1.228808    0.636770
 H    4.215804    3.127448    1.569049
