58 
5db1_ligand_xtb.xyz
 C   -5.027728   -1.904976   -0.761825
 C   -4.026227   -0.942130   -0.548226
 C   -2.776667   -1.466133   -0.139760
 N   -2.613918   -2.780234   -0.001801
 N   -4.851994   -3.212903   -0.625614
 F   -7.611183    3.501666   -0.335320
 C   -6.802532    2.452613   -0.140014
 F   -7.317509    1.746710    0.872732
 F   -5.633809    2.950146    0.299494
 C   -6.633873    1.622987   -1.405509
 C   -5.800572    0.411420   -1.133251
 S   -6.529240   -1.173576   -1.220418
 C   -4.493375    0.379828   -0.773085
 C   -3.644788   -3.572626   -0.255802
 N   -1.719406   -0.665096    0.121237
 C   -0.460348   -1.173597    0.596228
 C    0.700233   -0.727770   -0.300225
 C    2.008975   -1.287408    0.235180
 C   -0.181463   -0.724271    2.037595
 C    1.159809   -1.271517    2.509832
 N    2.235241   -0.820834    1.615162
 C    3.618953   -1.149808    2.093534
 C    4.603702   -0.432627    1.223773
 C    5.586257   -1.119399    0.533352
 C    6.460956   -0.418430   -0.284661
 C    7.538579   -0.752199   -1.115073
 C    7.956432    0.458825   -1.674058
 C    9.015765    0.593050   -2.581168
 N    9.890037    0.655613   -3.326492
 N    7.222002    1.526480   -1.256991
 C    6.319413    1.019964   -0.418569
 C    5.311782    1.700861    0.274999
 C    4.475630    0.973944    1.079368
 O    3.380321    1.533119    1.793669
 C    3.277741    2.935588    1.816979
 H   -6.169152    2.267736   -2.156361
 H   -7.628658    1.334701   -1.747862
 H   -3.891680    1.265160   -0.668828
 H   -3.469304   -4.632881   -0.138165
 H   -1.843592    0.331420    0.049611
 H   -0.560575   -2.263595    0.562502
 H    0.748111    0.363543   -0.331854
 H    0.542777   -1.086015   -1.317123
 H    2.856758   -0.961833   -0.373121
 H    1.983002   -2.380163    0.242223
 H   -0.972377   -1.084621    2.695477
 H   -0.172646    0.367674    2.086798
 H    1.144517   -2.364737    2.510796
 H    1.376572   -0.925281    3.522611
 H    2.277025    0.226487    1.607697
 H    3.767239   -2.230170    2.057699
 H    3.680125   -0.809391    3.131431
 H    5.669754   -2.192896    0.647710
 H    7.964988   -1.721432   -1.293871
 H    5.222752    2.767466    0.151261
 H    4.193186    3.390835    2.200973
 H    3.065856    3.338454    0.821321
 H    2.449432    3.166783    2.488055
