41 
5dd9_ligand_xtb.xyz
 C    3.150772    1.974210   -0.385255
 C    2.046206    1.108848   -0.252792
 C    0.821970    1.770005    0.049180
 N    0.824374    3.090389    0.267063
 N    3.121496    3.288870   -0.221167
 F    5.076528   -1.816603    1.420564
 C    4.537765   -2.490699    0.399827
 F    3.314060   -2.876240    0.797696
 F    5.256626   -3.614146    0.254410
 C    4.497409   -1.679435   -0.887201
 C    3.755985   -0.395496   -0.688160
 S    4.613984    1.121178   -0.754625
 C    2.435255   -0.250578   -0.417143
 C    1.947261    3.766586    0.128468
 N   -0.381434    1.170880    0.154842
 C   -1.509272    1.936199    0.652911
 C   -2.494403    0.997566    1.335572
 C   -0.667568   -0.173916   -0.289259
 C   -2.125379   -0.297968   -0.723811
 N   -3.002130    0.041726    0.371159
 C   -4.320582   -0.199347    0.301248
 S   -5.026690   -1.173191   -0.996097
 N   -5.190665    0.215352    1.165293
 N   -6.429577   -0.183358    0.899481
 C   -6.566337   -0.897156   -0.146479
 C   -7.836584   -1.464431   -0.643904
 H    4.017635   -2.304068   -1.645764
 H    5.527952   -1.482290   -1.185513
 H    1.787411   -1.098511   -0.301623
 H    1.889795    4.830986    0.310656
 H   -2.002993    2.471627   -0.167114
 H   -1.130048    2.680243    1.354476
 H   -3.340875    1.549474    1.746821
 H   -1.997007    0.465118    2.154794
 H   -0.467773   -0.897818    0.512323
 H   -0.038116   -0.413015   -1.149181
 H   -2.322217   -1.329887   -1.032686
 H   -2.310302    0.352652   -1.591611
 H   -8.023037   -1.140024   -1.666854
 H   -7.794741   -2.553177   -0.634902
 H   -8.646741   -1.129529   -0.002213
