41 
5ddb_ligand_xtb.xyz
 C    3.874842    1.852738   -0.445700
 C    2.704911    1.079537   -0.297567
 C    1.541366    1.839684    0.006876
 N    1.648116    3.158699    0.200592
 N    3.950262    3.167691   -0.300954
 F    5.530062   -3.871675    0.270257
 C    4.899398   -2.694976    0.395633
 F    5.483473   -2.048395    1.409326
 F    3.647506   -2.978499    0.792748
 C    4.926119   -1.901104   -0.902714
 C    4.288643   -0.560095   -0.720952
 S    5.264096    0.882206   -0.806869
 C    2.984163   -0.308287   -0.448935
 C    2.819618    3.743250    0.043324
 N    0.293993    1.339738    0.140817
 C   -0.104340    0.010804   -0.261604
 C   -1.581750   -0.016685   -0.646714
 C   -0.757085    2.198173    0.653265
 C   -1.783532    1.352143    1.392820
 N   -2.396009    0.425708    0.460512
 C   -3.713341    0.216536    0.484593
 S   -4.539236   -0.745176   -0.746086
 N   -4.514098    0.674500    1.406353
 N   -5.768077    0.319869    1.233092
 C   -5.986816   -0.405054    0.197782
 C   -7.334223   -0.909998   -0.171699
 F   -7.356538   -2.264045   -0.249486
 F   -7.714857   -0.463516   -1.395367
 H    4.399734   -2.495489   -1.654574
 H    5.969588   -1.790315   -1.200485
 H    2.271520   -1.101246   -0.325685
 H    2.846423    4.811888    0.205478
 H    0.070009   -0.709592    0.549265
 H    0.476371   -0.292551   -1.135530
 H   -1.864021   -1.040212   -0.913873
 H   -1.748799    0.619321   -1.527465
 H   -1.238917    2.748363   -0.164037
 H   -0.300440    2.929458    1.321414
 H   -2.569276    1.973542    1.824225
 H   -1.298308    0.795893    2.202977
 H   -8.085597   -0.589790    0.564926
