41 
5ddc_ligand_xtb.xyz
 C    4.200085    1.826477   -0.414261
 C    3.013272    1.074894   -0.287965
 C    1.860243    1.855993    0.001151
 N    1.988617    3.171466    0.203130
 N    4.297990    3.138908   -0.261257
 F    3.843001   -3.015122    0.773279
 C    5.110401   -2.751675    0.412813
 F    5.721270   -3.938783    0.290943
 F    5.678940   -2.127184    1.448856
 C    5.187342   -1.944127   -0.875158
 C    4.572248   -0.592395   -0.695359
 S    5.575780    0.831631   -0.759740
 C    3.268724   -0.317229   -0.442107
 C    3.173630    3.734503    0.068454
 N    0.600384    1.379863    0.111668
 C    0.184113    0.058788   -0.297714
 C   -1.287668    0.058423   -0.705150
 C   -0.442850    2.258208    0.605293
 C   -1.496543    1.433914    1.330601
 N   -2.111151    0.517548    0.388676
 C   -3.423724    0.302189    0.415687
 S   -4.250822   -0.672629   -0.809786
 N   -4.227644    0.764417    1.334930
 N   -5.476468    0.407384    1.168219
 C   -5.692803   -0.325652    0.139313
 C   -7.022548   -0.859014   -0.258642
 F   -7.018300   -2.201021   -0.358089
 F   -7.981781   -0.534516    0.605176
 F   -7.408220   -0.402399   -1.465003
 H    4.670069   -2.519547   -1.647845
 H    6.240499   -1.851141   -1.143714
 H    2.539709   -1.097343   -0.333436
 H    3.218336    4.801416    0.237847
 H    0.333155   -0.665434    0.514827
 H    0.771854   -0.255016   -1.163251
 H   -1.585330   -0.959387   -0.976664
 H   -1.430249    0.697925   -1.587112
 H   -0.901543    2.815691   -0.220295
 H    0.016766    2.982564    1.278990
 H   -2.276747    2.071105    1.748443
 H   -1.035677    0.869458    2.148899
