47 
5ddf_ligand_xtb.xyz
 C    3.156020    2.153109   -0.239435
 C    2.005080    1.337555   -0.186025
 C    0.784895    2.054414    0.005322
 N    0.833909    3.377792    0.208672
 N    3.170090    3.468513   -0.089605
 F    5.127748   -3.402474    0.727697
 C    4.521080   -2.223861    0.798921
 F    5.229004   -1.445302    1.617394
 F    3.325582   -2.415897    1.368363
 C    4.346935   -1.550604   -0.594546
 F    5.563381   -1.476632   -1.176148
 F    3.611796   -2.406987   -1.355971
 C    3.680657   -0.222858   -0.473340
 S    4.613132    1.242792   -0.488534
 C    2.344339   -0.035357   -0.302480
 C    1.991761    4.001451    0.157129
 N   -0.443863    1.512428    0.005234
 C   -1.583859    2.326165    0.385260
 C   -2.592314    1.462098    1.129249
 C   -0.737804    0.148053   -0.375590
 C   -2.193016    0.017230   -0.816895
 N   -3.072033    0.407523    0.258209
 C   -4.381030    0.094958    0.261716
 S   -4.991250   -1.056795   -0.967166
 C   -6.611283   -1.120187   -0.085271
 C   -7.748675   -0.992101   -1.086452
 C   -6.685564   -2.441944    0.669687
 C   -6.558483    0.083783    0.894505
 N   -5.220051    0.540613    1.095848
 H    1.664881   -0.863646   -0.241577
 H    1.967879    5.069569    0.324095
 H   -2.048012    2.769442   -0.502936
 H   -1.222786    3.138040    1.017040
 H   -3.451368    2.052500    1.453601
 H   -2.121998    1.024222    2.018442
 H   -0.555510   -0.532924    0.466086
 H   -0.099875   -0.140867   -1.214296
 H   -2.396606   -1.023801   -1.083825
 H   -2.364103    0.630451   -1.713678
 H   -7.637290   -0.087367   -1.680739
 H   -7.762257   -1.846892   -1.759391
 H   -8.699971   -0.950168   -0.558614
 H   -6.600777   -3.279435   -0.019951
 H   -5.877824   -2.508289    1.396449
 H   -7.636230   -2.517917    1.195009
 H   -6.982077   -0.201929    1.861358
 H   -7.152600    0.919171    0.503074
