78 
5dgj_ligand_xtb.xyz
 O    4.766792   -0.310797   -1.366257
 C    4.390854   -0.498290   -0.232184
 O    5.160093   -0.772574    0.836976
 C    6.594416   -0.892847    0.697759
 C    7.077373   -1.225776    2.110303
 C    7.193738    0.431612    0.224947
 C    6.943022   -2.026744   -0.266600
 O    0.823297    0.287662    1.268810
 C    0.850017    0.361231    0.056065
 N   -2.587495   -3.660164   -1.124683
 C    2.025507   -0.154740   -0.769872
 C    1.611075   -1.392021   -1.593881
 C    1.118585   -2.530107   -0.709509
 N    3.093519   -0.471939    0.142100
 C   -2.802939   -4.416180   -2.333735
 N   -3.306318   -0.206888    0.577838
 C   -4.295011   -1.267712    0.545011
 C   -3.966766   -2.339093    1.594871
 C   -2.715613   -3.144825    1.233814
 C   -3.011757   -4.092998    0.075443
 O   -3.594077   -5.147312    0.244992
 C   -5.672233   -0.626334    0.792537
 O   -5.714394    0.083976    2.006335
 N   -0.138900    0.924385   -0.670257
 C   -1.432857    1.178685   -0.077185
 C   -2.318186   -0.051114   -0.309018
 O   -2.107321   -0.813566   -1.238339
 C   -2.097628    2.411218   -0.696715
 C   -1.260295    3.689264   -0.570096
 C   -1.930891    4.819440   -1.355302
 C   -1.122039    6.109469   -1.262870
 C   -0.949885    6.524739    0.194031
 C   -0.271433    5.407930    0.979460
 C   -1.076660    4.114365    0.887536
 H    8.157847   -1.333737    2.118079
 H    6.793086   -0.432932    2.796925
 H    6.624079   -2.153530    2.449097
 H    6.831730    0.669545   -0.771400
 H    6.909388    1.232749    0.903995
 H    8.277242    0.356505    0.200351
 H    6.473414   -2.952075    0.060583
 H    6.591510   -1.788240   -1.266482
 H    8.019964   -2.167231   -0.293203
 H   -2.212182   -2.723696   -1.227046
 H    2.371496    0.625895   -1.460409
 H    0.828798   -1.113424   -2.302418
 H    2.485994   -1.712810   -2.161135
 H    0.242765   -2.222426   -0.142958
 H    0.848356   -3.390478   -1.316315
 H    1.892914   -2.830261   -0.008515
 H    2.839717   -0.548357    1.117579
 H   -3.443577   -3.866246   -3.026058
 H   -3.285195   -5.353491   -2.059682
 H   -1.851105   -4.627084   -2.824441
 H   -3.433787    0.467108    1.319483
 H   -4.280150   -1.710298   -0.454845
 H   -4.808953   -3.028799    1.680600
 H   -3.809644   -1.854318    2.562193
 H   -2.434396   -3.758430    2.090637
 H   -1.888822   -2.476875    0.994082
 H   -5.873562    0.113432    0.013505
 H   -6.449968   -1.397709    0.751577
 H   -5.711934   -0.544105    2.737092
 H   -0.135933    0.803281   -1.672154
 H   -1.266097    1.313171    0.995083
 H   -3.067947    2.563205   -0.218589
 H   -2.277122    2.206387   -1.755833
 H   -0.271734    3.501260   -1.002247
 H   -2.040858    4.527664   -2.402317
 H   -2.931280    4.991876   -0.950692
 H   -0.139234    5.954813   -1.713805
 H   -1.625650    6.901053   -1.821356
 H   -0.355548    7.438339    0.254637
 H   -1.929644    6.732815    0.630305
 H   -0.164001    5.699093    2.026134
 H    0.729386    5.238184    0.576082
 H   -0.555217    3.333807    1.443426
 H   -2.057267    4.264453    1.346475
