40 
5dgm_ligand_xtb.xyz
 C   -3.787804   -1.724788   -0.060725
 C    3.162671    0.171443   -0.129450
 C    3.206778   -2.675610    0.249927
 C    0.651594   -2.392702    0.393728
 C    5.584061    0.093570   -0.368923
 C    5.628389    1.460491   -0.456682
 P   -4.004896    0.113568   -0.315067
 O   -3.116008    0.851976   -1.246966
 O   -5.458543   -0.066576   -0.985770
 O   -4.451317    0.897326    0.994658
 N   -2.397337   -2.067402   -0.064990
 C   -1.570753   -1.109190    0.388734
 O   -2.077812   -0.114189    0.914553
 C   -0.137126   -1.275585    0.235237
 N    0.654813   -0.177272   -0.018184
 C    1.960115   -0.573490    0.008507
 C    4.367242   -0.584104   -0.181706
 C    4.354277   -1.996485   -0.001359
 C    1.986915   -1.965170    0.247321
 C    4.454581    2.204230   -0.313636
 C    3.246205    1.575675   -0.148098
 C    0.089534    1.019639   -0.592914
 C   -0.394494    2.035865    0.463266
 O    0.304699    2.378189    1.375200
 O   -1.594083    2.546943    0.250322
 H   -4.312389   -2.225901   -0.870673
 H   -4.265475   -1.975546    0.891011
 H    3.203841   -3.739957    0.429556
 H    0.317081   -3.385082    0.624246
 H    6.494214   -0.486477   -0.426395
 H    6.570874    1.967717   -0.601367
 H   -5.796881    0.773369   -1.295958
 H   -3.689265    1.177517    1.507195
 H   -2.055074   -2.847430   -0.601287
 H    5.300886   -2.515672   -0.039126
 H    4.501680    3.282984   -0.318616
 H    2.367432    2.170283    0.038204
 H   -0.749095    0.741555   -1.238931
 H    0.849702    1.509856   -1.207221
 H   -2.135030    2.029892   -0.397764
