44 
5dh3_ligand_dft.xyz
 C    1.820238    0.446850    0.339377
 C    2.774466    1.455844    0.117443
 C    2.272189    2.618716   -0.459104
 N    0.985558    2.835960   -0.713616
 N    0.524476    0.655831    0.116338
 C    4.717160    2.628503    1.081762
 N    4.119388    1.402605    0.562272
 C    5.009696    0.410637    0.201903
 O    6.216330    0.598741    0.233556
 C    4.451284   -0.900429   -0.154606
 S    5.526047   -2.044492   -0.885207
 C    4.356657   -3.285936   -0.759563
 C    3.199590   -2.864902   -0.173447
 C    3.248912   -1.481879    0.185933
 N    2.171680   -0.818289    0.799312
 C    1.103842   -1.645023    1.346696
 C    0.160561    1.840855   -0.368748
 N   -1.169793    2.126869   -0.571452
 C   -2.329415    1.385023   -0.364834
 C   -3.546152    2.030866   -0.636421
 C   -4.752722    1.374056   -0.465025
 C   -4.754750    0.056156   -0.019686
 S   -6.291916   -0.791939    0.214508
 O   -6.192777   -1.633262    1.397174
 O   -7.358456    0.188091    0.062378
 N   -6.330939   -1.864131   -1.079187
 C   -3.557858   -0.595916    0.259714
 C   -2.347168    0.057043    0.089190
 H    2.947211    3.436771   -0.698361
 H    5.534359    2.361062    1.751487
 H    5.130127    3.260251    0.286792
 H    3.954476    3.182937    1.632625
 H    4.567676   -4.276511   -1.139045
 H    2.343601   -3.507903   -0.016698
 H    0.475404   -2.095232    0.567784
 H    1.554640   -2.432796    1.953812
 H    0.471331   -1.027541    1.984051
 H   -1.295484    3.060254   -0.937060
 H   -3.543248    3.062282   -0.979134
 H   -5.691761    1.879597   -0.661755
 H   -6.706519   -2.751568   -0.756965
 H   -6.882050   -1.487163   -1.844748
 H   -3.572070   -1.619273    0.620270
 H   -1.416351   -0.445543    0.304080
