31 
5dh4_ligand_dft.xyz
 C   -1.084650   -0.422861   -0.735549
 C   -3.141328   -0.393526    0.536441
 N   -3.071626    0.939810    0.756574
 C   -4.049861   -1.375944    0.906849
 C    1.034097   -0.737346   -1.952591
 C    2.035013   -0.377385   -0.890244
 C    3.574440   -0.340325    1.010704
 C    2.648256    0.816412   -0.639528
 C    4.419612   -0.640646    2.207976
 C   -2.037308    1.534044    0.240905
 N   -2.168094   -1.059081   -0.194317
 S    2.560065   -1.555166    0.275808
Cl   -1.907424    3.261170    0.509196
 C   -1.002087    0.938301   -0.511303
 N   -2.395189   -2.384816   -0.309860
 C   -3.535399   -2.559036    0.361301
 N   -0.240565   -1.202437   -1.438302
 N    3.516713    0.818896    0.434767
 C    2.472188    2.106974   -1.382019
 H   -4.946734   -1.234253    1.488001
 H    1.418280   -1.533828   -2.596323
 H    0.865525    0.130020   -2.599843
 H    3.804132   -0.940196    3.062346
 H    5.129411   -1.448525    2.003515
 H    4.974935    0.261171    2.472025
 H   -0.175011    1.523163   -0.882926
 H   -3.951799   -3.555301    0.427190
 H   -0.450831   -2.191948   -1.408175
 H    3.445104    2.488254   -1.706007
 H    1.836826    2.003649   -2.265186
 H    2.028814    2.861985   -0.723568
