56 
5dhq_ligand_dft.xyz
 C   -0.384658   -0.192198    1.781709
 C    0.828129   -0.794414    1.980928
 C    0.903371   -2.219487    2.246976
 C    1.246338    1.212753    1.408479
 N   -0.352659   -2.855901    2.376904
 N   -1.566223   -0.865658    1.918057
 C    0.664927   -2.002825   -1.178256
 C   -0.499525   -1.496388   -1.736344
Br   -2.173199   -2.250024   -1.237411
 C   -0.481872   -0.443245   -2.642629
 C    0.748141    0.130493   -2.951041
 C    1.926233   -0.352218   -2.387003
 C    1.902167   -1.440635   -1.510888
 C    3.156982   -2.079395   -0.952235
 C    4.387453   -1.176785   -0.841558
 N    4.179401   -0.098951    0.103632
 C    4.133999    1.202208   -0.257483
 O    4.394448    1.640574   -1.369673
 C    3.762415    2.146027    0.893180
 S    2.025869    2.697551    0.864920
 N    1.842928    0.106958    1.750774
 N    2.017193   -2.851382    2.298753
 C   -1.444933   -2.197826    2.198667
 N   -0.132650    1.111551    1.428998
 C   -1.038761    2.153634    0.971893
 O   -2.323305    1.900084    1.483692
 C   -3.283750    2.041504    0.434217
 C   -4.517801    1.240213    0.774778
 O   -4.147468   -0.119378    0.930946
 C   -2.525257    1.588047   -0.820120
 O   -3.106927    1.982079   -2.026297
 C   -1.145648    2.203565   -0.567585
 O   -1.207909    3.537691   -1.035590
 H   -2.473346   -0.462162    1.687068
 H    0.616180   -2.832643   -0.479995
 H   -1.403453   -0.057356   -3.066055
 H    0.786787    0.968084   -3.641687
 H    2.863302    0.142109   -2.622699
 H    2.935558   -2.491414    0.041332
 H    3.423524   -2.933523   -1.590082
 H    5.232891   -1.788154   -0.506407
 H    4.669444   -0.729441   -1.796936
 H    3.699523   -0.339792    0.968499
 H    4.337800    3.065498    0.770527
 H    3.964350    1.716317    1.876654
 H    1.814111   -3.837852    2.473088
 H   -2.394787   -2.721900    2.274399
 H   -0.660121    3.109692    1.354858
 H   -3.572529    3.097121    0.325781
 H   -4.971376    1.629509    1.695664
 H   -5.227558    1.364940   -0.052868
 H   -4.935814   -0.671578    0.933242
 H   -2.455378    0.496676   -0.813158
 H   -2.772929    2.877089   -2.197023
 H   -0.334447    1.649248   -1.045850
 H   -0.308021    3.846678   -1.196244
