57 
5dht_ligand_dft.xyz
 C   -0.518113   -1.129412    0.944943
 C    0.486751   -0.595816    1.733208
 C    1.168560   -1.489159    2.573995
 C   -0.309410    1.043607    0.631046
 N    0.809172   -2.780489    2.578123
 N   -0.867295   -2.422262    0.899707
 C    3.164861   -0.340936   -1.057596
 C    2.227289   -1.335504   -1.294984
Br    2.467701   -3.032688   -0.490326
 C    1.119474   -1.113289   -2.105438
 C    0.962021    0.144611   -2.677665
 C    1.888298    1.155153   -2.435019
 C    3.003261    0.923296   -1.630115
 C    3.997893    2.024469   -1.352110
 C    4.073989    2.391986    0.139907
 N    2.776258    2.608461    0.746347
 C    1.990283    3.645968    0.367637
 O    2.357508    4.551407   -0.365705
 C    0.583260    3.617976    0.962295
 S   -0.624238    2.652952   -0.005159
 N    0.608520    0.760599    1.524783
 N    2.191927   -1.096447    3.367555
 C   -0.155618   -3.167971    1.745668
 N   -1.049851   -0.063445    0.245682
 C   -2.058619   -0.153371   -0.806738
 O   -2.788199    1.041351   -0.817025
 C   -3.087851   -1.277738   -0.581381
 O   -2.719577   -2.505353   -1.131929
 C   -4.296605   -0.714081   -1.329582
 O   -4.166729   -0.972741   -2.707129
 C   -4.169602    0.794347   -1.109745
 C   -5.004222    1.372591    0.028080
 N   -4.754955    0.702267    1.312296
 N   -3.766428    1.101887    1.934887
 N   -2.905273    1.378687    2.618848
 H    4.020632   -0.554913   -0.423955
 H    0.392838   -1.902333   -2.270897
 H    0.105646    0.341646   -3.316309
 H    1.740721    2.139126   -2.870033
 H    4.999788    1.729200   -1.687890
 H    3.716468    2.920737   -1.910634
 H    4.565448    1.595559    0.707099
 H    4.672916    3.300089    0.253877
 H    2.299485    1.822967    1.181231
 H    0.194905    4.637500    0.933303
 H    0.571523    3.251059    1.991446
 H    2.520140   -1.758187    4.054021
 H    2.307856   -0.114572    3.562148
 H   -0.394967   -4.227596    1.759587
 H   -1.551747   -0.304380   -1.766076
 H   -3.316743   -1.352977    0.488122
 H   -2.043807   -2.861423   -0.516226
 H   -5.239120   -1.112847   -0.930779
 H   -3.794230   -1.865895   -2.772477
 H   -4.428761    1.313329   -2.038583
 H   -4.809004    2.448778    0.102462
 H   -6.065662    1.229475   -0.187203
