106 
5dit_ligand_xtb.xyz
 C    4.454506    0.997874   -0.137159
 C    5.656082    1.299140   -1.029295
 C    6.910544    0.623527   -0.484864
 C    6.692250   -0.881083   -0.358839
 C    5.492272   -1.173584    0.539699
 C    4.238078   -0.507952   -0.032826
 C    2.938380   -0.915384    0.707583
 C    2.558653   -0.213498    2.030517
 C    3.530590   -0.503183    3.170526
 O    2.399255    1.198810    1.884095
 C    1.735682   -0.816193   -0.223118
 O    0.966843    0.142425   -0.169172
 N    1.528603   -1.817323   -1.108075
 C    2.340580   -3.020721   -1.223967
 C    2.326860   -3.543904   -2.658554
 C    0.898783   -3.834214   -3.100360
 C    0.100312   -2.539367   -3.026658
 C    0.170919   -1.937928   -1.623556
 C   -0.634529   -2.740592   -0.595800
 O   -0.132898   -3.372164    0.297738
 O   -1.944036   -2.598748   -0.765087
 C   -2.737390   -3.110114    0.316779
 C   -4.229981   -3.094051   -0.064522
 C   -4.593244   -2.099936   -1.170523
 C   -4.265757   -0.666444   -0.866506
 C   -3.568480    0.088003   -1.801956
 C   -4.685853   -0.058231    0.306873
 C   -4.406425    1.276241    0.534842
 C   -3.706482    2.031740   -0.393625
 O   -3.391245    3.341754   -0.073551
 C   -3.982351    4.327292   -0.908353
 C   -3.283458    1.429879   -1.591539
 O   -2.591435    2.217108   -2.472404
 C   -2.314013    1.705688   -3.756475
 C   -2.425139   -2.350384    1.591528
 C   -1.787986   -1.120489    1.565693
 C   -2.713573   -2.940297    2.816692
 C   -2.340375   -2.322255    3.995203
 C   -1.669060   -1.111827    3.970065
 C   -1.396690   -0.512189    2.750576
 O   -0.691341    0.685360    2.731048
 C   -1.436019    1.768709    2.214924
 C   -0.525746    2.965641    1.990871
 N    0.414007    2.850794    0.850257
 C    1.279343    4.053741    0.849891
 C    2.190576    4.096490   -0.377531
 O    1.442775    4.031559   -1.561966
 C    0.698768    2.839973   -1.607099
 C   -0.290156    2.744491   -0.446592
 H    3.555701    1.445434   -0.563078
 H    4.618818    1.427395    0.850944
 H    5.809727    2.378447   -1.089259
 H    5.459204    0.934834   -2.040421
 H    7.754853    0.821868   -1.146383
 H    7.150820    1.039150    0.496227
 H    7.583956   -1.352642    0.056741
 H    6.521246   -1.307589   -1.350096
 H    5.703719   -0.793331    1.537696
 H    5.344616   -2.253404    0.617938
 H    4.128838   -0.869630   -1.063492
 H    3.033877   -1.968592    0.988651
 H    1.574537   -0.628351    2.305471
 H    4.453085    0.056756    3.041684
 H    3.081573   -0.211963    4.119474
 H    3.762092   -1.562209    3.218923
 H    2.299036    1.536386    2.781950
 H    1.944821   -3.789116   -0.551480
 H    3.366657   -2.801937   -0.940757
 H    2.933095   -4.448541   -2.702651
 H    2.772099   -2.802436   -3.325559
 H    0.456636   -4.585065   -2.442747
 H    0.885528   -4.222710   -4.118869
 H   -0.947888   -2.708723   -3.276271
 H    0.512659   -1.820608   -3.738566
 H   -0.259743   -0.929970   -1.641337
 H   -2.425632   -4.149984    0.488141
 H   -4.515307   -4.087698   -0.412821
 H   -4.803714   -2.881757    0.837463
 H   -5.670767   -2.180702   -1.340284
 H   -4.089746   -2.396647   -2.090972
 H   -3.246571   -0.391622   -2.712671
 H   -5.244691   -0.614550    1.042103
 H   -4.733021    1.760455    1.442088
 H   -5.070322    4.223090   -0.921111
 H   -3.598939    4.267171   -1.928938
 H   -3.717401    5.287833   -0.470129
 H   -1.595801    0.880460   -3.713825
 H   -3.225125    1.372429   -4.260317
 H   -1.879314    2.533226   -4.315066
 H   -1.552722   -0.643703    0.625757
 H   -3.211075   -3.897823    2.843640
 H   -2.559323   -2.792430    4.941147
 H   -1.346762   -0.633966    4.881741
 H   -1.956217    1.489834    1.295310
 H   -2.199533    2.069169    2.948328
 H    0.062157    3.123766    2.897716
 H   -1.162744    3.835910    1.816139
 H    1.006630    1.979604    0.967608
 H    0.626346    4.930807    0.835114
 H    1.885639    4.066909    1.755588
 H    2.911988    3.271340   -0.329236
 H    2.731765    5.043668   -0.401568
 H    1.364778    1.966856   -1.583952
 H    0.149102    2.854705   -2.547832
 H   -1.033257    3.541274   -0.512431
 H   -0.784442    1.778152   -0.497642
