36 
5dj5_ligand_xtb.xyz
 C    2.808676   -1.272243    0.201873
 C    3.309556   -2.372040   -0.468875
 C    4.545709   -2.271459   -1.089115
 C    5.269805   -1.090895   -1.039495
 C    4.771983    0.013519   -0.364896
 C    3.541639   -0.092642    0.253453
 C    2.797156    0.977665    1.007687
 C    1.414146    0.344994    1.309074
 C    1.513516   -1.151785    0.946997
 C    1.310049    2.217539   -0.220068
 C    0.517192    1.135554    0.407650
 C   -0.782551    0.975499    0.155393
 C   -2.800270   -0.162586    0.469171
 C   -3.641983   -1.062199    0.981489
 C   -4.982913   -0.850679    0.353893
 C   -4.706317    0.327078   -0.569366
 C   -5.514455   -2.050881   -0.435873
 O    0.918883    3.066290   -0.971979
 O    2.581271    2.133559    0.200932
 O   -1.500413   -0.015543    0.748450
 O   -5.452042    0.888452   -1.308511
 O   -3.391611    0.680923   -0.445888
 H    2.745366   -3.291845   -0.512844
 H    4.947117   -3.122489   -1.619037
 H    6.228198   -1.029473   -1.532556
 H    5.323388    0.940170   -0.328727
 H    3.343431    1.309012    1.897222
 H    1.116627    0.477277    2.351805
 H    1.535257   -1.766907    1.848995
 H    0.664198   -1.475807    0.345502
 H   -1.297289    1.634146   -0.531567
 H   -3.406310   -1.816368    1.701799
 H   -5.739815   -0.552086    1.087521
 H   -5.755891   -2.865336    0.241494
 H   -6.409360   -1.760058   -0.979242
 H   -4.769249   -2.396335   -1.148367
