79 
5dlv_ligand_dft.xyz
 C    6.218189    1.115702   -1.712632
 C    5.869638    2.569843   -1.400586
 C    6.487508    2.989269   -0.076196
 C    6.046497    2.042823    1.037581
 C    6.360690    0.568287    0.726364
 C    5.912391   -0.342216    1.871401
 C    4.393453   -0.471401    1.985159
 C    3.754175   -0.910246    0.656870
 C    4.222207    0.005536   -0.511329
 C    5.772874    0.100134   -0.634121
 C    3.528384   -0.362260   -1.832987
 O    6.092314    4.325711    0.178177
 O   -5.004658   -1.294494    0.535385
 C   -4.376130   -0.313001    0.172790
 N   -4.930715    0.936441    0.198622
 C   -6.277035    1.151640    0.680108
 C   -7.311185    0.634497   -0.327935
 S   -8.967080    1.049327    0.198014
 O   -9.110064    2.487643    0.170565
 O   -9.323670    0.277961    1.375400
 O   -9.827700    0.444204   -1.042809
 C   -2.941339   -0.367986   -0.331687
 C   -2.430899   -1.801346   -0.457221
 C   -1.021659   -1.935741   -1.067473
 C   -1.019804   -1.463744   -2.527457
 C    0.046832   -1.249012   -0.197213
 C    1.542599   -1.364316   -0.608025
 C    1.889049   -2.822515   -0.954888
 C    2.221896   -0.892044    0.703698
 C    1.478604   -1.660948    1.801732
 C    0.029672   -1.758707    1.270928
 C    2.000349   -0.422214   -1.726989
 C    6.385167   -1.256497   -1.028549
 O    4.068042   -1.331113    3.067001
 H    5.816930    0.833121   -2.691171
 H    7.310895    1.033347   -1.807677
 H    4.783616    2.714808   -1.339595
 H    6.232463    3.229709   -2.195747
 H    7.586349    2.930468   -0.175486
 H    6.545595    2.315602    1.978497
 H    4.973881    2.202456    1.198892
 H    7.455374    0.489056    0.643073
 H    6.304151    0.022670    2.828005
 H    6.331667   -1.348373    1.728508
 H    3.961735    0.494785    2.273216
 H    4.090888   -1.942030    0.469197
 H    3.855982    1.010205   -0.252369
 H    3.906341   -1.323671   -2.201382
 H    3.786594    0.377725   -2.597534
 H    6.473039    4.589545    1.024419
 H   -4.399040    1.724431   -0.135968
 H   -6.411076    0.628847    1.631146
 H   -6.419947    2.221515    0.848192
 H   -7.246608   -0.451942   -0.410894
 H   -7.174268    1.093788   -1.310088
 H  -10.354108   -0.291821   -0.691041
 H   -2.890772    0.152557   -1.297127
 H   -2.317079    0.211495    0.361175
 H   -3.135230   -2.368097   -1.076448
 H   -2.465444   -2.270291    0.530401
 H   -0.805036   -3.013212   -1.068325
 H   -0.158110   -1.851732   -3.076854
 H   -1.920167   -1.811496   -3.047165
 H   -0.988339   -0.370200   -2.602704
 H   -0.174449   -0.170209   -0.190807
 H    1.529108   -3.522467   -0.193869
 H    2.965881   -2.981649   -1.059780
 H    1.429042   -3.109050   -1.906899
 H    1.937503    0.168456    0.816592
 H    1.914682   -2.657179    1.935502
 H    1.548031   -1.166421    2.771140
 H   -0.664735   -1.171833    1.881097
 H   -0.328815   -2.794113    1.309564
 H    1.591906   -0.717947   -2.698266
 H    1.614025    0.586258   -1.518448
 H    6.036974   -2.084883   -0.405381
 H    6.149781   -1.506091   -2.068405
 H    7.477484   -1.216732   -0.943209
 H    4.384758   -2.214244    2.837640
