44 
5doh_ligand_xtb.xyz
 F   -1.393364   -2.165351   -0.142314
 C   -1.259045   -0.825577   -0.036170
 C   -2.261044   -0.109436    0.600236
 S   -3.712121   -0.826148    1.318499
 C   -4.308359   -1.959972    0.009712
 C   -4.609536   -1.201131   -1.279030
 O   -5.635171   -0.262469   -1.127590
 C   -2.094704    1.274533    0.732761
 F   -3.039415    1.996902    1.354547
 C   -0.967019    1.889762    0.220032
 F   -0.795822    3.205458    0.391756
 C   -0.106989   -0.228180   -0.587565
 C    0.004811    1.162107   -0.442642
 S    1.439605    2.110983   -0.942533
 O    1.025123    3.246237   -1.697759
 N    2.006018    2.577115    0.551199
 O    2.425812    1.238995   -1.523277
 N    0.826337   -0.952789   -1.271370
 C    1.483704   -2.110251   -0.651215
 C    2.315888   -1.594114    0.496303
 C    1.898824   -1.200484    1.751776
 C    2.825136   -0.620443    2.606695
 C    4.135380   -0.431647    2.199082
 C    4.549487   -0.821520    0.932855
 C    3.630947   -1.402419    0.081827
 C    3.813755   -1.858545   -1.334201
 C    2.535976   -2.665431   -1.619155
 H   -5.226756   -2.369253    0.430153
 H   -3.590967   -2.759583   -0.150656
 H   -3.689129   -0.723527   -1.651897
 H   -4.958071   -1.909665   -2.035437
 H   -5.409298    0.333068   -0.399862
 H    2.946606    2.267585    0.727144
 H    1.872797    3.556483    0.741365
 H    1.539337   -0.338091   -1.661568
 H    0.737331   -2.852030   -0.367961
 H    0.875561   -1.343654    2.067827
 H    2.520669   -0.312203    3.595558
 H    4.843792    0.023970    2.875614
 H    5.570993   -0.667527    0.617828
 H    4.718234   -2.450786   -1.470945
 H    3.880628   -0.980952   -1.981825
 H    2.205882   -2.581613   -2.652283
 H    2.704185   -3.718552   -1.392009
