74 
5dp5_ligand_xtb.xyz
 C   -0.040023    0.883722   -0.343135
 C   -0.306633    1.478144    1.052438
 C   -0.618165    2.944094    0.944817
 C    0.407625    3.857430    0.728429
 C    0.134676    5.205197    0.589903
 C   -1.180788    5.628836    0.667146
 C   -2.220781    4.743749    0.883999
 O    3.433847    1.261112    0.047432
 N    5.478970    1.284274   -0.938437
 N   -3.235056   -2.417139   -0.969930
 N    1.658737   -0.762615    0.127457
 C   -2.164541   -0.316649   -0.759364
 O   -2.747636   -0.319543    0.314531
 O   -1.618698   -3.552449    0.783282
 C   -0.568307   -3.229713    1.313241
 O   -0.472073   -2.416641    2.338160
 C   -1.663212   -1.840193    2.894878
 C   -2.455616   -2.853224    3.705946
 C    0.754893   -3.847138    0.929894
 C    1.992832   -2.994101    1.214769
 C    2.374879   -2.028609    0.078714
 C    3.878909   -1.730772    0.148237
 C    4.406490   -0.773305   -0.929375
 C    5.895191   -0.982762   -1.242570
 C    6.399115    0.411164   -1.631699
 C    4.353858    0.702780   -0.533131
 C    0.404695   -0.561071   -0.218348
 O   -0.426365   -1.451457   -0.456683
 C   -1.299318    0.830257   -1.221621
 C   -2.656333   -1.344235   -1.805405
 C   -3.714798   -0.740180   -2.747127
 C   -4.978384   -0.320034   -1.997251
 C   -4.051637   -1.717085   -3.873132
 C   -1.928576    3.398167    1.021226
 F   -1.455371    6.938484    0.525471
 H    0.739965    1.476208   -0.827326
 H    0.586369    1.335870    1.663470
 H   -1.139902    0.948651    1.513530
 H    1.428588    3.508648    0.674531
 H    0.919629    5.926281    0.427398
 H   -3.233026    5.110125    0.945629
 H    5.653432    2.270116   -0.822038
 H   -2.481945   -2.944355   -0.445415
 H   -3.730461   -1.896620   -0.215740
 H   -3.847657   -3.048543   -1.484307
 H    2.246096    0.075463    0.270316
 H   -1.297689   -1.033120    3.532255
 H   -2.268254   -1.423392    2.085420
 H   -2.800673   -3.666539    3.072372
 H   -3.316422   -2.362030    4.149220
 H   -1.838948   -3.265056    4.500934
 H    0.704563   -4.137260   -0.120466
 H    0.813630   -4.768436    1.517824
 H    2.834713   -3.670145    1.366725
 H    1.846044   -2.428907    2.134684
 H    2.141171   -2.509544   -0.881935
 H    4.409625   -2.678245    0.043742
 H    4.108537   -1.324326    1.135524
 H    3.809406   -0.882255   -1.842232
 H    6.059640   -1.713554   -2.030302
 H    6.409309   -1.321405   -0.342504
 H    6.338028    0.576257   -2.713648
 H    7.425051    0.593891   -1.309522
 H   -1.018490    0.694840   -2.265904
 H   -1.858170    1.760575   -1.110371
 H   -1.816325   -1.731909   -2.382321
 H   -3.265930    0.151586   -3.193826
 H   -5.566291   -1.180862   -1.685397
 H   -4.737778    0.279685   -1.123346
 H   -5.605336    0.280792   -2.649727
 H   -3.156907   -2.013452   -4.414816
 H   -4.729154   -1.243172   -4.577490
 H   -4.545099   -2.612999   -3.500333
 H   -2.728453    2.694125    1.199866
