74 
5dp5_ligand_dft.xyz
 C   -0.037032    0.726591   -0.509417
 C   -0.119080    1.356774    0.901935
 C   -0.298141    2.852936    0.840548
 C    0.796574    3.675117    0.556097
 C    0.646639    5.052662    0.456624
 C   -0.614387    5.601905    0.644908
 C   -1.720935    4.817022    0.929403
 O    3.453497    1.013783    0.084605
 N    5.430088    0.975791   -1.066571
 N   -3.424835   -2.195254   -0.827786
 N    1.563483   -0.992584    0.072469
 C   -2.425933   -0.023712   -0.820862
 O   -2.919223    0.085514    0.288332
 O   -1.881634   -3.167156    1.156782
 C   -0.726500   -3.011211    1.530883
 O   -0.383623   -2.154370    2.476895
 C   -1.430961   -1.376295    3.099528
 C   -2.124081   -2.167476    4.191301
 C    0.426289   -3.849679    1.038244
 C    1.833996   -3.251358    1.137421
 C    2.236144   -2.284542    0.012059
 C    3.752501   -2.036536    0.051691
 C    4.292454   -1.055271   -1.000598
 C    5.760406   -1.299646   -1.388762
 C    6.268904    0.076302   -1.845091
 C    4.307428    0.420736   -0.575064
 C    0.360373   -0.747729   -0.452031
 O   -0.392461   -1.639934   -0.870524
 C   -1.334830    0.878075   -1.331362
 C   -2.984176   -1.106578   -1.750312
 C   -4.136331   -0.596319   -2.638450
 C   -5.368053   -0.151677   -1.842697
 C   -4.502946   -1.629411   -3.709818
 C   -1.551977    3.438469    1.024480
 F   -0.764642    6.928677    0.550115
 H    0.756184    1.258876   -1.049389
 H    0.805685    1.123585    1.439028
 H   -0.941584    0.897084    1.454908
 H    1.779242    3.228186    0.418772
 H    1.486902    5.704267    0.243727
 H   -2.687709    5.285193    1.077433
 H    5.601243    1.966255   -0.970513
 H   -2.615337   -2.647272   -0.341108
 H   -3.963102   -1.765431   -0.064812
 H   -3.987143   -2.909964   -1.291408
 H    2.153785   -0.184262    0.295607
 H   -0.906629   -0.509435    3.504114
 H   -2.128468   -1.046752    2.326938
 H   -2.649690   -3.029878    3.773735
 H   -2.854803   -1.528718    4.696511
 H   -1.402079   -2.515663    4.934943
 H    0.189288   -4.148004    0.014636
 H    0.387088   -4.762113    1.648787
 H    2.542992   -4.086845    1.109888
 H    1.965528   -2.756795    2.104696
 H    1.976493   -2.745400   -0.950948
 H    4.246797   -3.002856   -0.095673
 H    4.038005   -1.692516    1.054633
 H    3.663149   -1.105337   -1.902125
 H    5.874480   -2.065233   -2.158823
 H    6.320299   -1.620847   -0.503225
 H    6.116600    0.234223   -2.919793
 H    7.325770    0.234320   -1.619087
 H   -1.133681    0.662428   -2.384696
 H   -1.676466    1.915962   -1.251570
 H   -2.177460   -1.512041   -2.358170
 H   -3.725137    0.282255   -3.152835
 H   -5.873731   -1.002822   -1.368717
 H   -5.123162    0.576569   -1.064932
 H   -6.095773    0.307687   -2.516674
 H   -3.629540   -1.935961   -4.294100
 H   -5.239846   -1.210910   -4.400767
 H   -4.959939   -2.529465   -3.277225
 H   -2.408147    2.806264    1.247743
