61 
5dpa_ligand_dft.xyz
 N    3.008760    3.603522   -0.966128
 C   -1.151749    0.206201   -0.045594
 C   -2.027411    0.490342   -1.268628
 C   -3.473365    0.699781   -0.894931
 C   -4.002093    1.980080   -0.727533
 C   -5.328944    2.161788   -0.348291
 C   -6.149012    1.059286   -0.127100
 C   -5.633325   -0.223864   -0.289941
 C   -4.307509   -0.398187   -0.671655
 C   -1.076755   -3.309526   -1.736276
 C   -0.894969    1.246657    2.175730
 C   -0.753976    2.562933    2.904872
 O    2.053106   -3.828064   -0.627854
 C    1.319748   -3.645011    0.317222
 O    0.014070   -3.953699    0.329156
 C   -0.544278   -4.455412   -0.895372
 C    1.754846   -3.054109    1.639554
 C    2.827279   -1.973370    1.468950
 C    2.465870   -0.901841    0.428354
 C    3.405693    0.307698    0.527513
 C    3.257106    1.316251   -0.621863
 C    4.572254    1.904948   -1.154253
 C    4.148980    3.238435   -1.788156
 C    2.438795    2.566451   -0.296036
 O    1.446169    2.651979    0.412216
 N    1.069837   -0.533098    0.570079
 C    0.274568   -0.198861   -0.469089
 O    0.627812   -0.222829   -1.643915
 N   -1.130087    1.359136    0.840078
 O   -0.787257    0.159814    2.740244
 H    2.545529    4.498265   -1.012429
 H   -1.577519   -0.619384    0.534907
 H   -1.923447   -0.348988   -1.962139
 H   -1.627737    1.364782   -1.794930
 H   -3.366500    2.845512   -0.899710
 H   -5.723824    3.166351   -0.225678
 H   -7.185008    1.199074    0.166975
 H   -6.265830   -1.090832   -0.122254
 H   -3.910734   -1.403040   -0.801672
 H   -1.544969   -3.697807   -2.646713
 H   -0.272926   -2.625344   -2.022067
 H   -1.830437   -2.746750   -1.175094
 H   -0.775908    2.379641    3.979260
 H    0.204811    3.013931    2.627808
 H   -1.551521    3.259019    2.629333
 H    0.219198   -5.022091   -1.432418
 H   -1.344458   -5.129498   -0.581975
 H    0.873866   -2.668538    2.157726
 H    2.153591   -3.871072    2.253273
 H    3.773129   -2.432933    1.165974
 H    2.995627   -1.501712    2.445881
 H    2.563887   -1.341096   -0.568581
 H    3.248608    0.808730    1.491291
 H    4.435744   -0.072579    0.530687
 H    2.716180    0.834669   -1.448606
 H    5.076621    1.245244   -1.864024
 H    5.257104    2.097189   -0.319604
 H    4.931425    4.000826   -1.737858
 H    3.858088    3.109243   -2.839393
 H    0.678782   -0.429191    1.502188
 H   -0.832672    2.229837    0.418002
