30 
5dq8_ligand_dft.xyz
 C    3.211302   -0.363639    0.091740
 O    4.344589   -2.297365   -0.818353
 C    4.415122    0.284627    0.403429
 C    4.454459    1.621448    0.755838
 O    2.261978   -2.546751   -0.144524
 C    3.254448    2.331491    0.815216
 C    2.047072    1.715479    0.540991
 C    1.990215    0.356370    0.178314
 C    3.209856   -1.802779   -0.285654
 N    0.794403   -0.284196   -0.053882
 C   -0.449614    0.292376   -0.334910
 C   -1.599045   -0.349852    0.134458
 C   -2.855934    0.155776   -0.172710
 C   -2.993404    1.314244   -0.933201
 C   -1.849873    1.949704   -1.402589
 C   -0.587300    1.441794   -1.121626
 C   -4.082284   -0.513468    0.388482
 F   -3.883509   -1.821867    0.615803
 F   -4.449392    0.038373    1.559481
 F   -5.132896   -0.402641   -0.441807
 H    4.947217   -1.577379   -1.045269
 H    5.343097   -0.282693    0.413525
 H    5.396590    2.099534    0.999866
 H    3.257273    3.377561    1.107010
 H    1.124301    2.274457    0.643678
 H    0.847141   -1.297193   -0.014426
 H   -1.502054   -1.245448    0.739465
 H   -3.978428    1.703338   -1.164728
 H   -1.940944    2.841069   -2.015366
 H    0.294501    1.922837   -1.531520
