27 
5dqe_ligand_dft.xyz
 O    3.181124   -1.989429   -1.028107
 C    3.777245   -0.994042   -0.667025
 O    5.122981   -1.003025   -0.740020
 C    3.126740    0.231841   -0.132814
 C    3.840331    1.437882   -0.038959
 C    3.290298    2.578698    0.512190
 C    1.988517    2.513120    1.014034
 C    1.244568    1.354282    0.912785
 C    1.769597    0.199790    0.294982
 N    1.025876   -0.944235    0.156966
 C   -0.361935   -1.095039    0.321003
 C   -1.273236   -0.134352   -0.129793
 C   -2.632876   -0.361026    0.030839
Br   -3.855612    0.961082   -0.566435
 C   -3.120420   -1.532116    0.597445
 C   -2.205762   -2.495443    1.012422
 C   -0.839186   -2.280368    0.887813
 H    5.493842   -0.254588   -0.256319
 H    4.845763    1.504313   -0.448487
 H    3.860835    3.499449    0.558878
 H    1.545204    3.383162    1.489305
 H    0.241975    1.325307    1.322322
 H    1.528936   -1.722877   -0.259662
 H   -0.925718    0.768362   -0.618230
 H   -4.187371   -1.687026    0.707595
 H   -2.566060   -3.419810    1.452906
 H   -0.128239   -3.024263    1.233643
