27 
5dqe_ligand_xtb.xyz
 O    3.268310   -2.137508   -0.421895
 C    3.678866   -1.020425   -0.650635
 O    4.720644   -0.868491   -1.482798
 C    3.089194    0.205848   -0.073385
 C    3.838059    1.382637    0.021833
 C    3.308573    2.531658    0.566611
 C    2.008286    2.516901    1.057145
 C    1.251879    1.369984    0.992368
 C    1.759923    0.195435    0.419183
 N    1.027534   -0.956931    0.379348
 C   -0.344915   -1.114076    0.399647
 C   -1.224589   -0.121135   -0.034409
 C   -2.584722   -0.358931    0.004563
Br   -3.767838    1.019550   -0.582332
 C   -3.109948   -1.560455    0.444333
 C   -2.229545   -2.556994    0.835642
 C   -0.866549   -2.343555    0.813667
 H    4.932828    0.059745   -1.648232
 H    4.873103    1.396020   -0.296248
 H    3.905957    3.427216    0.630862
 H    1.594466    3.403933    1.512356
 H    0.266858    1.353370    1.430769
 H    1.581871   -1.798947    0.232774
 H   -0.850924    0.811019   -0.427525
 H   -4.176167   -1.718028    0.467987
 H   -2.618582   -3.508507    1.164322
 H   -0.186535   -3.124901    1.117279
