54 
5dqf_ligand_dft.xyz
 O    0.609492    1.288969    0.717455
 C    1.646279    1.754877    1.160549
 O    2.654721    1.052359    1.595676
 C    1.892695    3.255586    1.263237
 O    0.788374    3.989971    0.805628
 C    0.650575    4.079533   -0.596915
 C   -0.833431    3.974945   -0.907459
 N   -1.334664    2.599330   -0.609611
 C   -1.261881    1.693590   -1.808437
 C   -1.731367    0.299760   -1.427434
 C   -2.699743    2.581577    0.010195
 C   -3.103539    1.144214    0.310058
 N   -3.094917    0.396497   -0.932193
 C   -0.384668   -2.015793    1.278417
 C    0.867909   -1.964652    0.642017
 C    2.064322   -1.880931    1.437863
 C    3.342237   -1.835637    0.885983
 C    3.507518   -1.788860   -0.493240
Cl    5.115942   -1.672980   -1.197232
 C    2.377587   -1.828251   -1.312817
 C    1.109757   -1.921082   -0.772538
 C   -1.685571   -2.292959    0.757422
 C   -1.974887   -2.877283   -0.507998
 C   -3.278648   -3.083693   -0.942979
 C   -4.376520   -2.739915   -0.152397
 C   -4.123868   -2.216805    1.121542
 C   -2.828295   -2.004394    1.560289
 H    2.472205    0.070087    1.478057
 H    2.818815    3.506701    0.729290
 H    2.039736    3.513882    2.315167
 H    1.029310    5.044253   -0.958384
 H    1.209199    3.285098   -1.109555
 H   -1.047113    4.204305   -1.954290
 H   -1.377002    4.679700   -0.274534
 H   -0.667324    2.182592    0.085669
 H   -1.908095    2.129165   -2.576087
 H   -0.222440    1.688403   -2.145429
 H   -1.034050   -0.131785   -0.692858
 H   -1.709982   -0.329641   -2.320476
 H   -2.641726    3.188304    0.917458
 H   -3.388816    3.040157   -0.704965
 H   -4.111403    1.147839    0.733564
 H   -2.423078    0.721798    1.070056
 H   -3.463536   -0.538897   -0.769999
 H   -0.358404   -1.841545    2.353989
 H    1.966502   -1.967677    2.518609
 H    4.211412   -1.821379    1.538466
 H    2.499872   -1.785690   -2.391907
 H    0.273818   -1.935890   -1.461074
 H   -1.161723   -3.226705   -1.133856
 H   -3.439458   -3.539174   -1.917997
 H   -5.391498   -2.904479   -0.500231
 H   -4.954566   -1.969527    1.779720
 H   -2.664050   -1.593399    2.554950
