52 
5drq_ligand_dft.xyz
 C    1.232642   -0.856645   -1.212925
 C   -0.093609    0.446742    0.866053
 C   -2.253445   -0.171567   -0.112997
 C   -4.831050   -0.105035   -0.051356
 C   -8.121521    0.621312    1.093158
 C   -9.500480    0.680013    1.140545
 C  -10.276307    0.108656    0.115804
 C   -9.619347   -0.524057   -0.954891
 C    6.390974   -1.225722    0.557439
 C    7.781307   -1.167907    1.193943
 O    7.133644    1.247164   -0.667814
 C    6.078111    1.268245   -0.017169
 N    5.325563    2.360962    0.013622
 O    5.674569    3.451956   -0.743860
 C    5.601274    0.092209    0.860552
 N    4.153621    0.001924    0.853033
 C    3.438209   -0.286633   -0.284924
 O    4.031878   -0.570706   -1.331393
 C    1.968531   -0.232818   -0.197394
 C   -0.149722   -0.844200   -1.185781
 C   -0.835408   -0.194126   -0.143697
 C    1.288627    0.426320    0.837436
 C   -3.468390   -0.142952   -0.085322
 C   -6.046381   -0.065272   -0.020498
 C   -7.463736   -0.010238    0.023999
 N  -11.647656    0.207460    0.137453
 C   -8.239987   -0.581152   -0.998672
 N    6.568941   -1.331095   -0.940844
 C    5.622467   -2.455819    1.029639
 H    1.761640   -1.349719   -2.021192
 H   -0.618226    0.965865    1.660369
 H   -7.535114    1.066745    1.890379
 H   -9.992503    1.176014    1.972550
 H  -10.204249   -0.965797   -1.756804
 H    8.327572   -0.272725    0.888546
 H    7.685768   -1.166676    2.283267
 H    8.366839   -2.051915    0.920237
 H    4.399827    2.438707    0.404537
 H    6.534804    3.189768   -1.126375
 H    5.873889    0.351937    1.888885
 H    3.679434   -0.049496    1.741999
 H   -0.717595   -1.332534   -1.969810
 H    1.826750    0.964475    1.613851
 H  -12.089138    0.415654    1.019866
 H  -12.173545   -0.423669   -0.447352
 H   -7.746629   -1.071750   -1.831586
 H    7.144091   -0.524731   -1.242733
 H    5.623751   -1.211565   -1.375104
 H    7.001191   -2.214763   -1.215307
 H    4.676697   -2.583661    0.497368
 H    5.406733   -2.370837    2.098211
 H    6.227447   -3.357510    0.890236
