48 
5drr_ligand_dft.xyz
 C    0.626809   -1.526603   -1.246507
 C   -2.759764   -0.376844   -0.206152
 C   -5.327411   -0.118090   -0.097406
 C   -7.948576    0.168481    0.020312
 C  -10.744332    0.499313    0.166563
 C  -10.112226   -0.561175    0.833801
 C   -0.517252    0.241913    0.577683
 C    5.848626    1.162009    0.378664
 C    7.224117    1.397819   -0.264671
 O    6.878820   -1.650298   -0.397457
 C    5.778931   -1.361819   -0.012305
 N    5.107694   -2.374135    0.870820
 O    4.717817   -1.856782    1.887866
 C    5.127059   -0.015484   -0.322572
 N    3.718406    0.031011   -0.009900
 C    2.919378   -0.933936   -0.545312
 O    3.422648   -1.912332   -1.092191
 C    1.443932   -0.759068   -0.414009
 C   -0.751671   -1.402856   -1.182956
 C   -1.340025   -0.512276   -0.271870
 C   -3.966330   -0.257717   -0.155598
 C   -6.533739    0.009423   -0.045470
 C   -8.583328    1.225580   -0.649149
 C   -9.955522    1.389232   -0.578516
 N  -12.123306    0.634113    0.200004
 C   -8.739805   -0.722454    0.760921
 C    0.861880    0.117490    0.505662
 O    5.029522    2.284979    0.101493
 F    7.708593    2.573255    0.249563
 F    7.108330    1.566757   -1.601621
 C    6.008151    0.969336    1.885867
 H    1.092949   -2.218323   -1.939873
 H  -10.708935   -1.263393    1.410045
 H   -0.970377    0.917338    1.295367
 H    7.948410    0.606426   -0.066092
 H    5.273629    0.105038   -1.403122
 H    3.355367    0.956706    0.171552
 H   -1.387066   -1.993715   -1.833898
 H   -7.985210    1.922058   -1.228017
 H  -10.429255    2.212395   -1.106974
 H  -12.483841    1.555338   -0.001042
 H  -12.592390    0.195529    0.978852
 H   -8.264525   -1.546728    1.283083
 H    1.476915    0.687180    1.196022
 H    5.514643    3.074149    0.377476
 H    6.435414    1.872915    2.329311
 H    6.672181    0.131422    2.119604
 H    5.036360    0.770452    2.340182
