44 
5drt_ligand_xtb.xyz
 C   -3.242260   -1.793175    0.742412
 C   -3.420614   -1.157517   -0.637199
 O   -4.016590   -1.635836    1.650700
 C   -0.382980    1.565385    0.165995
 C    0.033510    2.260590    1.292849
 C    1.346308    2.688836    1.400816
 C    2.258546    2.439273    0.393365
 C    1.865793    1.727875   -0.728359
 C    0.562305    1.289447   -0.827056
 C    0.043172   -1.865782    0.489208
 C    2.388933   -1.419178   -0.152202
 C    3.264280   -1.444246   -1.235556
 C    4.517654   -0.873366   -1.138480
 C    4.902663   -0.275028    0.051260
 C    4.045205   -0.254992    1.139126
 C    2.791469   -0.827282    1.040500
 N   -4.231615    0.012647   -0.517674
 N   -5.465147    0.120731   -1.009830
 N   -5.911148    1.257696   -0.680694
 N   -5.021988    1.942112    0.025913
 C   -3.968079    1.169582    0.139810
 C   -2.684516    1.483918    0.816709
 O   -1.645031    1.127712   -0.075928
Cl    0.059415    0.371526   -2.201690
 N   -2.168583   -2.629168    0.853819
 N   -1.072930   -2.555736    0.003117
 O   -0.030356   -1.211443    1.500974
 N    1.136632   -2.024837   -0.308316
Cl    6.463860    0.455639    0.174466
 H   -3.948893   -1.858870   -1.289125
 H   -2.450019   -0.901157   -1.069342
 H   -0.660075    2.462732    2.092545
 H    1.650577    3.227734    2.284737
 H    3.276158    2.785615    0.474989
 H    2.565936    1.509643   -1.518936
 H    2.958084   -1.905123   -2.163557
 H    5.191137   -0.889188   -1.980628
 H    4.354863    0.208245    2.062028
 H    2.118798   -0.799619    1.880167
 H   -2.600206    0.911934    1.752369
 H   -2.673596    2.556027    1.041969
 H   -1.981057   -2.940483    1.805821
 H   -0.937454   -3.366234   -0.589408
 H    0.990996   -2.456700   -1.210320
