59 
5dsx_ligand_dft.xyz
 C   -3.668181   -2.335053   -0.547563
 C   -3.669652    0.151606   -0.992282
 C    0.166567    1.719051    0.577157
 C    1.242801    1.210261   -0.139350
 C    2.291794    0.562370    0.514263
 C    2.167715    0.418126    1.899616
 C    0.176160    1.519673    1.962866
 C   -3.993753   -4.546668   -0.255221
 C   -2.726768   -4.702351    0.268217
 C   -1.945984   -3.529527    0.345385
 C    0.222280    4.654489    0.037150
 C    3.474758    0.060240   -0.225117
 C    3.883442   -1.313329    0.054021
 C    5.607127   -1.035394   -1.624550
 C    5.262573    0.257630   -1.842756
 C    4.172287    0.832860   -1.126973
 N   -4.198106   -1.146276   -0.978855
 C   -2.431903    0.486176   -0.453460
 C   -2.047775    1.821320   -0.535457
 C   -2.827511    2.836191   -1.118489
 C   -4.070675    2.471645   -1.653602
 C   -4.475786    1.153001   -1.589005
 C   -2.081939    4.059002   -0.995332
 C   -0.909385    3.769353   -0.363079
 N   -0.875170    2.402312   -0.083714
 N    1.136990    0.885437    2.603737
Cl   -1.138336    2.139090    2.924410
 N   -4.498964   -3.382768   -0.674890
 N   -2.426537   -2.349476   -0.061195
 N    4.946233   -1.801982   -0.716310
 O    3.377216   -2.052795    0.895602
 C    5.334885   -3.184186   -0.462428
 C    3.859956    2.283725   -1.397192
 N   -0.676041   -3.532744    0.816128
 C    0.108026   -2.322657    0.961248
 H    1.240750    1.326187   -1.218556
 H    2.932505   -0.100912    2.466972
 H   -4.654410   -5.406950   -0.348054
 H   -2.354927   -5.666572    0.595354
 H    0.006471    5.684114   -0.256891
 H    0.382350    4.636072    1.121875
 H    1.163779    4.355010   -0.440235
 H    6.424329   -1.518122   -2.148515
 H    5.819699    0.847178   -2.560988
 H   -5.136061   -1.256337   -1.335025
 H   -1.809755   -0.265199    0.008946
 H   -4.714755    3.214216   -2.115738
 H   -5.439657    0.870465   -2.005723
 H   -2.382750    5.042059   -1.331198
 H    5.672140   -3.293727    0.570454
 H    4.475383   -3.840636   -0.610263
 H    6.136856   -3.459818   -1.148491
 H    3.206054    2.388993   -2.270738
 H    3.366778    2.764447   -0.549623
 H    4.781702    2.830881   -1.615947
 H   -0.326195   -4.385853    1.218527
 H    0.151637   -1.784941    0.009405
 H   -0.319918   -1.647399    1.712864
 H    1.126798   -2.582184    1.249103
