59 
5dsx_ligand_xtb.xyz
 C   -4.092426   -1.746966   -0.518684
 C   -3.765046    0.712101   -0.819285
 C    0.354881    1.520532    0.569646
 C    1.557167    1.178987   -0.038080
 C    2.431904    0.295090    0.588437
 C    2.041914   -0.222887    1.822088
 C    0.091375    0.940888    1.819389
 C   -4.749191   -3.905621   -0.370279
 C   -3.478305   -4.297050   -0.019940
 C   -2.510751   -3.275893    0.061144
 C    0.936377    4.386270   -0.064931
 C    3.692840   -0.125377   -0.043417
 C    3.857745   -1.559438   -0.194888
 C    5.970064   -1.083819   -1.246072
 C    5.822054    0.253016   -1.080537
 C    4.651421    0.758214   -0.462998
 N   -4.484320   -0.473592   -0.797677
 C   -2.469964    0.800903   -0.332046
 C   -1.839309    2.031072   -0.410833
 C   -2.451333    3.169120   -0.979030
 C   -3.760654    3.062164   -1.446191
 C   -4.399661    1.848401   -1.357570
 C   -1.485654    4.215089   -0.931384
 C   -0.351475    3.707907   -0.374201
 N   -0.557324    2.377917   -0.048623
 N    0.908917    0.101833    2.414688
Cl   -1.353686    1.332750    2.666237
 N   -5.077233   -2.645792   -0.625571
 N   -2.832821   -2.005435   -0.184964
 N    5.033935   -1.961871   -0.828628
 O    3.048499   -2.398156    0.174299
 C    5.249713   -3.378359   -1.027297
 C    4.535783    2.238919   -0.277685
 N   -1.220961   -3.552173    0.347862
 C   -0.236765   -2.522952    0.570258
 H    1.787412    1.578422   -1.014599
 H    2.666943   -0.919427    2.360048
 H   -5.557650   -4.621428   -0.456353
 H   -3.226225   -5.325058    0.182317
 H    1.718714    4.097483   -0.768003
 H    0.803361    5.462764   -0.129064
 H    1.272712    4.131700    0.940192
 H    6.844812   -1.511729   -1.714005
 H    6.589632    0.930789   -1.414438
 H   -5.453009   -0.420038   -1.082001
 H   -1.993339   -0.068531    0.082490
 H   -4.259879    3.916967   -1.877521
 H   -5.413977    1.749890   -1.718621
 H   -1.625303    5.223546   -1.268041
 H    6.108933   -3.719551   -0.448244
 H    4.354468   -3.895944   -0.684097
 H    5.415977   -3.592641   -2.083210
 H    4.263716    2.712689   -1.220962
 H    3.787170    2.490757    0.467814
 H    5.495894    2.648875    0.029934
 H   -1.011638   -4.476439    0.688268
 H    0.763831   -2.921607    0.418032
 H   -0.411926   -1.721712   -0.145051
 H   -0.303553   -2.109352    1.581401
