33 
5dtk_ligand_xtb.xyz
 C   -0.063618    3.575306   -0.196373
 C   -2.494714   -0.725033    0.029417
 C   -1.218337    0.004051   -0.012305
 C   -1.200776    1.392329   -0.077767
 C    0.004686    2.084318   -0.125139
 C    1.205846    1.385468   -0.072825
 C    4.700561   -1.043799    0.887190
 N   -4.915281   -2.105304    0.114017
 C   -0.009073   -0.684224    0.019560
 C    1.204196   -0.004313    0.004525
 C    2.473751   -0.745005    0.068817
 O   -1.015110    4.198041    0.185375
 O    1.002516    4.202076   -0.724262
 C    3.527738   -0.306995    0.868617
 N    4.881891   -2.145270    0.179854
 C    3.884431   -2.563503   -0.579712
 C    2.666900   -1.909862   -0.671562
 C   -3.569771   -0.251312    0.779391
 C   -4.747989   -0.979581    0.786431
 C   -3.898909   -2.554745   -0.601143
 C   -2.674207   -1.912477   -0.677804
 H   -2.118921    1.958375   -0.114998
 H    2.157122    1.902177   -0.073434
 H    5.539158   -0.737757    1.498761
 H   -0.010566   -1.761010    0.105488
 H    1.677274    3.587648   -1.041963
 H    3.426160    0.576114    1.481050
 H    4.073892   -3.467745   -1.143148
 H    1.890318   -2.285003   -1.320477
 H   -3.480267    0.654815    1.358138
 H   -5.603358   -0.646673    1.359523
 H   -4.077743   -3.476645   -1.139103
 H   -1.882868   -2.314959   -1.291739
