21 
5dtt_ligand_dft.xyz
 C    0.295073    0.426595   -0.011267
 C    0.081254    1.808762   -0.007757
 C   -1.208793    2.322270    0.035218
 C   -2.301692    1.463314    0.053989
 C   -2.099574    0.080365    0.037423
 C   -0.805410   -0.432199    0.021987
 C   -3.236149   -0.900098    0.076913
 C    4.037161   -0.628607   -0.028449
 O   -4.412753   -0.474301   -0.435279
 O   -3.137710   -2.008111    0.532445
 C    1.647188   -0.157027   -0.047316
 S    3.097622    0.805157    0.125628
 C    3.215179   -1.700933   -0.189953
 N    1.873331   -1.430215   -0.199970
 H    0.923648    2.494601   -0.037799
 H   -1.362044    3.396296    0.057306
 H   -3.302997    1.881297    0.124692
 H   -0.651910   -1.505567    0.034411
 H    5.116667   -0.605290    0.009291
 H   -4.287886    0.357057   -0.911303
 H    3.547537   -2.724759   -0.308919
