59 
5dus_ligand_dft.xyz
 N   -0.158558    3.498375    2.239644
 C    1.122213    3.195054    2.455135
 N    1.994636    2.640371    1.614773
 C    1.453264    2.426784    0.405335
 C    0.157348    2.748725    0.016533
 C   -0.682911    3.256326    1.026291
 N   -1.994365    3.510078    0.828540
 N   -0.064323    2.387639   -1.298213
 C    1.063783    1.842492   -1.671055
 N    2.026109    1.834236   -0.690959
 C    3.304325    1.134935   -0.738363
 C    3.619218    0.364680    0.559703
 O    4.338580    1.104954    1.499663
 C    4.496100   -0.765181    0.017217
 O    5.816130   -0.305109   -0.148978
 O    3.213494    0.170141   -1.753303
 C    3.899514   -1.028050   -1.368704
 C    2.941730   -2.200921   -1.462694
 O    1.945268   -2.154761   -0.426949
 P    0.469732   -1.649372   -0.692970
 O    0.331185   -0.429673    0.295517
 O    0.101516   -1.432934   -2.110899
 O   -0.464076   -2.809722   -0.050599
 P   -0.999598   -2.952127    1.485815
 O   -1.950102   -4.230654    1.312496
 O    0.037210   -3.038942    2.514345
 O   -2.022385   -1.751153    1.651205
 C   -3.165209   -1.574699    0.798800
 O   -2.153403    0.332783   -0.295098
 O   -2.581236   -0.794526   -2.305052
 C   -2.520903    0.435509   -1.681870
 O   -3.934238    2.353721   -1.190972
 C   -3.935212    0.990899   -1.598457
 O   -5.568815    0.850708    0.238018
 C   -4.531413    0.191201   -0.425867
 C   -3.288273   -0.101033    0.459928
 H    1.496300    3.412220    3.452155
 H   -2.525713    3.736518    1.655966
 H   -2.484871    3.048363    0.069667
 H    1.253289    1.393451   -2.634385
 H    4.105201    1.853263   -0.951293
 H    2.688785   -0.043003    0.970701
 H    3.712196    1.778908    1.837934
 H    4.457471   -1.654041    0.660777
 H    5.976808    0.295764    0.595986
 H    4.715662   -1.206272   -2.078389
 H    2.456151   -2.207633   -2.441675
 H    3.481768   -3.138853   -1.314214
 H   -0.555202    0.006837    0.183314
 H   -1.536799   -5.016565    1.694926
 H   -3.055493   -2.148602   -0.125891
 H   -4.050243   -1.917882    1.342257
 H   -1.661148   -1.115910   -2.414885
 H   -1.785187    1.118885   -2.112102
 H   -3.723232    2.909143   -1.951101
 H   -4.491445    0.857263   -2.529632
 H   -5.363249    1.796245    0.192714
 H   -4.940856   -0.746306   -0.813811
 H   -3.321163    0.496816    1.375029
