94 
5dv4_ligand_xtb.xyz
 C   -3.697998   -0.520082   -0.251666
 O   -3.527002    0.850568   -0.002251
 C   -3.355478   -1.247744    1.059629
 N   -1.910174   -1.151688    1.371692
 C   -3.805105   -2.716135    1.064775
 O   -3.455033   -3.182624    2.330318
 C   -5.331399   -2.731956    0.770925
 O   -5.834312   -4.037150    0.650416
 C   -5.572253   -2.037652   -0.591225
 O   -5.062465   -0.697003   -0.606463
 C   -7.082971   -1.959639   -0.910644
 C   -3.001188    4.425108    0.194550
 N   -3.287870    5.481812    1.202423
 C   -2.077764    3.375356    0.847372
 C   -1.617662    2.356043   -0.228877
 O   -0.779042    1.403812    0.412322
 C   -2.840446    1.680549   -0.930618
 C   -3.820047    2.759202   -1.471212
 N   -5.030707    2.074303   -2.018530
 C   -4.246973    3.748710   -0.375496
 C    0.358074    0.938569   -0.291704
 C    1.569198    0.691356    0.646471
 C    2.268223   -0.560432    0.007825
 C    1.214482   -1.098672   -0.992610
 O    0.036521   -0.298558   -0.860880
 C    0.815077   -2.561660   -0.790232
 C    7.538897   -0.059499    0.249109
 C    6.714640    1.259633    0.364182
 C    5.428070    1.129981   -0.491254
 C    4.648173   -0.115732    0.000544
 O    3.450342   -0.232336   -0.715051
 C    6.618175   -1.246509    0.617863
 O    5.450241   -1.265744   -0.206025
 C    7.321831   -2.608923    0.591098
 N   -7.668704   -3.303064   -1.130495
 O    2.361314    1.835444    0.673539
 O    6.283258    1.465024    1.674842
 O    8.044907   -0.232277   -1.075158
 O    0.110488   -2.696245    0.442653
 O   -1.019716    4.111497    1.373728
 N    7.902777   -2.965611   -0.730618
 N    5.762491    0.960573   -1.930687
 H   -3.041063   -0.868536   -1.069556
 H   -3.902495   -0.736749    1.862298
 H   -1.562938   -0.181732    1.232045
 H   -1.795847   -1.446029    2.352013
 H   -1.266410   -1.790924    0.810961
 H   -3.295751   -3.286204    0.270310
 H   -3.641133   -4.122979    2.452365
 H   -5.846893   -2.180902    1.569892
 H   -5.885996   -4.484393    1.508088
 H   -5.063387   -2.626167   -1.369667
 H   -7.235163   -1.343067   -1.798653
 H   -7.595732   -1.484068   -0.070933
 H   -2.433198    4.914996   -0.605259
 H   -3.947472    5.189185    1.938610
 H   -2.379353    5.703147    1.659387
 H   -3.648301    6.353603    0.783539
 H   -2.615125    2.821967    1.633437
 H   -1.040991    2.896706   -0.990171
 H   -2.455456    1.072354   -1.759259
 H   -3.333498    3.305828   -2.285160
 H   -5.302445    1.291148   -1.388957
 H   -4.865558    1.696913   -2.963159
 H   -5.824260    2.730168   -2.096574
 H   -4.774104    3.212596    0.416707
 H   -4.912426    4.501665   -0.802879
 H    0.661035    1.672815   -1.054218
 H    1.188924    0.422915    1.638917
 H    2.496359   -1.303574    0.776996
 H    1.623644   -0.981043   -2.003436
 H    1.716111   -3.176810   -0.796430
 H    0.170044   -2.871110   -1.619583
 H    8.356078   -0.024757    0.976988
 H    7.316833    2.099326   -0.008629
 H    4.796273    2.010474   -0.345019
 H    4.467493    0.015114    1.079705
 H    6.311919   -1.076241    1.661967
 H    8.123651   -2.582259    1.332688
 H    6.610821   -3.381828    0.888398
 H   -7.251888   -3.957305   -0.422689
 H   -7.472676   -3.680414   -2.068175
 H   -8.694212   -3.290300   -1.021405
 H    2.811175    1.939343    1.521652
 H    6.926277    1.967321    2.195311
 H    8.861831    0.276579   -1.192071
 H    0.164659   -3.619182    0.724825
 H   -0.343160    3.554515    1.775535
 H    7.181399   -3.300772   -1.381195
 H    8.605267   -3.713849   -0.628787
 H    8.352691   -2.124802   -1.143779
 H    5.963658    1.857903   -2.390961
 H    6.620216    0.355339   -1.987514
 H    4.976547    0.505295   -2.413753
