26 
5dw2_ligand_xtb.xyz
 C    0.064827   -1.396734   -0.076762
 C   -2.322695   -0.585980   -0.114641
 C    1.436252   -1.131280   -0.055765
 C    1.888689    0.174459    0.006688
 C   -0.381520    0.979383    0.027014
 C   -0.945693    3.286548    0.088280
 O   -3.038711   -0.187376   -1.004153
 C   -0.849116   -0.342378   -0.037584
 O   -1.339407    1.936634    0.105139
 C    0.979322    1.232485    0.051776
 O    3.200649    0.541299    0.029767
 C    4.181191   -0.465630   -0.011230
 N   -2.795705   -1.368238    0.896348
 N   -0.366341   -2.711487   -0.084153
 H    2.119261   -1.964844   -0.093737
 H   -0.350263    3.542351    0.971273
 H   -0.378181    3.528167   -0.815379
 H   -1.870726    3.860797    0.097635
 H    1.379358    2.230122    0.103380
 H    4.104771   -1.136857    0.850419
 H    4.118766   -1.050801   -0.934547
 H    5.138250    0.052883    0.020777
 H   -3.791027   -1.503309    0.971655
 H   -2.218582   -1.592432    1.687256
 H    0.300960   -3.378743   -0.438563
 H   -1.306064   -2.858961   -0.418211
