45 
5dx4_ligand_dft.xyz
 C   -4.237178    1.127546   -0.464578
 C   -4.264010   -0.198403   -1.221000
 N   -3.166644   -1.065392   -0.838620
 C   -3.245182   -1.955546    0.240925
 O   -4.251613   -2.199920    0.872277
 C   -1.851925   -2.476500    0.426976
 C   -1.273823   -3.357150    1.304979
 C    0.124817   -3.559343    1.193606
 C    0.902372   -2.896738    0.259249
 C    0.317881   -1.976645   -0.649370
 C   -1.059851   -1.824877   -0.521569
 C   -1.853544   -0.953091   -1.297092
 C   -1.257856   -0.222458   -2.288275
 C    0.149702   -0.360713   -2.457303
 C    0.935141   -1.166961   -1.660460
 N    2.351619   -1.064696   -1.751205
 S    3.030274    0.413807   -1.277688
 O    2.717248    1.394144   -2.301115
 O    4.402907    0.121011   -0.918728
 C    2.039248    0.857225    0.147707
 C    1.081213    1.846926   -0.029331
 C    0.167568    2.103839    0.982086
Br   -1.170571    3.415305    0.716166
 C    0.213313    1.386577    2.168760
 C    1.174529    0.398247    2.349651
 C    2.089825    0.109609    1.335539
 O    3.006140   -0.875862    1.399802
 C    3.120026   -1.612779    2.601465
 H   -4.394195    0.951712    0.603777
 H   -3.276134    1.637958   -0.585061
 H   -5.030291    1.790133   -0.825241
 H   -4.209977   -0.040963   -2.303314
 H   -5.186562   -0.744383   -1.009627
 H   -1.856164   -3.880095    2.056643
 H    0.605931   -4.262593    1.867255
 H    1.971195   -3.087206    0.241743
 H   -1.809645    0.459397   -2.926394
 H    0.644094    0.239018   -3.213342
 H    2.875506   -1.813715   -1.311675
 H    1.048621    2.386994   -0.967835
 H   -0.507859    1.586452    2.953542
 H    1.183742   -0.159945    3.277535
 H    3.367238   -0.957180    3.443984
 H    2.196488   -2.164367    2.815411
 H    3.937735   -2.314774    2.438893
