50 
5dxu_ligand_xtb.xyz
 C    4.944895   -1.963938    0.678984
 C    5.099510   -1.112564   -0.591298
 C    6.586001   -1.006107   -0.927493
 C    3.265091    0.403613   -0.340850
 C    0.028621    3.946245   -0.555488
 C   -2.885690    2.061089    0.465764
 C   -2.982665    0.719394    0.176937
 C   -0.900366    1.230017    0.034790
 C    0.531839    1.066209   -0.132628
 C    2.308019   -0.606772   -0.259994
 C   -6.184327   -0.668669    0.296683
 C   -3.216433   -2.309317   -0.478143
 N    5.016261   -1.245846    1.815495
 O    4.816713   -3.165850    0.643028
 O    4.610939    0.208057   -0.421462
 C    2.845219    1.725661   -0.337491
 C    1.502028    2.074444   -0.245490
 O    1.300810    3.427690   -0.274864
 C   -0.983336    3.670256    0.561972
 N   -1.564061    2.373708    0.379234
 N   -1.742444    0.223718   -0.083583
 C    0.980956   -0.261446   -0.159641
 C   -4.184170   -0.066260    0.153329
 N   -5.392261    0.404062    0.438727
 N   -5.549102   -1.762716   -0.055463
 N   -4.273637   -1.378560   -0.154881
 C   -2.688878   -2.934968    0.813165
 C   -3.744547   -3.364818   -1.441064
 H    4.572760   -1.616766   -1.412273
 H    6.716042   -0.436904   -1.843994
 H    7.113762   -0.499485   -0.123365
 H    7.000291   -2.001468   -1.058054
 H   -0.356866    3.546725   -1.503439
 H    0.188862    5.022137   -0.658800
 H   -3.640258    2.775405    0.716536
 H    2.586082   -1.648001   -0.257996
 H   -7.243026   -0.639116    0.454424
 H   -2.417239   -1.723001   -0.943140
 H    5.083298   -0.242921    1.781695
 H    4.921875   -1.708218    2.703665
 H    3.573867    2.515621   -0.419075
 H   -0.464813    3.727083    1.526801
 H   -1.782663    4.413967    0.546258
 H    0.228729   -1.029915   -0.084606
 H   -1.891368   -3.637375    0.587716
 H   -3.489458   -3.462108    1.327291
 H   -2.296267   -2.159765    1.467149
 H   -4.564483   -3.908506   -0.980132
 H   -2.950100   -4.060577   -1.696528
 H   -4.110626   -2.898977   -2.352711
