66 
5dy5_ligand_xtb.xyz
 C   -5.409787   -2.091810   -2.114047
 C   -6.664670   -1.538929    0.362656
 C   -7.877824   -0.976780    2.186991
 C   -2.456582    2.809221   -0.830565
 C    0.860676    2.368532   -0.457081
 C    2.420490    1.491710    1.681277
 C    4.660126   -0.596825    1.616816
 C    8.492670   -0.268048   -0.197347
 C    1.312904    1.062162   -0.409272
 O   -3.102103   -1.565744   -2.591031
 C   -4.156639   -1.232844   -2.095277
 S   -5.851971   -2.829963   -0.493849
 N   -7.277283   -1.916998    1.472370
 C   -8.577059   -1.411844    3.429652
 C   -7.845630    0.362141    1.788520
 C   -7.173229    0.669573    0.615935
 C   -7.006800    2.054107    0.092217
 N   -6.604501   -0.300916   -0.104254
 N   -4.361136   -0.030939   -1.504544
 C   -3.387076    0.916252   -1.380058
 S   -1.789665    0.660583   -2.026640
 C   -1.382021    2.253722   -1.448500
 N   -3.583728    2.053304   -0.798596
 C   -0.010426    2.819426   -1.605029
 C    2.091931    0.612198    0.655403
 C    1.962592    2.797558    1.629398
 C    1.186892    3.239624    0.574844
 O    2.472755   -0.695840    0.589614
 C    3.300809   -1.212649    1.609393
 N    5.343663   -0.337867    2.752460
 N    6.469777    0.191987    2.455097
 N    6.556544    0.308278    1.138580
 C    5.440312   -0.182251    0.557124
 C    7.732939    0.834852    0.498791
 C    8.971163   -1.340023    0.546570
 C    9.647883   -2.372769   -0.075732
 C    9.853893   -2.341818   -1.445387
 C    9.378462   -1.276898   -2.190357
 C    8.695671   -0.244838   -1.569067
 H   -5.244403   -2.949819   -2.764101
 H   -6.267741   -1.513356   -2.453759
 H   -2.485177    3.785610   -0.381509
 H    3.026379    1.178510    2.516423
 H    1.065000    0.362169   -1.192831
 H   -8.416040   -2.474204    3.584325
 H   -8.202429   -0.854800    4.286258
 H   -9.644908   -1.217420    3.341729
 H   -8.315002    1.129178    2.382238
 H   -7.480128    2.140408   -0.884693
 H   -7.446646    2.780275    0.769042
 H   -5.944484    2.269045   -0.040679
 H   -5.269937    0.118000   -1.021766
 H    0.416815    2.475316   -2.548976
 H   -0.070833    3.909370   -1.619506
 H    2.219973    3.476122    2.429419
 H    0.837369    4.261138    0.549735
 H    2.844710   -1.096791    2.600606
 H    3.376023   -2.282507    1.385499
 H    5.284042   -0.193739   -0.500021
 H    7.440536    1.611885   -0.213693
 H    8.341006    1.279857    1.291527
 H    8.805830   -1.359955    1.614284
 H   10.016092   -3.202638    0.508600
 H   10.383363   -3.147668   -1.931204
 H    9.534977   -1.249764   -3.258467
 H    8.323205    0.584086   -2.154320
