28 
5dya_ligand_xtb.xyz
 O    3.296311    1.964924   -0.481229
 C    2.438354    1.110742   -0.446423
 N    1.128927    1.414204   -0.295643
 C    0.077283    0.497247   -0.283906
 C   -1.215253    0.888455   -0.018573
 C   -2.254169   -0.046528   -0.042104
 C   -3.617423    0.422217    0.236934
 O   -4.549617   -0.547123    0.157743
 O   -3.913409    1.561452    0.511994
 C   -1.971410   -1.379218   -0.336291
 C   -0.676457   -1.773454   -0.596719
 C    0.369233   -0.849356   -0.573471
 N    1.650042   -1.190444   -0.891279
 C    2.783878   -0.374979   -0.524505
 C    3.422273   -0.808153    0.814202
 C    2.467107   -0.686010    1.995033
 H    0.896506    2.394883   -0.199321
 H   -1.448752    1.918684    0.203386
 H   -5.420802   -0.166700    0.347586
 H   -2.773196   -2.099363   -0.355692
 H   -0.456691   -2.805754   -0.826693
 H    1.843412   -2.175795   -0.993608
 H    3.548170   -0.478459   -1.307276
 H    3.757902   -1.844017    0.717985
 H    4.299056   -0.181459    0.981598
 H    2.172839    0.349808    2.146980
 H    1.568966   -1.280643    1.838404
 H    2.953043   -1.037302    2.901974
