28 
5dya_ligand_dft.xyz
 O    3.064634    2.059470   -0.175106
 C    2.216500    1.189396   -0.223015
 N    0.904605    1.433483    0.076154
 C   -0.131511    0.490768   -0.001917
 C   -1.462154    0.859330    0.053418
 C   -2.464549   -0.115112    0.025985
 C   -3.868707    0.343146    0.094659
 O   -4.761037   -0.668989    0.060945
 O   -4.218143    1.500916    0.173569
 C   -2.115910   -1.463207   -0.063866
 C   -0.780079   -1.832842   -0.133306
 C    0.228131   -0.866775   -0.100951
 N    1.574221   -1.175498   -0.105200
 C    2.524434   -0.235851   -0.689123
 C    3.961257   -0.632319   -0.346181
 C    4.242694   -0.711295    1.152456
 H    0.682451    2.392771    0.306256
 H   -1.747596    1.904500    0.128413
 H   -5.634646   -0.251003    0.111473
 H   -2.889822   -2.221410   -0.086801
 H   -0.507874   -2.882222   -0.207601
 H    1.788083   -2.143836   -0.303308
 H    2.425270   -0.208445   -1.789956
 H    4.169431   -1.599126   -0.823820
 H    4.621279    0.102955   -0.814085
 H    4.107572    0.267993    1.620749
 H    3.575050   -1.422176    1.648315
 H    5.274749   -1.028500    1.329472
