66 
5e0h_ligand_xtb.xyz
 C    4.539232    2.340800   -1.443395
 O    5.366916    2.244760   -2.509462
 O    4.605019    3.234507   -0.634172
 N   -4.790518    1.337522   -0.159121
 C   -3.695481    2.148999    0.301256
 C   -3.549810    2.126261    1.831218
 C   -2.440994    3.063716    2.320051
 N   -1.163983    2.673154    1.791499
 C   -0.597545    3.034484    0.617857
 C    0.564895    2.292409    0.544808
 C    1.585504    2.279584   -0.537895
 C    2.652286    1.176731   -0.395318
 N    3.656969    1.329110   -1.418668
 C    2.048319   -0.217487   -0.579664
 O    2.098744   -0.789947   -1.665056
 N    0.624157    1.547911    1.671417
 N   -0.408615    1.776126    2.396779
 N    1.476267   -0.731936    0.504865
 C    0.938954   -2.075082    0.584668
 C   -0.491033   -2.197255    0.013924
 O   -1.369530   -2.812793    0.575628
 C    0.978424   -2.550534    2.033398
 C    2.394586   -2.709717    2.596299
 C    3.129518   -3.880641    1.947716
 C    2.318713   -2.913798    4.107910
 N   -0.644863   -1.585799   -1.177821
 C   -1.794601   -1.823056   -2.033189
 C   -2.867083   -0.737280   -1.883932
 C   -3.493503   -0.737924   -0.484537
 C   -4.804950    0.021491   -0.499538
 O   -5.848182   -0.495335   -0.838075
 C   -1.303482   -1.911132   -3.487633
 O   -0.349819   -2.918258   -3.686047
 H    5.997299    2.978030   -2.486431
 H   -5.708964    1.759480   -0.136542
 H   -2.774954    1.796462   -0.168206
 H   -3.872807    3.177597   -0.030488
 H   -3.332410    1.108785    2.160486
 H   -4.490998    2.434390    2.287961
 H   -2.372500    3.015273    3.408751
 H   -2.645330    4.092544    2.012849
 H   -1.024560    3.762909   -0.037513
 H    2.118378    3.235203   -0.531810
 H    1.087962    2.180508   -1.507195
 H    3.114679    1.266295    0.594147
 H    3.641849    0.644970   -2.164436
 H    1.334587   -0.117096    1.309640
 H    1.563449   -2.715657   -0.052522
 H    0.445966   -3.500565    2.092488
 H    0.425062   -1.827782    2.637936
 H    2.957837   -1.790511    2.398684
 H    4.107639   -4.010364    2.405192
 H    2.565014   -4.801080    2.079047
 H    3.279071   -3.716261    0.883537
 H    3.315317   -3.020567    4.529682
 H    1.750308   -3.811852    4.338729
 H    1.833024   -2.066956    4.586683
 H    0.174208   -1.182540   -1.616316
 H   -2.223103   -2.786516   -1.732844
 H   -2.431131    0.240274   -2.107796
 H   -3.652415   -0.933031   -2.615850
 H   -2.794872   -0.348522    0.253310
 H   -3.727632   -1.767582   -0.211235
 H   -0.904680   -0.931116   -3.792606
 H   -2.142557   -2.162611   -4.139028
 H    0.444504   -2.711617   -3.177497
