51 
5e13_ligand_dft.xyz
 C    4.252421   -0.561280   -0.137887
 C   -1.873390   -0.493814    0.521323
 C    5.574303   -0.205926   -0.376245
 C    6.547340   -1.142214    0.020491
 C    4.411637    1.408903   -1.087118
 C   -2.560788   -0.978143   -0.564678
 N    6.151995   -2.293028    0.587700
 N    3.828380   -1.700274    0.435631
 O   -4.785061   -1.384810    1.856843
 C   -5.407516   -0.977325    0.890387
 N   -6.580976   -0.261687    1.019158
 C   -7.351215    0.326979   -0.000566
 N   -8.428891    0.989202    0.180024
 C   -6.785689    0.117630   -1.324903
 C   -5.666598   -0.604647   -1.476393
 N   -5.006402   -1.197882   -0.414708
 C   -3.735923   -1.896900   -0.619184
 N   -2.032144   -0.425847   -1.689065
 N   -1.057515    0.363004   -1.354380
 N   -0.961878    0.342406   -0.013400
 C    0.123891    1.028653    0.669003
 C    1.395883    0.167080    0.691466
 O    1.094232   -1.181601    0.815873
 C    0.570837    2.288757   -0.091199
 C    0.947544    3.440189    0.823343
 O    1.816217    2.961534    1.827205
 O    1.705277    1.908203   -0.873663
 C    2.050912    0.572818   -0.643893
 N    3.507011    0.493378   -0.597051
 N    5.658961    1.035183   -0.971762
 C    4.843917   -2.498134    0.761349
 N    7.865209   -0.914650   -0.140148
 H   -1.966329   -0.676833    1.579570
 H    4.069539    2.340613   -1.512006
 H   -6.863017   -0.129913    1.981129
 H   -8.682504    1.039157    1.168244
 H   -7.294887    0.562214   -2.168196
 H   -5.203735   -0.768112   -2.442867
 H   -3.774236   -2.377325   -1.599416
 H   -3.662884   -2.668809    0.146903
 H   -0.218328    1.255188    1.679583
 H    2.032124    0.542727    1.503958
 H    1.955333   -1.652074    0.798585
 H   -0.214059    2.621284   -0.776003
 H    0.024967    3.860228    1.253965
 H    1.423892    4.216560    0.209020
 H    2.147308    3.709681    2.335061
 H    1.683197   -0.071246   -1.452447
 H    4.575434   -3.440973    1.230518
 H    8.174806   -0.101476   -0.646974
 H    8.516405   -1.651906    0.075543
