113 
5e1d_ligand_dft.xyz
 N   -5.934428    1.081040    1.129943
 C   -5.752745    0.264182   -0.070468
 C   -5.319836    1.208331   -1.186142
 O   -5.746358    2.366961   -1.212579
 C   -7.021198   -0.507366   -0.508365
 C   -7.503937   -1.442012    0.571724
 C   -8.565928   -1.097044    1.406909
 C   -6.859729   -2.663708    0.797765
 C   -8.980641   -1.939289    2.434524
 C   -7.258657   -3.514802    1.815271
 C   -8.327344   -3.154132    2.641914
 O   -8.671625   -4.025625    3.616707
 N   -4.519346    0.747841   -2.166535
 C   -3.875793   -0.553767   -2.253987
 C   -2.645404   -0.606527   -1.324822
 O   -2.478663    0.199769   -0.415411
 C   -3.523395   -0.625840   -3.751225
 C   -3.103345    0.814244   -4.056847
 C   -4.105863    1.647819   -3.253967
 N   -1.763748   -1.611720   -1.534040
 C   -0.499538   -1.594941   -0.829350
 C    0.191843   -0.240547   -1.070953
 O    0.166849    0.311576   -2.157289
 C    0.415786   -2.728284   -1.320659
 C    1.719431   -2.778640   -0.520372
 C    2.757985   -3.761180   -1.058177
 C    4.052913   -3.733578   -0.251077
 N    4.675242   -2.374150   -0.237815
 N    0.861967    0.252876    0.003398
 C    1.742146    1.388938   -0.089886
 C    3.148854    0.958658    0.361088
 O    3.331690   -0.142557    0.883424
 C    1.177681    2.570395    0.725525
 C   -0.154980    3.050194    0.140949
 C   -0.951466    3.900368    1.133463
 N   -2.214296    4.382882    0.588641
 C   -3.382802    3.722924    0.657215
 N   -4.523652    4.349627    0.344832
 N   -3.435994    2.466921    1.086371
 N    4.115096    1.872089    0.167083
 C    5.531973    1.728327    0.470569
 C    6.156619    0.594878   -0.368931
 O    5.527542   -0.007902   -1.231259
 C    5.887177    1.706022    1.986523
 C    5.718614    0.349085    2.693039
 C    5.144775    2.834391    2.707273
 C    6.491567    0.270024    4.010003
 N    7.468442    0.369548   -0.127757
 C    8.285361   -0.546895   -0.900077
 C    8.345791   -1.906998   -0.196935
 O    9.527413   -2.489714   -0.292886
 C    9.652347    0.065145   -1.196548
 O    7.402982   -2.429248    0.372476
 H   -4.369608    2.019688    1.224479
 H   -6.230224    0.483195    1.899013
 H   -6.689694    1.743683    0.962426
 H   -4.956654   -0.450842    0.154218
 H   -6.807585   -1.064313   -1.430032
 H   -7.795718    0.226205   -0.762060
 H   -9.094180   -0.159868    1.248328
 H   -6.036113   -2.964331    0.152021
 H   -9.818017   -1.653013    3.066179
 H   -6.769691   -4.468726    1.980549
 H   -9.446576   -3.702801    4.093128
 H   -4.559200   -1.357896   -1.960997
 H   -2.750937   -1.356478   -3.999574
 H   -4.425550   -0.897314   -4.307799
 H   -2.082043    0.982604   -3.697906
 H   -3.134207    1.044476   -5.123154
 H   -4.984667    1.930998   -3.841128
 H   -3.673481    2.561122   -2.837479
 H   -1.836879   -2.175351   -2.367254
 H   -0.698601   -1.718153    0.242051
 H   -0.118535   -3.681626   -1.234878
 H    0.633806   -2.561116   -2.383403
 H    2.159369   -1.778326   -0.511807
 H    1.496075   -3.022919    0.527702
 H    2.978139   -3.538573   -2.110698
 H    2.375716   -4.787342   -1.031518
 H    4.793350   -4.419370   -0.667485
 H    3.881692   -4.008507    0.792447
 H    4.154588   -1.668304    0.315193
 H    4.755588   -1.951035   -1.168570
 H    5.649593   -2.388617    0.122388
 H    0.930786   -0.303108    0.843918
 H    1.780750    1.661121   -1.151350
 H    1.897763    3.396653    0.759959
 H    1.041279    2.233898    1.762231
 H    0.027349    3.625335   -0.774630
 H   -0.755087    2.183394   -0.156648
 H   -1.177287    3.327581    2.039240
 H   -0.377142    4.778061    1.445217
 H   -2.205539    5.256087    0.083067
 H   -4.535745    5.343098    0.172384
 H   -5.257660    3.778828   -0.080792
 H   -2.694026    1.819157    0.850028
 H    3.853971    2.705366   -0.338491
 H    5.981982    2.647764    0.076736
 H    6.956570    1.963632    2.032676
 H    6.069634   -0.455649    2.034854
 H    4.656056    0.161643    2.869045
 H    4.071975    2.622287    2.765786
 H    5.277352    3.795559    2.198356
 H    5.518499    2.951877    3.726942
 H    6.137768    1.003967    4.740117
 H    7.562925    0.443377    3.855022
 H    6.378739   -0.718798    4.463391
 H    7.932604    0.890440    0.602559
 H    7.747092   -0.727246   -1.838278
 H    9.486727   -3.358747    0.143013
 H   10.214465    0.250168   -0.275697
 H    9.516772    1.011992   -1.724202
 H   10.248461   -0.599895   -1.822941
