52 
5e1e_ligand_dft.xyz
 C   -3.383817    1.743923   -2.555351
 C   -3.483476    0.144215   -0.816784
 C   -3.770569   -1.711873    0.711612
 C   -4.321332   -0.657413   -0.005003
 C   -6.507552   -1.113895    0.767996
 C   -0.104986   -1.399430   -0.193291
 C    1.868670   -2.179220   -0.310224
 C    2.013436   -0.778084   -0.184501
 C    4.083264   -2.503006   -0.331038
 C    2.709961    2.180868   -0.715121
 C    0.315176    2.976692   -0.529007
 N   -0.744596    2.069016    1.434806
 C    0.317082    2.472899    2.352141
 O   -4.098670    1.145636   -1.498367
 C   -2.130680   -0.132323   -0.868802
 C   -1.558372   -1.193316   -0.143635
 C   -2.403622   -1.967587    0.630572
 O   -5.627841   -0.322970   -0.000990
 F   -1.918941   -2.975397    1.361285
 N    0.534693   -2.530802   -0.323466
 N    0.714706   -0.295152   -0.131406
 C    3.288307   -0.180488   -0.173905
 C    4.323784   -1.128328   -0.226461
 N    2.879859   -3.049745   -0.391709
Cl    5.991268   -0.580069   -0.196491
 N    3.546047    1.171568   -0.082490
 C    1.680178    2.908660    0.210891
 C   -0.893897    3.079384    0.394259
 C    1.649301    2.294264    1.632842
 H   -2.530011    2.334320   -2.195576
 H   -3.021032    0.991670   -3.267485
 H   -4.087739    2.410665   -3.054742
 H   -4.372368   -2.354073    1.341865
 H   -6.507974   -2.157358    0.428679
 H   -6.250535   -1.078805    1.834393
 H   -7.499147   -0.685298    0.621393
 H    4.936356   -3.175745   -0.379386
 H    2.173412    1.713899   -1.549679
 H    3.381743    2.918268   -1.163360
 H    0.185251    2.074727   -1.137855
 H    0.329102    3.817036   -1.233146
 H   -1.620716    1.929794    1.926858
 H    0.372760    0.556619    0.314929
 H    0.291651    1.832161    3.238624
 H    0.185258    3.516693    2.691298
 H   -1.478209    0.464683   -1.495071
 H    4.532776    1.381692   -0.078080
 H    2.013576    3.945647    0.337257
 H   -1.813694    2.880655   -0.164743
 H   -0.977752    4.096063    0.819440
 H    1.865859    1.225425    1.601927
 H    2.462353    2.729842    2.222806
