78 
5e1s_ligand_xtb.xyz
 N    1.903974   -1.008040   -0.564212
 C    2.109614   -3.393523   -1.856227
 C    0.973989   -1.950704   -0.370643
 C    0.978291   -3.167196   -1.084399
 C   -1.494376   -3.382365   -0.775369
 C   -1.324705   -2.444184    0.360807
 C    0.549222    3.520614   -1.272278
 C    1.205148    0.861465    2.140261
 C    2.143792    1.544974    2.892559
 C    2.575383    1.026542    4.102390
 C    1.125289   -0.863383    3.814919
 C   -0.253265   -5.131170   -2.102167
 C    4.659527    1.977012   -1.670751
 C    0.695144   -0.349518    2.594398
 C    2.916792   -1.343511   -1.362718
 N    3.911827   -0.409738   -1.611369
 N    3.080780   -2.499398   -1.972437
 C   -0.162766   -4.144437   -0.942293
 C   -0.262816   -1.101119    1.785529
 C   -0.107042   -1.750349    0.559773
 N   -2.170629   -2.180385    1.334860
 N   -1.515428   -1.396695    2.202462
 N   -0.331389    2.398623   -0.953116
 C    1.738343    3.618180   -0.299098
 N    2.825537    2.767320   -0.700161
 C    2.063267   -0.175525    4.562546
 C   -2.144096   -1.022188    3.438670
 C    4.000755    3.109063   -1.247280
 C    3.800778    0.907876   -1.368180
 N    2.702320    1.422178   -0.788022
 C   -0.916432    1.790136   -2.140303
 C   -1.750375    0.571520   -1.755488
 N   -2.839121    0.973105   -0.843778
 C   -2.236704    1.584507    0.359088
 C   -1.397329    2.793881   -0.039887
 C   -3.822295   -0.102341   -0.552494
 C   -5.152207    0.557578   -0.176693
 O   -5.316528    1.640021   -1.070954
 C   -6.594943    2.253779   -1.009327
 H    2.266388   -4.311024   -2.402088
 H   -1.726024   -2.846151   -1.702018
 H   -2.307063   -4.077255   -0.571618
 H    0.939736    3.392717   -2.283694
 H    0.000105    4.470314   -1.250628
 H    0.831792    1.262134    1.207753
 H    2.545438    2.486743    2.546976
 H    3.307971    1.560255    4.686354
 H    0.740484   -1.808865    4.165017
 H   -1.146864   -5.739808   -1.993843
 H    0.601083   -5.801062   -2.114556
 H   -0.305903   -4.609185   -3.055200
 H    5.622456    1.923807   -2.132731
 H    4.709211   -0.763667   -2.124590
 H    0.009552   -4.711233   -0.017209
 H    1.985569    0.783986   -0.399576
 H    1.417893    3.355417    0.711279
 H    2.116537    4.641067   -0.286983
 H    2.396830   -0.579615    5.504948
 H   -1.756056   -0.064093    3.781390
 H   -1.959432   -1.774738    4.207180
 H   -3.219116   -0.964550    3.277023
 H    4.319072    4.131245   -1.306826
 H   -1.548665    2.503035   -2.696218
 H   -0.112753    1.462665   -2.802411
 H   -1.129785   -0.165732   -1.238974
 H   -2.172713    0.121673   -2.654988
 H   -3.432593    1.691412   -1.305191
 H   -3.023736    1.895534    1.045655
 H   -1.609107    0.833496    0.843401
 H   -0.955527    3.224860    0.860005
 H   -2.050908    3.559044   -0.493544
 H   -3.965899   -0.675468   -1.469919
 H   -3.460454   -0.776855    0.228384
 H   -5.965336   -0.169639   -0.281482
 H   -5.155359    0.917836    0.862404
 H   -7.381481    1.538037   -1.256870
 H   -6.780009    2.668048   -0.014791
 H   -6.584106    3.052986   -1.745841
