78 
5e1s_ligand_dft.xyz
 N    0.412957   -1.692308   -0.369720
 C   -0.960685   -3.735604   -1.523339
 C   -0.869184   -1.914590   -0.024363
 C   -1.645490   -2.924750   -0.624106
 C   -3.767383   -1.678025   -0.162200
 C   -2.942925   -0.843230    0.765843
 C    3.396898    2.494921   -1.136531
 C    1.325772   -0.068286    2.097016
 C    2.498829    0.024336    2.839890
 C    2.452579    0.165165    4.223949
 C    0.044126    0.063999    4.131104
 C   -3.895954   -3.966512   -1.242578
 C    4.619240   -1.855518   -0.849495
 C    0.076997   -0.036363    2.732421
 C    0.953966   -2.580855   -1.205184
 N    2.305215   -2.495374   -1.515970
 N    0.334904   -3.594162   -1.804556
 C   -3.118766   -3.074544   -0.276108
 C   -1.180241   -0.182072    1.969914
 C   -1.548578   -1.019092    0.906426
 N   -3.403535    0.077634    1.592474
 N   -2.327390    0.472615    2.310418
 N    1.991944    1.988889   -1.334230
 C    4.123658    1.654507   -0.080470
 N    4.152711    0.258356   -0.466292
 C    1.218512    0.176824    4.866411
 C   -2.555150    1.497714    3.318271
 C    5.155164   -0.645992   -0.472588
 C    3.246030   -1.601755   -1.058649
 N    2.970602   -0.318859   -0.823113
 C    1.472398    2.197322   -2.710077
 C    0.141952    1.478852   -2.878799
 N   -0.856696    1.931167   -1.865682
 C   -0.299164    1.775376   -0.485304
 C    1.022070    2.503722   -0.331704
 C   -2.183477    1.233189   -2.029786
 C   -3.247230    2.045640   -1.298785
 O   -2.926323    3.390738   -1.563226
 C   -3.884546    4.320346   -1.065378
 H   -1.462536   -4.547575   -2.042324
 H   -3.838473   -1.227945   -1.164973
 H   -4.788454   -1.761661    0.218961
 H    3.909670    2.406370   -2.096663
 H    3.362940    3.548809   -0.848346
 H    1.382509   -0.257412    1.031867
 H    3.458869   -0.062827    2.337149
 H    3.369039    0.231431    4.801128
 H   -0.900554    0.010825    4.660686
 H   -4.951492   -3.993532   -0.958379
 H   -3.532182   -4.997746   -1.226614
 H   -3.833110   -3.593943   -2.271660
 H    5.135070   -2.798520   -0.947332
 H    2.649829   -3.316864   -1.994606
 H   -3.171245   -3.527883    0.724261
 H    2.120247    0.900880   -1.175675
 H    3.651515    1.757729    0.903675
 H    5.150726    2.015617    0.002365
 H    1.166873    0.248335    5.947768
 H   -1.627057    2.031647    3.523092
 H   -2.936326    1.056617    4.242265
 H   -3.306595    2.183579    2.926162
 H    6.165433   -0.375271   -0.199868
 H    1.389315    3.273193   -2.899740
 H    2.187862    1.775077   -3.419372
 H    0.259850    0.398723   -2.744176
 H   -0.262368    1.670951   -3.874473
 H   -1.107684    2.925758   -2.003144
 H   -1.029643    2.158371    0.227646
 H   -0.167818    0.703523   -0.317644
 H    1.404354    2.295211    0.670736
 H    0.927142    3.587731   -0.461108
 H   -2.384386    1.213655   -3.103033
 H   -2.086812    0.214797   -1.649543
 H   -4.232044    1.771664   -1.698946
 H   -3.259732    1.832880   -0.220462
 H   -4.851227    4.175536   -1.559344
 H   -4.007144    4.205796    0.018434
 H   -3.505267    5.316501   -1.291078
