29 
5e28_ligand_xtb.xyz
 S    3.873485   -0.041988    0.103228
 N    4.179329    0.576671   -1.439834
 O    4.365597   -1.389338    0.137876
 O    4.363884    0.910274    1.057949
 C    2.098109   -0.046002    0.110197
 C    1.422390   -1.162648   -0.338573
 C    0.040570   -1.152017   -0.364281
 C   -0.670093   -0.024660    0.054238
 C    0.040520    1.089811    0.506304
 C    1.422220    1.080133    0.534797
 C   -2.136743   -0.010803    0.021728
 C   -2.832680    1.133917   -0.366426
 C   -4.209598    1.151605   -0.404012
 C   -4.946224    0.022044   -0.040560
 C   -4.252812   -1.123684    0.356030
 C   -2.875368   -1.139103    0.377780
 N   -6.317924    0.016538   -0.136955
 H    4.672617   -0.089097   -2.012195
 H    4.672573    1.453392   -1.392658
 H    1.991448   -2.023439   -0.651300
 H   -0.497386   -2.014300   -0.728103
 H   -0.498377    1.957513    0.856534
 H    1.990429    1.922450    0.895997
 H   -2.284002    2.013832   -0.667679
 H   -4.732121    2.043490   -0.719357
 H   -4.809558   -2.002950    0.647489
 H   -2.361607   -2.030337    0.706394
 H   -6.777777    0.911176   -0.167989
 H   -6.809421   -0.701426    0.368809
