29 
5e2k_ligand_xtb.xyz
 S    3.783358    0.060436    0.080283
 N    4.009274    0.900533   -1.368695
 O    4.227537    0.908579    1.148460
 O    4.365356   -1.241548   -0.074299
 C    2.011519   -0.069044    0.107533
 C    1.271319    0.921692    0.720018
 C   -0.108686    0.838264    0.707920
 C   -0.748069   -0.235164    0.086790
 C    0.024481   -1.225818   -0.520400
 C    1.404457   -1.142027   -0.512965
 C   -2.216262   -0.324668    0.078517
 C   -2.852461   -1.538431    0.330158
 C   -4.234157   -1.605310    0.327107
 C   -4.994231   -0.483196    0.063788
 C   -4.374117    0.740123   -0.196499
 C   -2.982100    0.804391   -0.181582
 N   -5.124320    1.879550   -0.394666
 H    4.454016    1.790382   -1.211847
 H    4.522651    0.348756   -2.036685
 H    1.789796    1.731771    1.207665
 H   -0.700408    1.595342    1.200202
 H   -0.464425   -2.053201   -1.012430
 H    2.023359   -1.897642   -0.969781
 H   -2.266467   -2.416622    0.552409
 H   -4.726178   -2.545279    0.529674
 H   -6.072945   -0.542393    0.058196
 H   -2.495877    1.744684   -0.399309
 H   -6.083538    1.744123   -0.668649
 H   -4.661689    2.651410   -0.846035
