29 
5e2k_ligand_dft.xyz
 S    3.802435    0.052847    0.070661
 N    4.122212    1.010026   -1.271124
 O    4.209993    0.831519    1.229865
 O    4.330212   -1.277225   -0.194434
 C    2.028394   -0.065201    0.081650
 C    1.281557    0.942828    0.683566
 C   -0.103088    0.851569    0.679012
 C   -0.751670   -0.236306    0.081001
 C    0.025172   -1.240370   -0.507470
 C    1.411985   -1.162599   -0.508958
 C   -2.233632   -0.328024    0.079226
 C   -2.870459   -1.546373    0.334305
 C   -4.259720   -1.607578    0.331452
 C   -5.024144   -0.477599    0.074693
 C   -4.400300    0.749345   -0.186149
 C   -3.002505    0.807793   -0.178986
 N   -5.155961    1.899789   -0.401624
 H    4.696659    1.800784   -0.996527
 H    4.561773    0.461061   -2.003176
 H    1.782645    1.773565    1.168915
 H   -0.692060    1.619115    1.171883
 H   -0.464313   -2.084480   -0.983554
 H    2.014092   -1.946312   -0.955816
 H   -2.283289   -2.430140    0.563115
 H   -4.757518   -2.550299    0.539034
 H   -6.109457   -0.538440    0.080363
 H   -2.508409    1.751136   -0.400348
 H   -6.088924    1.738923   -0.753947
 H   -4.685084    2.631562   -0.914784
