24 
5e2l_ligand_dft.xyz
 N    0.978785    1.158817   -1.007916
 C    1.344621   -0.168920   -0.406879
 C    2.821532   -0.052230   -0.046757
 O    3.342540   -1.225276    0.253859
 O    3.382112    1.018291   -0.016832
 C    0.466798   -0.439175    0.835471
 C   -0.997069   -0.281045    0.498509
 C   -1.678605   -1.287164   -0.193259
 C   -1.664235    0.912068    0.801409
 C   -3.004759   -1.105338   -0.568135
 C   -2.993303    1.095166    0.418226
 C   -3.661860    0.087531   -0.268153
 H    1.111203    1.181854   -2.022403
 H    1.612479    1.867554   -0.600893
 H   -0.009708    1.378968   -0.798389
 H    1.181072   -0.939331   -1.162673
 H    4.271312   -1.108625    0.522529
 H    0.758817    0.248205    1.637910
 H    0.699682   -1.452115    1.175279
 H   -1.176812   -2.224951   -0.420646
 H   -1.161399    1.683819    1.382818
 H   -3.530251   -1.898517   -1.090000
 H   -3.505719    2.017421    0.671884
 H   -4.698101    0.224516   -0.558811
