51 
5e2n_ligand_xtb.xyz
 F   -0.940572   -2.346590    0.912151
 C   -1.110760   -1.114486    0.368610
 C   -2.378490   -0.789932   -0.046450
 S   -3.878195   -1.828369    0.077181
 O   -4.314170   -2.068306   -1.255035
 N   -3.441002   -3.281639    0.711946
 O   -4.711867   -1.186226    1.035884
 C   -2.618347    0.461555   -0.589071
 F   -3.852075    0.797632   -0.970172
 C   -1.568381    1.362327   -0.710539
 F   -1.817515    2.578365   -1.205488
 C    0.000637   -0.235361    0.269057
 C   -0.288097    1.029420   -0.300952
 S    0.980500    2.306456   -0.526723
 O    0.725074    3.046596   -1.718401
 O    2.273842    1.663672   -0.434372
 C    0.822266    3.370856    0.933394
 C   -0.402346    4.262096    0.846894
 O   -0.279690    5.259889    1.835569
 N    1.234561   -0.499644    0.733276
 C    1.813898   -1.794052    1.061649
 C    2.010709   -2.652161   -0.204489
 C    2.632196   -1.980140   -1.441220
 C    4.129666   -2.243427   -1.642904
 C    5.059719   -1.139708   -1.130389
 C    4.715656   -0.579500    0.250181
 C    4.438784   -1.655680    1.307523
 C    3.055283   -1.574609    1.952183
 H   -2.876571   -3.865535    0.120333
 H   -3.152152   -3.272535    1.674279
 H    1.721448    3.983862    0.958631
 H    0.804436    2.719122    1.802675
 H   -1.316020    3.674757    1.012179
 H   -0.442358    4.698664   -0.159225
 H   -1.007042    5.884203    1.744789
 H    1.920115    0.206018    0.471442
 H    1.093629   -2.327564    1.688430
 H    1.017170   -3.006782   -0.487834
 H    2.587710   -3.535237    0.072071
 H    2.450161   -0.905853   -1.433681
 H    2.108435   -2.378980   -2.312646
 H    4.324761   -2.353938   -2.711832
 H    4.392027   -3.199462   -1.185070
 H    5.041187   -0.306934   -1.836123
 H    6.077850   -1.537318   -1.119517
 H    3.863460    0.088718    0.153996
 H    5.553274    0.043030    0.570902
 H    5.165983   -1.566280    2.117603
 H    4.578228   -2.645415    0.878100
 H    3.026779   -2.328472    2.742548
 H    2.947262   -0.601338    2.435602
