51 
5e2n_ligand_dft.xyz
 F   -1.544918   -2.285085   -0.371619
 C   -1.428445   -0.940239   -0.354246
 C   -2.569205   -0.214269   -0.053682
 S   -4.072272   -1.106273    0.420571
 O   -5.161805   -0.158769    0.421835
 N   -4.375854   -2.152142   -0.819377
 O   -3.711297   -1.894249    1.577240
 C   -2.503872    1.175069   -0.097973
 F   -3.537283    1.960134    0.177752
 C   -1.303882    1.773983   -0.442015
 F   -1.289401    3.106356   -0.461741
 C   -0.172163   -0.383117   -0.675871
 C   -0.143022    1.043395   -0.706488
 S    1.341935    2.001052   -1.081791
 O    0.979984    3.123163   -1.930197
 O    2.371482    1.062369   -1.541389
 C    1.929305    2.606855    0.503886
 C    1.086790    3.679769    1.177541
 O    1.871024    4.124385    2.264570
 N    0.901713   -1.166179   -0.978723
 C    1.204045   -2.498736   -0.430671
 C    2.499959   -3.010839   -1.094798
 C    3.779439   -2.146455   -1.184276
 C    4.721523   -2.114604    0.030082
 C    4.467572   -1.012452    1.066783
 C    3.020938   -0.888745    1.555963
 C    2.364384   -2.229339    1.935779
 C    1.123553   -2.584650    1.112846
 H   -4.717932   -1.698050   -1.658285
 H   -3.645631   -2.837063   -0.974129
 H    2.917384    3.013843    0.263748
 H    2.065670    1.735840    1.149404
 H    0.131943    3.260654    1.519948
 H    0.872810    4.484475    0.462765
 H    1.386043    4.824982    2.715286
 H    1.701779   -0.636521   -1.298350
 H    0.429585   -3.176363   -0.794529
 H    2.221543   -3.256066   -2.126609
 H    2.751931   -3.965805   -0.615735
 H    3.555552   -1.119543   -1.497864
 H    4.346516   -2.573154   -2.019540
 H    5.746318   -1.980548   -0.336255
 H    4.714944   -3.100983    0.511554
 H    4.769456   -0.047727    0.639271
 H    5.129590   -1.192454    1.923824
 H    2.434495   -0.411577    0.766357
 H    2.998575   -0.197535    2.407166
 H    2.071923   -2.225538    2.991628
 H    3.095145   -3.039980    1.842780
 H    0.829903   -3.612265    1.359748
 H    0.284642   -1.958429    1.440872
