42 
5e73_ligand_xtb.xyz
 C   -1.669573    3.569445   -0.994316
 C   -2.584874    2.492291   -0.462521
 O   -3.749079    2.690870   -0.208255
 N   -1.996145    1.255227   -0.285897
 C   -0.673134    0.921459   -0.535876
 C   -0.450473   -0.388932   -0.250528
 N    0.795662   -1.023165   -0.349456
 C    0.932139   -2.299957   -0.831494
 C    2.332647   -2.860318   -0.725556
 O    0.002477   -2.924169   -1.290004
 C    1.916229   -0.206004   -0.020268
 C    2.705224    0.378091   -1.009115
 C    2.429616    0.186500   -2.470730
 C    3.770182    1.176488   -0.601292
 C    4.042670    1.403049    0.730610
 C    3.234653    0.831263    1.710556
 C    2.171550    0.028154    1.325828
 O    3.520812    1.082803    3.012963
 C   -1.692217   -0.945535    0.220695
 C   -2.633957    0.104667    0.179735
 C   -3.947719   -0.085792    0.576289
 C   -4.304148   -1.342891    1.027039
 C   -3.379156   -2.381910    1.086947
 C   -2.070612   -2.198898    0.689621
 H   -1.283648    3.291583   -1.972657
 H   -2.242340    4.488402   -1.084933
 H   -0.835604    3.733536   -0.315232
 H    0.033025    1.644723   -0.889768
 H    2.291832   -3.926841   -0.929778
 H    2.985620   -2.388668   -1.455366
 H    2.743978   -2.687953    0.266089
 H    3.239559   -0.369082   -2.943580
 H    1.499786   -0.351829   -2.634386
 H    2.364641    1.153080   -2.968384
 H    4.394449    1.634898   -1.353900
 H    4.869354    2.023478    1.036175
 H    1.528033   -0.425298    2.068331
 H    2.887432    0.634025    3.586015
 H   -4.661059    0.719803    0.533976
 H   -5.321843   -1.520974    1.340634
 H   -3.694185   -3.349157    1.449358
 H   -1.363618   -3.011211    0.723492
