47 
5e7n_ligand_xtb.xyz
 C    0.977573   -0.825321    0.100507
 C   -1.095691   -2.147814    1.467290
 C   -0.090649   -1.472878    2.157020
 C   -3.735158    2.017775   -0.019299
 C    6.799540    0.884313   -0.164141
 C   -4.576595   -0.130672    0.592641
 C   -2.905369    1.442642   -0.967765
 C   -2.190452   -2.843553    2.206354
 S   -2.302070   -2.929183   -0.921761
 C   -1.041593   -2.128268    0.078906
 C    5.552457    0.491898    0.309976
 C    2.029346   -0.123411   -0.698534
 N    3.256706   -0.129292   -0.094033
 N   -3.708317   -2.105419   -0.498832
 C    4.469535    0.380844   -0.578454
 C   -0.031290   -1.479734   -0.598302
 C    5.413921    0.205617    1.765317
 O   -2.533866   -4.274246   -0.487503
 O   -2.006833   -2.694994   -2.297822
 O    1.787099    0.395670   -1.764124
 O    4.337725    0.786722    2.362191
 C    0.930571   -0.819799    1.492922
 C   -3.736099   -0.728409   -0.345812
 O    6.167415   -0.471051    2.401587
Br   -3.716955    3.904184    0.225561
 C   -2.911356    0.072285   -1.134913
 C   -4.581867    1.241614    0.753133
 C    4.649556    0.728161   -1.913416
 C    6.968396    1.222374   -1.493297
 C    5.887245    1.156285   -2.357923
 H   -0.113496   -1.460371    3.236551
 H    7.622306    0.932166    0.532663
 H   -5.235396   -0.743226    1.191041
 H   -2.260855    2.059212   -1.574606
 H   -1.856801   -3.123762    3.202741
 H   -3.046309   -2.176275    2.315355
 H   -2.504458   -3.733067    1.666269
 H    3.318941   -0.631807    0.781138
 H   -4.323029   -2.639595    0.094152
 H   -0.024251   -1.491388   -1.677134
 H    3.902698    1.428007    1.783670
 H    1.670854   -0.289897    2.075560
 H   -2.295564   -0.387589   -1.888806
 H   -5.234177    1.703023    1.478479
 H    3.817561    0.656574   -2.593269
 H    7.935989    1.536354   -1.852038
 H    6.009363    1.424595   -3.396064
