56 
5e80_ligand_xtb.xyz
 C    4.625493    1.065817   -0.779574
 C    5.851715    0.272703   -0.469740
 C    7.128450    0.823684   -0.568444
Cl    7.320282    2.492798   -0.986110
 C    8.277973    0.081061   -0.358622
 C    8.170415   -1.260915   -0.042593
 C    6.921958   -1.834492    0.090476
 C    5.772222   -1.074282   -0.098067
 N    4.523214   -1.711675    0.053693
 C    3.512477   -1.298995    0.878180
 O    3.551772   -0.280214    1.525894
 C    2.341850   -2.270268    0.906588
 C    1.019371   -1.547503    1.147277
 C    0.660817   -0.645764   -0.035933
 N   -0.696834   -0.148939    0.075535
 C   -1.726481   -0.971771   -0.349863
 O   -1.497994   -2.073208   -0.815040
 N   -0.804268    1.068958    0.617354
 C   -1.948733    1.632144    0.804967
 C   -1.949645    2.993985    1.418468
 C   -3.144714    0.950764    0.416858
 C   -4.512548    1.205342    0.427528
 C   -5.272496    2.352306    0.985529
 C   -3.022837   -0.342576   -0.166098
 N   -4.211817   -0.830196   -0.475138
 N   -5.091150    0.108545   -0.128888
 C   -6.455859   -0.145363   -0.354518
 C   -7.305127    0.837112   -0.849291
 C   -8.639620    0.539423   -1.062637
 C   -9.125074   -0.729985   -0.798595
 C   -8.268267   -1.714950   -0.333767
 C   -6.935029   -1.428190   -0.111921
 H    4.158206    1.404469    0.145075
 H    4.870195    1.931449   -1.388124
 H    3.902544    0.446259   -1.308000
 H    9.244245    0.550457   -0.452793
 H    9.059357   -1.852989    0.109062
 H    6.827975   -2.878809    0.351704
 H    4.497533   -2.674861   -0.250300
 H    2.521174   -2.973313    1.724575
 H    2.291695   -2.835037   -0.025862
 H    1.095478   -0.940533    2.050344
 H    0.226299   -2.285434    1.277343
 H    0.722731   -1.215835   -0.967271
 H    1.324344    0.218587   -0.070617
 H   -2.422131    2.966952    2.399590
 H   -0.923881    3.331159    1.531903
 H   -2.496789    3.694955    0.790973
 H   -4.767286    2.728813    1.871633
 H   -5.337501    3.169907    0.266166
 H   -6.281405    2.048508    1.257969
 H   -6.924404    1.816321   -1.093118
 H   -9.299719    1.302638   -1.446679
 H  -10.167475   -0.954293   -0.966702
 H   -8.640306   -2.709898   -0.142364
 H   -6.247784   -2.182244    0.237389
