62 
5e8w_ligand_xtb.xyz
 O   -0.783312   -1.943060   -1.714206
 C    0.325974   -2.463201   -1.040889
 C   -0.056926   -3.376221    0.141908
 C   -1.091585   -2.714338    1.035121
 C   -2.305402   -2.243040    0.201292
 C   -1.890074   -1.378351   -1.040724
 C   -3.001650   -1.437222   -2.100440
 N   -1.620854   -0.009205   -0.623955
 C   -0.348852    0.520245   -0.449266
 C    0.898320   -0.101327   -0.417451
 C    2.073772    0.643310   -0.155722
 C    1.966909    2.017260    0.073602
 C    0.727601    2.642514    0.032845
 C   -0.432665    1.911025   -0.209687
 C   -1.826888    2.239866   -0.251890
 C   -2.533955    1.039953   -0.496156
 C   -3.921479    1.050278   -0.510615
 C   -4.574467    2.255291   -0.332902
 C   -3.878888    3.443287   -0.131785
 C   -2.501754    3.443272   -0.079170
 C    0.906202    4.107458    0.282693
 N    2.328294    4.205230    0.483581
 C    3.005991    3.032718    0.372383
 O    4.198490    2.889846    0.515409
 C    3.165286   -0.285221   -0.215134
 C    2.614229   -1.548858   -0.521597
 C    3.411518   -2.674159   -0.654492
 C    4.775039   -2.511069   -0.488590
 C    5.329433   -1.268064   -0.188186
 C    4.539593   -0.145381   -0.048292
 N    1.234922   -1.433308   -0.609654
 O   -3.132863   -1.466933    1.041319
 C   -4.273535   -2.125693    1.565733
 N   -0.586888   -1.516838    1.768965
 C    0.234308   -1.794210    2.955998
 H    0.837848   -3.066637   -1.804507
 H    0.845573   -3.635989    0.695619
 H   -0.488497   -4.297888   -0.250117
 H   -1.441713   -3.422195    1.796207
 H   -2.830037   -3.128634   -0.175118
 H   -2.942178   -0.567919   -2.747761
 H   -2.838448   -2.325869   -2.704463
 H   -3.987222   -1.489299   -1.654171
 H   -4.503496    0.155870   -0.637991
 H   -5.653208    2.271174   -0.350419
 H   -4.424358    4.365068   -0.006286
 H   -1.952986    4.354752    0.093515
 H    0.354359    4.446535    1.168189
 H    0.577582    4.704975   -0.576285
 H    2.795560    5.079448    0.655693
 H    2.995217   -3.641068   -0.895242
 H    5.422564   -3.367626   -0.595824
 H    6.398055   -1.185914   -0.067966
 H    4.954953    0.823099    0.180111
 H   -3.993494   -2.964774    2.209404
 H   -4.924404   -2.487737    0.767122
 H   -4.803023   -1.377334    2.150649
 H   -0.048275   -0.901103    1.115805
 H   -1.453184   -1.000151    2.018634
 H   -0.317212   -2.407698    3.666362
 H    0.511517   -0.858826    3.437562
 H    1.145347   -2.314974    2.667035
