55 
5e90_ligand_xtb.xyz
 C    3.155385   -0.532907   -0.747158
 C   -3.422880   -0.696623   -0.388959
 C    5.483538   -1.124434   -0.020205
 C    3.171442    1.760603    0.800021
 C    4.270169    0.923175    0.784904
 C   -4.733045   -0.525785   -0.825175
 C   -5.115023   -2.759917   -0.849689
 C   -3.841425   -3.051886   -0.387679
 C   -2.966867   -2.004324   -0.116072
 C    6.417591   -0.720895   -1.164990
 C    2.044365    1.454805    0.041945
 C    2.051476    0.295221   -0.732747
 C   -1.012953   -3.456164    0.143111
 C    0.888644    3.695398    0.205236
 C    0.851124    2.302791    0.059455
 N   -0.325875    1.694914   -0.088046
 C   -1.435133    2.417734   -0.086246
 C   -1.383162    3.829612    0.059215
 N   -0.195530    4.440356    0.201979
 N   -2.488558    4.580381    0.057639
 C   -2.720440    1.684855   -0.216121
 O   -3.809968    2.241696   -0.249347
 N   -2.516463    0.348240   -0.258192
 C    4.277666   -0.234907    0.016871
 N   -5.560257   -1.531883   -1.044075
 O    7.526225   -1.592070   -1.158541
 N   -1.657878   -2.173796    0.348683
 C    0.496255   -3.244458    0.304520
 O    0.814391   -2.745173    1.581857
 C    0.157266   -1.520694    1.819804
 C   -1.358562   -1.678790    1.686534
 H    3.150014   -1.427122   -1.354186
 H    6.041764   -1.058003    0.914246
 H    5.190814   -2.164432   -0.170080
 H    3.177936    2.642978    1.422782
 H    5.133692    1.165916    1.387270
 H   -5.119369    0.464453   -1.014483
 H   -5.820607   -3.552809   -1.058485
 H   -3.547687   -4.076258   -0.222276
 H    6.740378    0.321554   -1.025630
 H    5.877527   -0.786027   -2.121309
 H    1.182889    0.065261   -1.333014
 H   -1.227920   -3.811226   -0.866009
 H   -1.347683   -4.208709    0.874796
 H    1.824097    4.228951    0.305033
 H   -3.378014    4.108370   -0.050307
 H   -2.408053    5.575093    0.168734
 H   -1.534180    0.082122   -0.215653
 H    8.127673   -1.347126   -1.868658
 H    0.844737   -2.542555   -0.467212
 H    1.030258   -4.190776    0.204988
 H    0.514338   -0.758861    1.111351
 H    0.425847   -1.223035    2.834433
 H   -1.709122   -2.400002    2.443416
 H   -1.855158   -0.725330    1.863151
