56 
5ece_ligand_dft.xyz
 C   -6.031901    1.116906    1.361982
 C   -6.504623   -0.011376    2.044603
 C   -6.161332   -1.276760    1.606469
 C   -4.023027   -0.517324   -1.380075
 C   -4.980653   -2.770674    0.022514
 C   -3.473555    0.630073   -2.189767
 C   -2.459712    1.483330   -1.449728
 C   -2.452075    2.870786   -1.603574
 C   -1.514826    3.656276   -0.938803
 C   -0.561719    3.060785   -0.121095
 C    0.393482    0.981199    0.975568
 C    2.398406    1.860878   -0.225953
 C    5.206062   -0.524757   -0.398891
 C    7.398703   -1.842482   -1.449063
 C    6.326220   -1.395527   -2.211302
 C    6.363968   -0.426995    1.810714
 C   -5.343904   -1.421283    0.481970
 C   -4.865802   -0.297330   -0.211727
 C   -5.222976    0.981209    0.248332
 N   -3.695386   -1.701805   -1.785369
 N   -4.166776   -2.761746   -1.092962
 O   -5.336050   -3.818741    0.536932
 C   -0.553582    1.673211    0.035613
 C   -1.510110    0.896880   -0.614724
 O   -0.021037    0.125811    1.743800
 N    1.708057    1.393617    0.971624
 C    3.178451    0.725050   -0.889999
 N    4.087893    0.127486    0.080545
 C    3.375796   -0.379294    1.258712
 C    2.612144    0.758882    1.923493
 C    6.296300   -0.863028    0.449753
 C    7.381611   -1.549840   -0.093227
 N    5.261347   -0.771592   -1.712183
 N    6.439848   -0.062387    2.909681
 H   -6.298202    2.109447    1.712346
 H   -7.136667    0.110208    2.918641
 H   -6.506147   -2.172590    2.111723
 H   -4.298043    1.264482   -2.537887
 H   -3.008603    0.195267   -3.080591
 H   -3.193083    3.342866   -2.244757
 H   -1.533458    4.735825   -1.053523
 H    0.163493    3.669249    0.411702
 H    3.091428    2.660707    0.061156
 H    1.681344    2.267315   -0.938702
 H    8.227840   -2.369974   -1.905195
 H    6.311808   -1.555843   -3.287295
 H   -4.851158    1.865423   -0.257796
 H   -3.880568   -3.661408   -1.453578
 H   -1.512114   -0.177021   -0.451785
 H    3.757573    1.109675   -1.730102
 H    2.476194   -0.025320   -1.286458
 H    4.070546   -0.817334    1.972958
 H    2.662859   -1.159409    0.949713
 H    2.022619    0.381166    2.757808
 H    3.322336    1.510768    2.285729
 H    8.213747   -1.817841    0.549912
