33 
5edb_ligand_dft.xyz
 C   -0.954409   -2.555731    0.064923
 C    1.242281   -1.858507    0.056041
 C   -2.900490   -0.943468   -0.007545
 C    1.917258    0.489356   -0.081513
 C   -0.635847    2.113970    1.049173
 C   -1.073901    3.434854    1.039480
 C   -1.809407    3.917109   -0.039511
 C   -1.413228   -1.195285    0.032566
 C   -0.499400   -0.162053    0.009164
 C    0.892149   -0.487023    0.000094
 N    0.320761   -2.859194    0.096651
 C   -0.938324    1.261802   -0.019059
 O   -3.630576   -1.477411   -0.801370
 C    2.611709   -2.223400    0.061777
 C    3.228093    0.092745   -0.077623
 O   -3.403987   -0.110885    0.921298
 C    3.592478   -1.269638   -0.000232
Cl    4.495057    1.292025   -0.177450
 C   -1.922742   -3.707175    0.093751
 C   -1.678109    1.753549   -1.098051
 C   -2.108565    3.075468   -1.107560
 H    1.665244    1.540711   -0.155639
 H   -0.055082    1.737488    1.887440
 H   -0.838705    4.086435    1.875302
 H   -2.150136    4.947764   -0.047459
 H    2.851308   -3.280008    0.110965
 H   -2.691098    0.295849    1.434366
 H    4.641578   -1.544063    0.001377
 H   -2.662744   -3.592570    0.892721
 H   -2.478535   -3.765905   -0.845678
 H   -1.362222   -4.629848    0.248867
 H   -1.918989    1.093753   -1.926562
 H   -2.682684    3.447242   -1.950287
