44 
5edd_ligand_dft.xyz
 O    4.400102    4.363587    0.557919
 C    4.152944    3.199178    0.321350
 C    2.854075    2.548357    0.375314
 C    2.733697    1.238012    0.094820
 N    5.185161    2.320728   -0.063266
 C    5.095123    0.983124   -0.363152
 O    6.048416    0.303765   -0.704634
 N    3.817326    0.448862   -0.233711
 C    3.715865   -0.986048   -0.570213
 C    4.334537   -1.892409    0.493437
 C    3.147775   -2.201334    1.406075
 O    3.214482   -3.420625    2.101131
 O    2.353288   -1.358186   -0.644309
 C    2.003399   -2.285770    0.399414
 C    0.647694   -1.941564    0.981837
 O   -0.380657   -2.015724   -0.005843
 P   -0.650292   -0.722241   -0.936900
 O   -0.407815    0.562690   -0.258571
 O    0.140064   -1.038496   -2.285722
 N   -2.229239   -0.966207   -1.430886
 P   -3.508106    0.027647   -1.079525
 O   -3.387707    1.472525   -1.360511
 O   -4.678101   -0.788920   -1.784701
 O   -3.788091   -0.180631    0.524161
 P   -5.037937    0.717606    1.085409
 O   -5.107610    0.354155    2.627790
 O   -6.246627    0.406649    0.286692
 O   -4.478870    2.191301    1.120150
 H    1.984171    3.142462    0.617893
 H    1.765997    0.750815    0.083734
 H    6.110575    2.722437   -0.146354
 H    4.177926   -1.118585   -1.549514
 H    4.668984   -2.825502    0.029005
 H    5.186595   -1.425387    0.987150
 H    2.969297   -1.360933    2.095475
 H    3.866725   -3.336319    2.806070
 H    1.977075   -3.294572   -0.029429
 H    0.401842   -2.681914    1.746138
 H    0.654647   -0.945125    1.435722
 H    1.085605   -1.163264   -2.067913
 H   -2.464719   -1.856577   -1.856188
 H   -5.535849   -0.515115   -1.392115
 H   -5.857056   -0.230401    2.806633
 H   -4.017180    2.383125    0.272279
