47 
5edi_ligand_xtb.xyz
 C   -5.582506   -0.529855    0.062283
 C   -5.545313    0.857337    0.292593
 C   -4.450233   -1.260369   -0.202604
 C   -3.198973    0.801425   -0.011735
 N   -2.072408   -1.047781   -0.471343
 C    0.185484   -0.054522   -0.593327
 C    0.918529    0.477218    0.650013
 C    6.811237    0.127735   -0.340846
 C    7.552387   -1.157831   -0.706658
 C    7.189489   -2.088798    0.450068
 C    5.728204   -1.739006    0.721758
 C    2.351165    2.892032   -0.650982
 C   -4.409865   -2.727409   -0.455797
 C   -4.248183    3.011999    0.511122
 C   -4.359577    1.545197    0.261968
 N   -3.290784   -0.563783   -0.231449
 N   -1.926080    1.160114   -0.119108
 C   -1.283209    0.014984   -0.396230
 C    2.374121    0.603342    0.396397
 N    3.291940   -0.299082    0.680625
 C    4.446281    0.267185    0.236638
 N    4.279214    1.464155   -0.306163
 N    2.941947    1.668052   -0.199063
 N    5.644784   -0.331083    0.386126
Cl   -7.106072   -1.345348    0.113036
 H   -6.469862    1.374547    0.495049
 H    0.471352   -1.087106   -0.790434
 H    0.448695    0.556586   -1.460317
 H    0.771266   -0.214950    1.479221
 H    0.497173    1.449040    0.914770
 H    6.508060    0.722225   -1.205411
 H    7.424105    0.760847    0.312936
 H    8.625121   -1.005645   -0.807136
 H    7.165531   -1.560224   -1.643881
 H    7.799365   -1.850831    1.322165
 H    7.322827   -3.140576    0.205349
 H    5.435906   -1.893668    1.763129
 H    5.048506   -2.326150    0.090908
 H    1.641393    2.709718   -1.460521
 H    1.831526    3.394160    0.167749
 H    3.157372    3.526879   -1.012275
 H   -4.812799   -3.269451    0.398505
 H   -5.016533   -2.977490   -1.325028
 H   -3.381455   -3.030992   -0.629012
 H   -5.226567    3.483730    0.494713
 H   -3.786480    3.186154    1.482283
 H   -3.605822    3.465996   -0.239720
