41 
5edq_ligand_dft.xyz
 C   -2.099131   -1.558084   -0.181059
 C   -0.408500    3.302760   -0.595547
 C   -0.866006   -0.959563   -0.339132
 C   -1.739177    1.158719   -0.185647
 C   -1.563620    2.543912   -0.232834
 C   -2.491052    3.577689    0.106132
 C   -3.139105   -0.632605    0.033967
 C   -4.807850   -1.329964    1.755920
 C   -4.422457   -1.398227    0.276964
 N   -0.662704    0.337065   -0.369899
 N   -3.005598    0.661860    0.060607
 N   -1.941336    4.761019   -0.019896
 N   -0.635072    4.589162   -0.478626
 N    0.276875   -1.790997   -0.448832
 C    1.542242   -1.492453   -0.331543
 C    2.335920   -0.339800    0.019972
 C    2.115625    0.977706    0.391713
 C    3.243409    1.763097    0.677525
 C    4.529692    1.250334    0.600335
 C    4.747948   -0.092278    0.236733
 C    3.642012   -0.865782   -0.046037
 N    3.613102   -2.235893   -0.412132
 N    2.418691   -2.606211   -0.569360
Cl    6.347729   -0.728236    0.157422
 C   -2.667015   -2.942590   -0.070291
 O   -4.068422   -2.747760   -0.083372
 C   -5.552396   -0.941777   -0.633700
 H    0.534549    2.939184   -0.989675
 H   -3.510324    3.458385    0.452865
 H   -5.696055   -1.942351    1.935418
 H   -3.994988   -1.702565    2.388283
 H   -5.019973   -0.295304    2.041114
 H    0.114669   -2.773128   -0.668066
 H    1.114790    1.383725    0.439155
 H    3.097997    2.801087    0.957037
 H    5.385458    1.878981    0.821154
 H   -2.344397   -3.437603    0.860760
 H   -2.405830   -3.601275   -0.908636
 H   -5.256651   -1.034130   -1.682029
 H   -6.441168   -1.556189   -0.463509
 H   -5.793026    0.104666   -0.426925
