68 
5ee7_ligand_xtb.xyz
 N   -3.315378   -0.957963    0.936738
 N    4.763888   -2.278593   -0.695103
 C   -7.753458    0.698987   -0.826599
 C   -7.300147   -0.513351   -0.327623
 C   -5.987527   -0.687194    0.063562
 C   -3.710507    0.182165    0.374371
 C   -2.617368    1.065953    0.274857
 C    1.750138    1.201423    2.404354
 C    0.545107    1.266546   -0.100154
 C    2.500167    1.657668    1.300782
 C    4.527022    2.556938    0.353817
 C   -1.265564   -1.922481    1.769628
 C    2.378265   -2.435852   -0.455059
 C    2.401592   -2.425306    0.935238
 C    0.016358   -2.101416    0.990487
 C    1.159481   -2.298728   -1.112666
 C    3.600683   -2.641402   -1.287348
 C   -5.088424    0.374465   -0.041650
 C   -5.528237    1.599094   -0.540648
 C   -6.848808    1.743872   -0.924278
Cl   -7.391028    3.264558   -1.539780
Cl   -8.410142   -1.829599   -0.197144
 C   -1.550468    0.386455    0.827383
 C    0.456232    0.794333    2.254397
 C   -0.162622    0.812947    0.987402
 C    1.878334    1.693190    0.027000
 C    3.834396    2.092018    1.440471
 C    3.908281    2.594861   -0.916903
 C    2.624126    2.169232   -1.073547
 C   -0.008986   -2.129995   -0.398754
 N   -2.030936   -0.825068    1.212453
 O    5.824049    3.006247    0.374631
 C    6.531024    2.936797    1.595250
 O    3.552515   -3.129732   -2.401274
 C    6.021098   -2.325415   -1.401141
 C    6.362072   -0.979967   -2.049183
 C    6.401261    0.143876   -1.042433
 O    6.114913    0.035276    0.126301
 O    6.772216    1.292324   -1.588671
 C   -2.098213   -3.202623    1.738357
 C    1.228443   -2.262001    1.647266
 H    4.751012   -1.677936    0.115788
 H   -8.780055    0.825073   -1.128990
 H   -5.638797   -1.629976    0.451252
 H   -2.598262    2.058102   -0.125636
 H    2.215093    1.188709    3.379763
 H    0.078089    1.290398   -1.074095
 H   -1.023801   -1.686890    2.815117
 H    3.328286   -2.568155    1.470465
 H    1.150624   -2.333086   -2.191528
 H   -4.851530    2.433276   -0.625842
 H   -0.114937    0.476270    3.114345
 H    4.283273    2.043275    2.419733
 H    4.480251    2.968982   -1.752309
 H    2.156958    2.195476   -2.046887
 H   -0.947963   -2.015117   -0.920789
 H    6.610291    1.900939    1.936962
 H    7.523712    3.333400    1.386685
 H    6.053119    3.548256    2.364820
 H    5.930809   -3.091174   -2.174498
 H    6.804813   -2.606481   -0.692628
 H    7.322723   -1.026905   -2.563182
 H    5.602376   -0.724199   -2.791888
 H    6.670938    2.027903   -0.940724
 H   -2.356638   -3.456449    0.714433
 H   -1.524810   -4.017650    2.171966
 H   -3.016248   -3.064055    2.301523
 H    1.255485   -2.258373    2.727538
