35 
5ee8_ligand_xtb.xyz
 B   -4.145718   -0.248741    0.315523
 O   -4.527343    0.938081    0.830186
 O   -4.948931   -1.313487    0.132909
 N   -0.606004   -1.846099    0.082820
 N   -0.289928   -2.370493   -1.101889
 N    0.970476   -2.370059   -1.239331
 C   -2.594459   -0.413298   -0.093585
 C   -1.967617   -1.686993    0.505542
 N   -1.784637    0.743523    0.236676
 C   -1.315594    1.569414   -0.728648
 C   -0.512162    2.749768   -0.181327
 C    0.843820    2.259644    0.200664
 C    1.328005    1.989200    1.444641
 C    2.658547    1.513703    1.427270
 C    3.157738    1.418575    0.169317
 O   -1.458371    1.357394   -1.909804
 C    1.540397   -1.842719   -0.128280
 C    0.514141   -1.494925    0.736786
 C    2.983628   -1.734650    0.088271
 O    3.260126   -1.584204    1.402556
 O    3.846948   -1.777860   -0.744420
 S    2.017136    1.899473   -1.021429
 H   -5.455283    1.070591    1.030004
 H   -5.882809   -1.225117    0.329980
 H   -2.526269   -0.498416   -1.186095
 H   -1.987436   -1.644484    1.597366
 H   -2.543249   -2.546761    0.159926
 H   -1.783769    1.052694    1.194936
 H   -0.435440    3.494440   -0.974400
 H   -1.013806    3.185992    0.683698
 H    0.766331    2.146598    2.349586
 H    3.210617    1.260221    2.314502
 H    4.129525    1.093066   -0.144255
 H    0.528197   -1.045489    1.706092
 H    4.220357   -1.515005    1.520649
