44 
5eef_ligand_xtb.xyz
 O    6.475264   -2.546615   -0.572571
 O    4.405065   -1.406789   -1.631640
 O   -2.038557    3.366647   -1.084890
 N    5.581501   -1.814391    0.217057
 N   -4.077886   -2.512288    0.173398
 C   -2.150859    1.199222   -0.184577
 C   -1.676896    0.220101    0.692104
 C   -2.308785   -0.994964    0.810811
 C   -3.455165   -1.305595    0.056545
 C   -3.932631   -0.314953   -0.821235
 C   -3.296683    0.895483   -0.929820
 C   -1.536860    2.517918   -0.375522
 C   -0.213405    2.782701    0.354580
 C    0.824106    1.825577   -0.140174
 C    1.790685    1.219029    0.567878
 C    2.704612    0.342125   -0.128876
 C    3.734680   -0.332172    0.404547
 C    4.571046   -1.183384   -0.439251
 C    0.249449    4.219447    0.089827
 C    1.987470    1.389621    2.046335
 C   -5.285935   -2.787263   -0.565298
 C   -3.542461   -3.535116    1.037618
 H    6.054176   -2.491121   -1.459934
 H    5.992438   -1.524452    1.088732
 H   -0.803818    0.402389    1.297801
 H   -1.906478   -1.713033    1.506244
 H   -4.804664   -0.496117   -1.427201
 H   -3.671854    1.646823   -1.608900
 H   -0.394676    2.659285    1.426515
 H    0.791998    1.654055   -1.208886
 H    2.538115    0.216703   -1.191536
 H    3.991948   -0.279176    1.451125
 H    1.168982    4.426229    0.632261
 H   -0.520548    4.919268    0.404380
 H    0.424189    4.364194   -0.973143
 H    2.979864    1.793290    2.242154
 H    1.257552    2.067887    2.476384
 H    1.908823    0.426679    2.550313
 H   -5.102753   -2.779672   -1.644362
 H   -6.061241   -2.050350   -0.337236
 H   -5.663953   -3.769321   -0.292359
 H   -3.574435   -3.226552    2.087693
 H   -2.507473   -3.768942    0.773215
 H   -4.129887   -4.443919    0.933409
