39 
5eei_ligand_dft.xyz
 O   -6.417888   -1.521529    0.481819
 O   -4.160536   -2.533510   -0.234516
 N   -5.292316   -0.707124    0.388968
 C   -4.177824   -1.313081   -0.117197
 C   -2.981328   -0.430251   -0.397506
 C   -3.272198    1.049624   -0.665142
 C   -2.032271    1.839378   -1.096553
 C   -0.934548    1.906528   -0.034450
 C    0.238150    2.787987   -0.466073
 C    1.348592    2.884876    0.593957
 C    1.922198    1.516245    0.932103
 O    1.556281    0.883461    1.907499
 N    2.828516    1.055031    0.008714
 C    3.483889   -0.191539   -0.048914
 C    4.356726   -0.405948   -1.121384
 C    5.033791   -1.611276   -1.247373
 C    4.850243   -2.620206   -0.305964
 C    3.982396   -2.403174    0.759156
 C    3.296410   -1.200506    0.900628
 H   -6.033986   -2.393862    0.248332
 H   -5.558572    0.219476    0.088840
 H   -2.466402   -0.881915   -1.251862
 H   -2.308247   -0.541385    0.460715
 H   -3.690896    1.515597    0.237458
 H   -4.029865    1.135141   -1.455567
 H   -2.343283    2.859325   -1.357881
 H   -1.625011    1.395960   -2.015931
 H   -0.565210    0.900074    0.192951
 H   -1.352179    2.295205    0.904537
 H   -0.123310    3.801028   -0.682455
 H    0.656598    2.402170   -1.406149
 H    0.944216    3.292405    1.523991
 H    2.138329    3.561885    0.245461
 H    3.050517    1.686878   -0.746701
 H    4.506162    0.376748   -1.862453
 H    5.706958   -1.759683   -2.086432
 H    5.378078   -3.563629   -0.402488
 H    3.829995   -3.181494    1.501064
 H    2.624503   -1.034571    1.730637
