34 
5een_ligand_xtb.xyz
 O   -5.194480    0.544760   -1.996132
 C   -5.256263    0.624430   -0.796890
 N   -5.913739    1.401238    0.029642
 O   -6.559388    1.327162    1.043937
 C   -4.145637    0.139458    0.138658
 C   -2.921979   -0.023498   -0.367579
 C   -1.781281   -0.616074    0.308030
 C   -0.596652   -0.787887   -0.415994
 C   -1.803104   -1.016964    1.648009
 C   -0.685777   -1.574846    2.242023
 C    0.482197   -1.744070    1.513704
 C    0.508251   -1.338831    0.193511
 S    2.012914   -1.562618   -0.753673
 O    2.370378   -2.948302   -0.728523
 O    1.875584   -0.896095   -2.011856
 N    3.156792   -0.814394    0.218313
 C    3.409866    0.555739    0.177441
 C    4.684270    1.046247    0.448489
 C    4.919907    2.408273    0.443016
 C    3.894096    3.294182    0.160518
 C    2.626756    2.806901   -0.110513
 C    2.378088    1.446532   -0.096957
 H   -4.439087   -0.120650    1.143052
 H   -2.753759    0.281884   -1.393054
 H   -0.522992   -0.495211   -1.452666
 H   -2.700209   -0.890038    2.232694
 H   -0.724942   -1.880364    3.276270
 H    1.364312   -2.184257    1.949024
 H    3.961154   -1.402341    0.374021
 H    5.486475    0.354545    0.662554
 H    5.912510    2.777408    0.653892
 H    4.081855    4.356753    0.149637
 H    1.821124    3.490432   -0.333057
 H    1.392390    1.068051   -0.311506
