49 
5ef8_ligand_xtb.xyz
 O   -6.001266   -2.014430    0.685713
 C   -5.890347   -1.266236   -0.279630
 N   -6.786932   -1.372655   -1.303660
 O   -7.885295   -2.208420   -1.070529
 C   -4.835437   -0.286775   -0.491324
 C   -3.871680   -0.118310    0.438965
 C   -2.779070    0.812830    0.407699
 C   -2.549563    1.693855   -0.663005
 C   -1.499973    2.580713   -0.636286
 C   -1.894848    0.869297    1.498682
 C   -0.846443    1.759054    1.524986
 C   -0.634028    2.632820    0.458648
 C    0.517464    3.587731    0.447335
 N    1.614815    3.086424   -0.451053
 C    2.355475    1.869653    0.053208
 C    1.788558    0.553546   -0.466413
 C    2.732668   -0.506102    0.002833
 C    4.019855   -0.766286   -0.524816
 C    4.571891   -1.763965    0.343371
 N    3.692540   -2.081463    1.338920
 C    2.612832   -1.331928    1.134673
 C    1.434166   -1.405994    2.049582
 C    5.847346   -2.257005    0.114150
 C    6.564394   -1.762114   -0.961422
 C    6.029151   -0.793706   -1.809879
 C    4.760218   -0.289919   -1.603181
 H   -7.000910   -0.646802   -1.967645
 H   -7.642819   -2.624568   -0.212100
 H   -4.875085    0.284333   -1.406244
 H   -3.935875   -0.751537    1.315019
 H   -3.205044    1.678488   -1.518782
 H   -1.352662    3.258217   -1.468278
 H   -2.046203    0.197790    2.329766
 H   -0.184683    1.784906    2.378125
 H    0.936666    3.713392    1.446597
 H    0.204014    4.563510    0.065988
 H    2.282111    3.843883   -0.625177
 H    1.187524    2.815651   -1.346178
 H    2.335703    1.878971    1.141935
 H    3.394383    1.943808   -0.272687
 H    1.754996    0.574667   -1.561186
 H    0.784141    0.375950   -0.082625
 H    1.358082   -0.505092    2.662538
 H    0.507598   -1.513620    1.484952
 H    1.551471   -2.260533    2.709144
 H    6.267066   -3.010269    0.764372
 H    7.562115   -2.133065   -1.154775
 H    6.619647   -0.434617   -2.643150
 H    4.351517    0.456241   -2.279586
