40 
5efh_ligand_xtb.xyz
 C    5.774746    1.865112   -0.652382
 C    6.266900    1.091734    0.531124
 C    5.565675    2.398636    0.730236
 C    2.852332   -0.786306    0.204439
 C    1.443948   -1.203148    0.644811
 C    0.367798   -0.328119    0.009151
 C   -1.033156   -0.762466    0.429244
 C   -2.107036    0.111923   -0.215090
 C   -3.509927   -0.330472    0.218028
 C   -4.558407    0.650162   -0.400356
 F   -4.443966    1.875501    0.146532
 F   -5.810905    0.238482   -0.171750
 F   -4.425204    0.799747   -1.720248
 N    3.926854   -1.581606    0.779845
 N    5.915285   -1.671807   -1.761218
 O   -3.760347   -1.606613   -0.241057
 O   -3.702792   -0.315812    1.604292
 H    6.499468    2.356663   -1.284132
 H    4.918100    1.486046   -1.188899
 H    7.331205    1.053656    0.709231
 H    5.744941    0.185540    0.797943
 H    4.566189    2.387507    1.138130
 H    6.147608    3.252355    1.043016
 H    3.028447    0.256164    0.483651
 H    2.934040   -0.866242   -0.882896
 H    1.372256   -1.136463    1.734583
 H    1.275231   -2.246083    0.363556
 H    0.453881   -0.385635   -1.077552
 H    0.530946    0.712574    0.299521
 H   -1.124315   -0.710656    1.516385
 H   -1.205935   -1.796687    0.129717
 H   -2.052528    0.025217   -1.300656
 H   -1.965806    1.160204    0.059372
 H    3.902061   -1.517214    1.793564
 H    3.795061   -2.559636    0.538363
 H    5.344226   -1.590796   -0.925613
 H    6.751524   -2.181876   -1.501137
 H    6.206985   -0.733799   -2.010342
 H   -4.499168   -1.980952    0.257866
 H   -3.400846    0.517492    1.984026
