117 
5eg4_ligand_dft.xyz
 C   -2.750951   -4.466996    0.605247
 C   -2.795217   -3.375387    1.644144
 C   -3.923792   -2.564911    1.787448
 C   -3.894115   -1.437622    2.599366
 C   -2.701953   -1.068064    3.221100
 C   -1.603908   -1.919994    3.167284
 C   -2.590468   -2.695842   -1.268877
 N   -4.004429    4.172826   -0.145312
 O   -1.794332    2.322899    3.692805
 C   -4.313324   -1.741700   -2.716929
 N   -6.348833    3.935432   -0.126476
 O    5.686296    4.020743   -0.908867
 C   -4.531919   -0.381573   -2.090528
 N   -2.556810    0.198612    3.870948
 O    0.880178    0.135468    0.958285
 C   -4.025585    0.754632   -2.723590
 N   -1.690722    2.827921    0.166378
 O    1.146488   -2.226771    1.690505
 C   -4.233528    2.019170   -2.186968
 N    1.197276    3.248928   -0.158742
 O   -0.247272   -4.009809   -2.749651
 C   -4.968515    2.166274   -1.009888
 N    5.249779    2.139373   -2.076026
 C   -5.099376    3.518247   -0.399361
 N    1.008978   -1.542502   -0.831534
 C   -5.518339    1.038092   -0.395869
 N    3.083149   -1.199149    0.539158
 C   -5.285984   -0.226193   -0.926699
 N   -0.604789   -3.875638   -0.512890
 C   -1.668458   -3.083308    2.412212
 C   -2.400160    1.377809    3.201129
 C   -3.037573    1.498942    1.823256
 C   -2.043327    1.448604    0.656669
 C   -0.894326    3.645439    1.127951
 C    0.557582    3.202747    1.205305
 C    2.667903    2.882707   -0.160459
 C    3.375685    3.624953   -1.290649
 C    4.866905    3.275811   -1.400024
 C    4.507789    0.976592   -2.397344
 C    3.281364    1.016135   -3.064951
 C    2.540683   -0.148913   -3.226135
 C    3.018326   -1.387873   -2.795834
 C    4.313308   -1.435828   -2.276364
 C    5.041426   -0.269888   -2.055145
 C    2.114527   -2.592221   -2.814578
 C    1.412852   -2.822000   -1.454930
 C    3.962312   -1.094278    1.722177
 C    5.257252   -1.860301    1.446532
 C    6.223823   -1.744331    2.629380
 C    6.511731   -0.281071    2.975813
 C    5.215787    0.482966    3.258235
 C    4.241416    0.369631    2.081831
 C    0.129191   -3.656786   -1.649558
 C    0.412830    2.395904   -1.117460
 C   -1.039019    2.833258   -1.168758
 C   -2.032086   -4.021243   -0.690026
 N   -3.836346   -2.765779   -1.795361
 O   -1.944676   -1.648456   -1.281310
 S    1.464679   -1.198487    0.712308
 H   -2.227914   -5.353200    0.977739
 H   -3.766862   -4.783673    0.347480
 H   -4.838946   -2.820160    1.260385
 H   -4.786953   -0.835227    2.737054
 H   -0.682735   -1.660361    3.678458
 H   -4.167209    5.102533    0.238259
 H   -5.258766   -2.102456   -3.132528
 H   -3.606140   -1.645947   -3.548475
 H   -6.525189    4.840325    0.287007
 H   -7.144030    3.449902   -0.514240
 H   -2.074547    0.196077    4.763761
 H   -3.465184    0.648020   -3.648388
 H   -2.643344    3.372519    0.027107
 H   -3.843113    2.901211   -2.686555
 H    1.141513    4.220777   -0.482904
 H    6.257433    2.026819   -2.046014
 H    0.007924   -1.339199   -0.947749
 H   -6.102430    1.145904    0.514146
 H    3.392060   -0.671787   -0.273353
 H   -5.693224   -1.101808   -0.430799
 H   -0.293657   -3.415507    0.335123
 H   -0.806072   -3.742042    2.392098
 H   -3.770382    0.717046    1.649671
 H   -3.583913    2.446663    1.820553
 H   -2.498309    0.934811   -0.193121
 H   -1.129032    0.909721    0.914109
 H   -1.336639    3.542174    2.126159
 H   -0.978241    4.688798    0.803213
 H    1.111747    3.881495    1.856779
 H    0.671261    2.181043    1.573045
 H    3.079150    3.171628    0.809136
 H    2.715070    1.796105   -0.248434
 H    2.869124    3.465147   -2.243278
 H    3.372378    4.698160   -1.078581
 H    2.922345    1.942121   -3.499739
 H    1.569128   -0.096372   -3.710307
 H    4.739867   -2.387931   -1.973260
 H    6.024455   -0.325631   -1.595283
 H    1.342275   -2.476935   -3.579359
 H    2.664150   -3.503221   -3.070028
 H    2.089162   -3.337821   -0.765484
 H    3.435529   -1.584081    2.548067
 H    5.020940   -2.907240    1.231301
 H    5.731331   -1.441499    0.547798
 H    5.788049   -2.247451    3.502698
 H    7.152982   -2.272673    2.395697
 H    7.039974    0.196324    2.138627
 H    7.178083   -0.222930    3.841631
 H    4.739535    0.074126    4.159137
 H    5.427111    1.537295    3.464314
 H    4.682304    0.860228    1.197805
 H    3.295298    0.879116    2.306540
 H    0.527104    1.367839   -0.766484
 H    0.866678    2.486821   -2.105223
 H   -1.143150    3.847801   -1.570109
 H   -1.593237    2.158355   -1.823247
 H   -2.179549   -4.795038   -1.449535
 H   -4.248914   -3.683201   -1.889410
