40 
5egs_ligand_xtb.xyz
 C   -2.451393    2.284057    1.026801
 C    2.897296    1.016620    0.685557
 C   -3.726466    2.237105    0.490496
 C   -4.003179    1.355456   -0.540770
 C   -0.664204   -0.364330   -1.011763
 C   -0.863751   -1.799191   -0.491494
 C   -0.772296   -1.886988    1.036694
 C    0.671054   -1.726810    1.527003
 C    1.553047   -2.568352   -0.533667
 C    0.148045   -2.769633   -1.114209
 C   -1.460576    1.451552    0.536333
 C   -3.010487    0.525565   -1.029030
 C   -1.727276    0.561644   -0.496254
 N    1.592267   -2.667025    0.913938
 C    2.504152    1.515166   -0.469955
 N    5.670128    3.078654   -0.571534
 H   -2.227581    2.971650    1.829747
 H    3.488884    0.117740    0.752114
 H    2.644444    1.485306    1.623604
 H   -4.500746    2.886216    0.872335
 H   -4.995351    1.316484   -0.966834
 H   -0.705822   -0.390696   -2.103920
 H    0.316613    0.009678   -0.719595
 H   -1.872169   -2.113326   -0.789303
 H   -1.143918   -2.866284    1.353638
 H   -1.406345   -1.125177    1.493129
 H    0.714023   -1.865194    2.610531
 H    1.035342   -0.721315    1.300820
 H    1.931837   -1.579555   -0.804126
 H    2.236678   -3.315821   -0.944984
 H    0.175223   -2.642761   -2.198117
 H   -0.173069   -3.794667   -0.905558
 H   -0.466128    1.494051    0.958014
 H   -3.230983   -0.157106   -1.837884
 H    1.335477   -3.612038    1.189724
 H    1.908002    2.411680   -0.536682
 H    2.760202    1.051141   -1.409531
 H    4.693683    2.805738   -0.570781
 H    5.859880    3.532347    0.313901
 H    6.221262    2.229348   -0.601534
