66 
5egu_ligand_xtb.xyz
 C    2.628173    5.009413   -0.298055
 C    4.062563    4.856346    0.194400
 C    4.454199    3.402274    0.451258
 C    4.518046    2.577652   -0.834251
 N    4.945506    1.218848   -0.557088
 C    6.280308    0.889693   -0.608326
 O    7.142376    1.679564   -0.917109
 N    6.589296   -0.423328   -0.289054
 C    5.760226   -1.476478    0.093663
 O    6.208064   -2.574135    0.352578
 C    4.398418   -1.033680    0.123256
 N    3.219898   -1.678980    0.416309
 C    3.108203   -3.058744    0.820672
 C    3.318079   -3.209368    2.324652
 C    4.039087    0.271717   -0.190082
 N    2.702993    0.427900   -0.086850
 C    2.241194   -0.756759    0.281702
 C    0.807182   -1.023604    0.505044
 S    0.129533   -2.123199   -0.820320
 C   -1.546198   -1.756781   -0.628694
 N   -2.480193   -2.338000   -1.390185
 N   -1.996434   -0.886392    0.272115
 N   -3.316248   -0.904701    0.068704
 C   -4.273526   -0.199010    0.696311
 C   -3.838886    0.724627    1.784867
 C   -3.609816   -1.805631   -0.959993
 N   -4.849020   -2.014080   -1.352899
 C   -5.811577   -1.344502   -0.758809
 C   -7.191546   -1.648408   -1.245312
 C   -5.574916   -0.410437    0.283022
 C   -6.699386    0.370566    0.901657
 C   -6.942539    1.682463    0.144028
 C   -8.095952    2.480590    0.746214
 C   -8.324920    3.787170   -0.003418
 H    2.502762    4.572425   -1.284700
 H    1.938537    4.519165    0.385284
 H    2.362188    6.062281   -0.358670
 H    4.177262    5.412500    1.127349
 H    4.749337    5.290155   -0.534959
 H    3.732836    2.940617    1.128981
 H    5.438292    3.374780    0.924513
 H    5.242479    3.013757   -1.525215
 H    3.534427    2.512098   -1.299137
 H    7.578425   -0.640829   -0.343942
 H    3.880898   -3.620322    0.291391
 H    2.125512   -3.429027    0.521638
 H    4.326367   -2.901500    2.589461
 H    2.606175   -2.603353    2.881322
 H    3.189555   -4.249995    2.607363
 H    0.252095   -0.090325    0.453908
 H    0.624220   -1.520611    1.457468
 H   -4.166810    0.346021    2.752749
 H   -2.753837    0.786331    1.783512
 H   -4.259473    1.717360    1.646400
 H   -7.118285   -2.335103   -2.082969
 H   -7.776684   -2.116478   -0.454800
 H   -7.705316   -0.743834   -1.561669
 H   -6.464343    0.597554    1.942507
 H   -7.613961   -0.222262    0.889752
 H   -7.162086    1.463833   -0.902970
 H   -6.034674    2.289392    0.163313
 H   -7.878735    2.696381    1.794886
 H   -9.007062    1.879017    0.714522
 H   -7.434285    4.410726    0.034035
 H   -8.560974    3.592259   -1.047236
 H   -9.149974    4.341196    0.437065
