66 
5egu_ligand_dft.xyz
 C    4.624321    4.910541   -0.969196
 C    5.766245    4.407098   -0.084287
 C    5.601865    2.956911    0.378796
 C    5.621099    1.956397   -0.775372
 N    5.505911    0.577895   -0.304048
 C    6.648827   -0.121278    0.041473
 O    7.770393    0.337667   -0.062222
 N    6.435327   -1.416152    0.522074
 C    5.238526   -2.106491    0.749737
 O    5.223119   -3.237740    1.208102
 C    4.124972   -1.280605    0.378835
 N    2.762737   -1.498551    0.423279
 C    2.111295   -2.706000    0.927378
 C    2.043314   -2.716834    2.449215
 C    4.273081   -0.000862   -0.104374
 N    3.076951    0.581248   -0.347403
 C    2.188211   -0.350444   -0.010308
 C    0.714897   -0.148857   -0.100648
 S    0.057902   -0.972974   -1.601781
 C   -1.656515   -0.880428   -1.242004
 N   -2.552751   -1.398999   -2.101135
 N   -2.131946   -0.310716   -0.132554
 N   -3.465338   -0.489507   -0.306036
 C   -4.452817   -0.087018    0.540665
 C   -4.001437    0.632503    1.770017
 C   -3.709862   -1.144854   -1.496020
 N   -4.956698   -1.429009   -1.892002
 C   -5.938673   -1.060866   -1.092490
 C   -7.326932   -1.399401   -1.567337
 C   -5.742006   -0.385771    0.159121
 C   -6.922070    0.035889    1.003035
 C   -7.381401    1.470896    0.708597
 C   -8.598561    1.884933    1.534420
 C   -9.048068    3.315766    1.245477
 H    4.588014    4.385211   -1.929422
 H    3.655651    4.766668   -0.476776
 H    4.738023    5.977759   -1.185092
 H    5.840917    5.045692    0.803848
 H    6.720673    4.511512   -0.617077
 H    4.656007    2.846300    0.924729
 H    6.413519    2.697921    1.068223
 H    6.558363    2.027842   -1.331129
 H    4.787070    2.123947   -1.459653
 H    7.284773   -1.909959    0.763647
 H    2.691645   -3.557170    0.567834
 H    1.118926   -2.757549    0.473663
 H    3.052665   -2.724326    2.869031
 H    1.504492   -1.841623    2.826910
 H    1.524245   -3.617622    2.789815
 H    0.515442    0.921553   -0.154241
 H    0.195715   -0.555087    0.770935
 H   -3.362392   -0.019576    2.374204
 H   -3.393395    1.497782    1.488628
 H   -4.843485    0.970025    2.373000
 H   -7.264074   -1.810126   -2.575484
 H   -7.794821   -2.145390   -0.914492
 H   -7.976998   -0.518213   -1.578146
 H   -6.679388   -0.056735    2.067533
 H   -7.758073   -0.650331    0.835139
 H   -7.610837    1.567207   -0.361337
 H   -6.550446    2.163310    0.901621
 H   -8.363853    1.780435    2.602274
 H   -9.425038    1.190628    1.332453
 H   -8.249068    4.031767    1.468999
 H   -9.317734    3.437488    0.190330
 H   -9.920280    3.588024    1.847901
