58 
5eh0_ligand_dft.xyz
 C    4.093851   -2.080063   -0.053870
 N    5.033224    0.512611   -0.549334
 C   -2.124751    0.366147    0.274657
 C   -3.372935   -0.227850    0.110152
 C   -3.436409   -1.625374   -0.001780
 C   -2.283343   -2.391772    0.042745
 C   -3.476633   -4.441623   -0.154982
 C   -4.603577    0.570840    0.057021
 C   -5.910572    0.203800    0.453527
 C   -4.757936    1.872284   -0.385909
 C    5.488202   -1.823148   -0.123853
 C    3.188496    2.670828   -0.934993
 C    2.973279    3.564959    0.305830
 C    3.845269    3.071706    1.466328
 C    1.496100    3.538387    0.720783
 C    3.375183    4.994601   -0.077069
 N    2.843745    1.283392   -0.733889
 C    3.734653    0.287485   -0.508728
 C    5.879110   -0.533327   -0.357131
 C    3.193138   -1.025138   -0.228071
 N    1.851632   -1.173259   -0.140153
 C    1.412426   -2.390511    0.111330
 N    2.188807   -3.508602    0.264748
 C    3.481969   -3.339599    0.185358
 N    0.077812   -2.647474    0.239133
 C   -1.017618   -1.782214    0.187804
 O   -2.251695   -3.751742   -0.047779
 C   -0.960718   -0.397140    0.312555
 N   -6.062390    2.195167   -0.234237
 C   -6.724058    3.419286   -0.625568
 N   -6.785224    1.185087    0.274697
 H   -2.051346    1.442260    0.402478
 H   -4.401136   -2.097907   -0.147683
 H   -4.121438   -4.246097    0.710891
 H   -4.009128   -4.167558   -1.074077
 H   -3.223622   -5.501813   -0.187034
 H   -6.238417   -0.730833    0.889451
 H   -4.047699    2.569876   -0.806572
 H    6.211281   -2.620309    0.013071
 H    4.238835    2.703986   -1.236900
 H    2.587153    3.060087   -1.767375
 H    3.562510    2.057477    1.767100
 H    4.902852    3.051048    1.182953
 H    3.731562    3.726492    2.338331
 H    0.846275    3.867651   -0.100159
 H    1.186621    2.530582    1.022211
 H    1.320744    4.203250    1.574135
 H    4.428701    5.040233   -0.377034
 H    2.769277    5.369116   -0.911355
 H    3.237450    5.676784    0.769420
 H    1.874856    1.002110   -0.711543
 H    6.934884   -0.278461   -0.404691
 H    4.099777   -4.228657    0.312235
 H   -0.146934   -3.628890    0.321986
 H   -0.000269    0.076413    0.455269
 H   -5.978337    4.209553   -0.730909
 H   -7.252040    3.287952   -1.574614
 H   -7.440853    3.695750    0.149087
