58 
5eh0_ligand_xtb.xyz
 C    4.113330   -2.039072   -0.019048
 N    5.045593    0.554873   -0.481432
 C   -2.071794    0.334327   -0.010530
 C   -3.328768   -0.262026   -0.007124
 C   -3.403747   -1.658038    0.037971
 C   -2.262729   -2.432718    0.076633
 C   -3.479374   -4.485058    0.164362
 C   -4.542891    0.534605   -0.043826
 C   -5.883991    0.096116    0.021105
 C   -4.664652    1.912980   -0.147313
 C    5.496221   -1.758903   -0.035560
 C    3.241570    2.699804   -0.898884
 C    2.815045    3.556091    0.313763
 C    3.472260    3.011606    1.581768
 C    1.291989    3.532647    0.467617
 C    3.280942    4.991893    0.066056
 N    2.882120    1.316415   -0.776880
 C    3.747286    0.326577   -0.492754
 C    5.884257   -0.465892   -0.254907
 C    3.204710   -0.981281   -0.234267
 N    1.873338   -1.150455   -0.192202
 C    1.436303   -2.372769    0.043505
 N    2.220859   -3.467222    0.219935
 C    3.510918   -3.299625    0.193908
 N    0.112306   -2.651194    0.120109
 C   -0.992420   -1.817953    0.066223
 O   -2.249553   -3.805584    0.129162
 C   -0.923464   -0.432931    0.025236
 N   -5.978559    2.202856   -0.139425
 C   -6.590414    3.496540   -0.225145
 N   -6.724043    1.108030   -0.037037
 H   -1.984609    1.409108   -0.036530
 H   -4.374522   -2.124445    0.040067
 H   -4.065480   -4.209429    1.046995
 H   -4.068905   -4.296524   -0.738577
 H   -3.228604   -5.543726    0.214958
 H   -6.267421   -0.900226    0.110026
 H   -3.928015    2.686242   -0.226998
 H    6.211398   -2.549223    0.129775
 H    4.327413    2.728922   -1.004409
 H    2.782276    3.107852   -1.806440
 H    3.143526    1.993856    1.778981
 H    4.553990    3.002739    1.474604
 H    3.211730    3.627610    2.439619
 H    0.807209    3.848781   -0.454173
 H    0.939551    2.535985    0.723188
 H    0.985839    4.208436    1.263224
 H    4.361023    5.027466   -0.052654
 H    2.823013    5.395283   -0.834604
 H    3.007553    5.629358    0.903647
 H    1.906946    1.061481   -0.739536
 H    6.930584   -0.188956   -0.263009
 H    4.116586   -4.186030    0.343703
 H   -0.098887   -3.633385    0.240640
 H    0.048801    0.028075    0.029234
 H   -6.273253    4.129332    0.606176
 H   -6.328020    3.986814   -1.164846
 H   -7.668113    3.354630   -0.180586
