39 
5ehv_ligand_dft.xyz
 O   -7.507023   -2.268412    0.097444
 C   -6.156698   -2.185388    0.101298
 O   -5.493575   -3.190018    0.159137
 C   -5.592331   -0.811036    0.030859
 C   -4.263767   -0.648927    0.029161
 C   -3.511983    0.609174   -0.034747
 C   -2.111087    0.528272   -0.056847
 C   -1.339082    1.685950   -0.118904
 O    0.018116    1.705938   -0.147048
 C    0.712125    0.478381   -0.061190
 C    2.194201    0.756216   -0.032598
 C    2.696093    1.925211    0.541154
 C    4.067935    2.138944    0.595323
 C    4.948351    1.188194    0.084527
 C    4.462159    0.011244   -0.491329
 C    5.407392   -1.048120   -1.000937
 C    5.804481   -2.119441    0.023107
 O    5.655597   -1.800166    1.320761
 O    6.261099   -3.180949   -0.304991
 C    3.080251   -0.188591   -0.543179
 C   -1.963101    2.935582   -0.161773
 C   -3.347555    3.014820   -0.139256
 C   -4.125731    1.863652   -0.075086
 H   -7.901187   -1.388331    0.047892
 H   -6.272810    0.036514   -0.019903
 H   -3.673504   -1.563054    0.079424
 H   -1.647408   -0.451679   -0.028191
 H    0.462734   -0.163665   -0.917264
 H    0.414152   -0.053955    0.854651
 H    2.007392    2.667641    0.928933
 H    4.455710    3.053860    1.032632
 H    6.020596    1.366707    0.119508
 H    6.344211   -0.593787   -1.344984
 H    4.989145   -1.583181   -1.857102
 H    5.240871   -0.927137    1.400243
 H    2.694316   -1.099789   -0.996656
 H   -1.344549    3.825338   -0.212353
 H   -3.826283    3.988636   -0.171294
 H   -5.207018    1.949908   -0.055474
