46 
5ei4_ligand_dft.xyz
 C    0.620994   -0.911348   -0.625376
 C   -0.205349   -1.637019    0.200930
 C    0.102870   -2.973214    0.630192
 C   -1.024408    0.345565   -0.188579
 N    1.323073   -3.380096    0.073623
 N    1.799700   -1.417951   -1.124913
 C    3.274777    1.566974   -0.744893
 C    4.108042    2.337082    0.059645
 C    5.291641    1.781719    0.531201
Cl    6.347432    2.742777    1.542844
 C    5.651941    0.476361    0.214550
 C    4.809821   -0.280742   -0.591854
 C    3.617288    0.257076   -1.079732
 C    2.694058   -0.583918   -1.931613
 C    2.207745   -2.687355   -0.752543
 O    3.256582   -3.185825   -1.116914
 O   -0.542909   -3.700738    1.364997
 N   -1.277601   -0.810119    0.468488
 C   -2.381576   -1.131672    1.376019
 C   -1.975891   -0.968410    2.834823
 N    0.118972    0.318472   -0.871916
 C   -1.921469    1.533887   -0.195710
 S   -3.113788    1.519705   -1.596580
 C   -4.606650    1.228192   -0.729438
 N   -4.771986    1.217076    0.550115
 C   -6.132706    0.900445    0.753417
 N   -6.809165    0.877847    1.824045
 N   -6.707078    0.596215   -0.508248
 N   -5.752223    1.011691   -1.468958
 H    1.638355   -4.307091    0.329555
 H    2.338251    1.982123   -1.105649
 H    3.843969    3.356580    0.318569
 H    6.579343    0.060463    0.592727
 H    5.072621   -1.305305   -0.837999
 H    2.061138    0.047624   -2.558027
 H    3.261127   -1.262585   -2.569624
 H   -2.669339   -2.164653    1.173868
 H   -3.221080   -0.480858    1.125929
 H   -1.170286   -1.663037    3.086496
 H   -1.646022    0.055444    3.038313
 H   -2.832491   -1.189524    3.477993
 H   -1.308359    2.424798   -0.333609
 H   -2.510025    1.641645    0.718154
 H   -6.213153    1.138862    2.606814
 H   -7.604499    1.045604   -0.653518
 H   -5.667282    0.356249   -2.239612
