47 
5ei6_ligand_dft.xyz
 C   -5.058079   -1.545016    0.320477
 C   -4.246662   -2.613147    0.047786
 C   -2.858991   -2.412194   -0.146015
 C   -2.293659   -1.112025   -0.062569
 C   -3.157176   -0.007010    0.244292
 C   -0.910072   -0.979585   -0.303573
 C   -0.156969   -2.103754   -0.587067
 C   -1.975973   -3.482222   -0.434732
 C    2.073927   -1.011465   -0.631856
 C    1.888950    0.234739   -1.210276
 C   -2.641319    1.369467    0.348904
 C    3.872320    1.087942   -0.156968
 C    2.762792    1.297213   -0.966860
 C    4.603778    3.331303   -0.359963
 O    4.797953    2.033568    0.153445
 C    4.107413   -0.175118    0.402441
 C    3.215633   -1.210791    0.175347
 O    3.352574   -2.466807    0.674247
 C    4.482029   -2.744642    1.471379
 N    1.202346   -2.092455   -0.846152
 N   -0.690941   -3.356808   -0.643647
 C   -4.501994   -0.249067    0.424138
 C   -1.531665    1.873358    1.070219
 N   -1.415565    3.189832    0.955362
 N   -2.440400    3.556052    0.168661
 C   -2.574240    4.938353   -0.231101
 C   -3.193579    2.502571   -0.219532
 H   -6.123776   -1.683349    0.473297
 H   -4.650495   -3.620040   -0.023041
 H   -0.446665   -0.004620   -0.260748
 H   -2.376483   -4.495233   -0.490040
 H    1.044234    0.384370   -1.874438
 H    2.564335    2.258901   -1.423364
 H    4.623843    3.337610   -1.457657
 H    3.655490    3.762543   -0.014077
 H    5.432264    3.932069    0.017521
 H    4.988068   -0.298377    1.020737
 H    5.413617   -2.591795    0.912151
 H    4.494990   -2.121992    2.374557
 H    4.397859   -3.793672    1.756895
 H    1.615439   -3.009240   -0.742739
 H   -5.152242    0.585049    0.674517
 H   -0.829434    1.324569    1.683230
 H   -2.396941    5.575412    0.636754
 H   -1.852018    5.187555   -1.014209
 H   -3.586295    5.105025   -0.604888
 H   -4.046856    2.621331   -0.872390
