70 
5ejl_ligand_dft.xyz
 P    0.926867    2.525378    1.999146
 O   -0.311848    1.701800    2.519544
 O    1.560399    3.549805    2.835263
 O    1.912194    1.358324    1.483056
 C    3.262812    1.677107    1.153182
 C    3.957369    0.394149    0.752125
 O    4.110326   -0.457423    1.893030
 C    3.186269   -0.455694   -0.262444
 O    3.499147   -0.083382   -1.607134
 C    3.630128   -1.870185    0.112778
 O    4.989490   -2.077219   -0.185742
 C    3.541095   -1.718610    1.631509
 N    2.141724   -1.711215    2.102722
 C    1.720132   -0.942286    3.161907
 N    0.420234   -0.853098    3.256587
 C   -0.057757   -1.621838    2.209834
 C   -1.409710   -1.885518    1.786456
 O   -2.462062   -1.482872    2.254062
 N   -1.403058   -2.731684    0.655351
 C   -0.303492   -3.076747   -0.077648
 N   -0.530701   -3.683224   -1.272138
 N    0.927776   -2.855320    0.328295
 C    0.989273   -2.148968    1.475624
 P    2.334270   -0.356263   -2.683352
 O    1.882767   -1.744475   -2.852257
 O    3.008542    0.330147   -3.964145
 O    1.143641    0.622375   -2.251063
 C    1.285035    2.047179   -2.301139
 C    0.044724    2.704278   -1.739012
 O   -1.097685    2.348179   -2.513895
 C   -0.330242    2.341547   -0.302675
 O    0.369846    3.165558    0.618571
 C   -1.825632    2.660098   -0.289946
 O   -2.029312    4.049128   -0.255246
 C   -2.224896    2.181995   -1.687313
 N   -2.588717    0.763714   -1.666664
 C   -1.946408   -0.287819   -2.286334
 N   -2.465154   -1.448290   -1.985636
 C   -3.500912   -1.150382   -1.128106
 C   -4.299013   -2.019046   -0.321920
 O   -4.237001   -3.237506   -0.216049
 N   -5.203459   -1.278762    0.463143
 C   -5.209417    0.085175    0.592984
 N   -6.125567    0.615701    1.459369
 N   -4.433317    0.882757   -0.094144
 C   -3.594464    0.212277   -0.919072
 H   -0.115819    0.842585    2.990839
 H    3.289585    2.388326    0.318113
 H    3.758973    2.131535    2.014714
 H    4.951477    0.628253    0.356004
 H    2.111743   -0.348184   -0.095448
 H    2.978953   -2.641538   -0.296251
 H    5.066374   -2.110028   -1.147031
 H    4.118018   -2.469456    2.171897
 H    2.427551   -0.426429    3.793254
 H   -2.318845   -3.047839    0.332274
 H    0.297313   -3.686654   -1.855350
 H   -1.357805   -3.335698   -1.756469
 H    2.945725   -0.255660   -4.730824
 H    1.436347    2.352748   -3.339827
 H    2.152296    2.360903   -1.708729
 H    0.199021    3.789946   -1.791184
 H   -0.153589    1.279279   -0.107614
 H   -2.365475    2.141528    0.507166
 H   -1.466487    4.397133    0.451293
 H   -3.062846    2.760437   -2.081943
 H   -1.095247   -0.122544   -2.927114
 H   -5.765983   -1.846676    1.083923
 H   -5.971106    1.597932    1.639896
 H   -6.352491    0.079539    2.284612
