19 
5ekx_ligand_dft.xyz
 N    2.967283    1.025137   -0.022437
 C    1.631258    0.591110    0.004232
 C    0.550019    1.464317   -0.013834
 C   -0.776619    1.021203   -0.017683
 C   -1.918849    2.001522   -0.032290
 C   -0.975822   -0.356793    0.007523
Cl   -2.607736   -1.006449    0.021450
 C    0.084632   -1.258503    0.006936
 C    1.394755   -0.796669   -0.004237
 N    2.509363   -1.653071    0.027551
 H    3.064919    2.019649    0.138365
 H    3.545877    0.507987    0.632676
 H    0.741285    2.535571   -0.013737
 H   -2.558992    1.881381    0.848397
 H   -1.546087    3.029533   -0.045219
 H   -2.554585    1.858599   -0.912817
 H   -0.117436   -2.325359    0.004824
 H    3.217853   -1.373713   -0.644478
 H    2.265911   -2.625599   -0.112346
