39 
5el2_ligand_xtb.xyz
 C   -2.998876   -0.787665   -0.872968
 C   -1.952391    0.273948   -0.516578
 C    0.453477    0.104438   -0.537739
 C   -2.464279    1.289334    0.516478
 C    2.806229   -0.106291   -0.484375
 C    3.805913   -0.457049    0.615890
 C    3.528986    0.304758    1.906425
 C    3.149638   -0.770005   -1.814028
 C   -1.418840    2.364251    0.853636
 N   -0.722781   -0.373165   -0.082540
 C   -3.175513   -1.820986    0.235275
 O    1.516279   -0.551370   -0.039178
 O    0.542739    1.033077   -1.320986
 C   -0.827168   -1.381266    0.950709
 C   -1.826871   -2.460685    0.544858
 O   -1.020108    3.124786   -0.250821
 H   -2.675298   -1.301492   -1.780925
 H   -3.946111   -0.291477   -1.086776
 H   -1.700786    0.827140   -1.428171
 H   -3.343476    1.779671    0.096625
 H   -2.756401    0.790443    1.440900
 H    2.758592    0.981408   -0.623820
 H    3.751411   -1.531108    0.802732
 H    4.807706   -0.222226    0.254037
 H    2.530834    0.075823    2.271893
 H    3.597084    1.377303    1.737971
 H    4.249585    0.028309    2.672149
 H    2.408383   -0.497494   -2.561333
 H    4.126339   -0.437063   -2.152934
 H    3.159497   -1.851912   -1.700965
 H   -1.857950    3.071565    1.564045
 H   -0.550029    1.892751    1.338427
 H   -3.573642   -1.347080    1.134098
 H   -3.889564   -2.582316   -0.083485
 H    0.160106   -1.813231    1.109484
 H   -1.155587   -0.910593    1.886338
 H   -1.919503   -3.187323    1.353163
 H   -1.457391   -2.979383   -0.341834
 H   -0.457435    2.571810   -0.821465
