118 
5eld_ligand_xtb.xyz
 C   -4.312478    2.234897   -2.540113
 C   -4.632166    0.891767   -1.854362
 C   -3.507268    0.520427   -0.871345
 C   -2.141171    0.620495   -1.557824
 C   -1.986445    2.003521   -2.211847
 C   -0.672906    2.120172   -2.993245
 C   -6.965821    0.190494   -1.518856
 C   -8.160088    0.373658   -0.610126
 O   -3.044398    2.241546   -3.132838
 O   -3.627345   -0.818392   -0.430635
 O   -1.128670    0.443381   -0.579582
 O   -0.539387    1.116797   -3.960396
 O   -6.930133   -0.595486   -2.437890
 N   -5.905450    0.974648   -1.187978
 O   -4.447895    3.244403   -1.581647
 C   -0.170420   -0.513065   -0.861974
 C    1.030348   -0.290440    0.071254
 C    2.106999   -1.301816   -0.330435
 C    1.545059   -2.723441   -0.179166
 C    0.223001   -2.833505   -0.962531
 C   -0.463229   -4.182017   -0.673836
 O    1.539786    1.021864   -0.039272
 O    3.247042   -1.103072    0.510157
 O    1.329281   -3.018256    1.176387
 O   -0.685016   -1.800133   -0.622414
 O   -1.633893   -4.358162   -1.411965
 O    4.558314   -0.318303   -1.193711
 C    4.459920   -1.269936   -0.150851
 C    5.624605   -1.047964    0.821229
 N    5.357757    0.078600    1.686508
 C    6.929418   -0.808403    0.008341
 O    8.010654   -1.485618    0.585584
 C    6.796540   -1.310727   -1.437495
 O    6.695810   -2.718083   -1.443343
 C    5.588583   -0.635345   -2.120106
 C    5.034551   -1.442458   -3.314686
 O    4.459046   -2.669508   -2.968482
 C    6.208997    0.385897    2.687656
 O    7.187564   -0.297096    2.943775
 C    5.824922    1.622331    3.460011
 C    1.840935    1.629323    1.200733
 C    2.816267    2.770654    0.879946
 C    2.077707    3.806665    0.025029
 C    0.821998    4.265666    0.786596
 C   -0.038264    3.045849    1.161433
 C   -1.222070    3.424875    2.036075
 O    3.977197    2.285419    0.250501
 O    2.885584    4.939291   -0.208969
 O    1.189573    4.976521    1.939387
 O    0.720175    2.076638    1.878796
 C   -4.391569   -1.028735    0.709146
 C   -4.247220   -2.520580    1.068657
 C   -4.530203   -2.694886    2.580394
 C   -5.452325   -1.579110    3.088658
 C   -4.750031   -0.220589    2.902949
 C   -5.746789    0.936884    2.862248
 O   -2.977279   -3.022703    0.753874
 O   -5.170451   -3.920681    2.847665
 O   -6.682321   -1.608027    2.399558
 O   -3.907001   -0.223349    1.760521
 H   -5.009867    2.394212   -3.377735
 H   -4.720420    0.106180   -2.612999
 H   -3.516333    1.197270   -0.009194
 H   -2.077138   -0.164695   -2.318863
 H   -2.005439    2.764395   -1.418697
 H   -0.629566    3.115927   -3.456413
 H    0.164356    2.007073   -2.301177
 H   -7.987911   -0.179291    0.313361
 H   -9.043390   -0.033122   -1.093430
 H   -8.318999    1.421827   -0.371613
 H   -1.318170    1.153034   -4.529993
 H   -5.975619    1.654921   -0.447632
 H   -4.265038    4.096799   -1.994931
 H    0.164172   -0.441328   -1.916371
 H    0.687131   -0.474301    1.094794
 H    2.393373   -1.114756   -1.370346
 H    2.260395   -3.443498   -0.611188
 H    0.456569   -2.760642   -2.037064
 H   -0.652731   -4.243165    0.401765
 H    0.223653   -4.979768   -0.967591
 H    2.061980   -2.631613    1.675361
 H   -2.325062   -3.823848   -0.992303
 H    4.523920   -2.283790   -0.575348
 H    5.762762   -1.938302    1.447104
 H    4.702989    0.772564    1.345545
 H    7.114284    0.277575   -0.023237
 H    8.032418   -1.225755    1.529142
 H    7.706329   -1.022450   -1.985973
 H    7.364411   -3.029990   -0.815651
 H    5.918380    0.337239   -2.503097
 H    5.850052   -1.574666   -4.039109
 H    4.236835   -0.858014   -3.780116
 H    5.160136   -3.224123   -2.596751
 H    4.831223    1.501168    3.884351
 H    5.813897    2.480986    2.792589
 H    6.543147    1.789902    4.257131
 H    2.320942    0.900454    1.870862
 H    3.134756    3.245665    1.814812
 H    1.785120    3.339890   -0.927704
 H    0.231960    4.916036    0.118866
 H   -0.389093    2.581964    0.229464
 H   -1.871112    4.113198    1.502780
 H   -1.773636    2.525188    2.291336
 H   -0.858407    3.898472    2.942408
 H    3.714276    1.640897   -0.428321
 H    3.771961    4.623768   -0.425807
 H    1.874658    5.603185    1.668905
 H   -5.454228   -0.800688    0.530507
 H   -4.990943   -3.093925    0.497672
 H   -3.569530   -2.634782    3.112861
 H   -5.637213   -1.739480    4.161590
 H   -4.059740   -0.073573    3.741787
 H   -6.278660    0.990427    3.807184
 H   -6.469568    0.783019    2.067291
 H   -5.211265    1.867593    2.694972
 H   -2.394465   -2.287680    0.496575
 H   -4.631086   -4.625886    2.471966
 H   -6.983844   -2.525708    2.426129
