28 
5elv_ligand_xtb.xyz
 C    0.029368    2.051695    0.237589
 C   -1.236923    2.584589    0.142236
 C   -2.352830    1.761137   -0.005091
 C   -2.160447    0.388965   -0.059103
 C   -0.887592   -0.139077    0.037419
 N    0.891143   -2.131108   -0.337752
 C    1.605185   -1.297141    0.588097
 N    1.504718    0.109158    0.249961
 C    0.241283    0.665654    0.190405
 O   -3.581074    2.335128   -0.093527
 S   -0.756731   -1.915147   -0.082132
 O   -1.076486   -2.501243    1.183279
 O   -1.449527   -2.379715   -1.245491
 C    2.655767    0.929241    0.449199
 C    3.113980    1.817712   -0.672693
 C    3.900280    0.594952   -0.320736
 H    0.870098    2.714536    0.354448
 H   -1.386408    3.651575    0.184138
 H   -2.984252   -0.298244   -0.184826
 H    1.126818   -1.976039   -1.307176
 H    2.661855   -1.575282    0.608222
 H    1.152316   -1.511922    1.566802
 H   -4.253760    1.650827   -0.193933
 H    2.785103    1.299600    1.465584
 H    3.518654    2.787148   -0.425866
 H    2.539901    1.799589   -1.585685
 H    3.863286   -0.237282   -1.006213
 H    4.851330    0.711776    0.175132
