54 
5elz_ligand_xtb.xyz
 O   -0.667256   -0.975048    3.322329
 O    0.748656    0.768541    2.104995
 O    1.756378   -1.386945    3.156376
 P    0.585130   -0.667717    2.386842
 O    0.282949   -1.594638    1.130010
 C   -0.058884   -0.970299   -0.092819
 C    0.576812   -1.684490   -1.291489
 C    0.384610   -0.804450   -2.529218
 C   -0.114303   -3.033413   -1.511572
 C    2.078832   -1.968252   -1.017436
 O    2.701986   -2.294920   -2.244876
 C    2.787494   -0.795340   -0.336496
 O    3.019701   -0.795790    0.868044
 N    3.195974    0.163040   -1.169879
 C    3.785032    1.401251   -0.701780
 C    2.785413    2.207278    0.127426
 C    1.529947    2.515021   -0.674592
 O    1.491637    2.480840   -1.892132
 N    0.487133    2.875536    0.098710
 C   -0.813217    3.199831   -0.454619
 C   -1.823136    2.108184   -0.204555
 C   -2.331598    1.373151   -1.277965
 C   -3.221096    0.367854   -0.988928
 O   -3.843745   -0.503556   -1.846432
 C   -4.650676   -1.331315   -1.035816
 O   -4.489898   -0.966217    0.316988
 C   -3.607108    0.081436    0.321287
 C   -3.112306    0.795988    1.384992
 C   -2.213892    1.818502    1.095158
 H   -0.704608   -0.344136    4.038357
 H    2.536396   -1.327137    2.588430
 H    0.258147    0.075810   -0.056071
 H   -1.146330   -0.990447   -0.200229
 H    0.730222    0.212849   -2.363425
 H    0.919329   -1.235119   -3.370901
 H   -0.673154   -0.758734   -2.775837
 H   -0.095394   -3.617537   -0.594938
 H   -1.149574   -2.880582   -1.806208
 H    0.395097   -3.583252   -2.298766
 H    2.132689   -2.814212   -0.317111
 H    3.586576   -2.629277   -2.065095
 H    2.875383    0.123195   -2.125931
 H    4.655362    1.160993   -0.084691
 H    4.097348    1.969536   -1.577996
 H    3.240624    3.149832    0.436234
 H    2.508883    1.645476    1.019304
 H    0.515804    2.608458    1.073481
 H   -0.669673    3.350262   -1.526717
 H   -1.155736    4.137038   -0.001088
 H   -2.033750    1.580789   -2.291844
 H   -4.353116   -2.383393   -1.172296
 H   -5.707539   -1.214324   -1.326217
 H   -3.408452    0.567146    2.394231
 H   -1.808039    2.398724    1.908991
