18 
5em3_ligand_xtb.xyz
 C    0.548122   -1.928601   -0.000052
 C   -0.433157   -0.916035    0.000345
 C   -0.034456    0.449050   -0.000041
 C   -1.042306    1.432412   -0.000988
 C   -2.353603    1.039435   -0.000873
 C   -2.640143   -0.336832    0.000566
 C    2.278047   -0.251518   -0.000435
 C    1.872544   -1.593416   -0.000772
 N   -1.733030   -1.272408    0.000949
 C    1.350044    0.760506    0.000200
 O    1.699805    2.074775    0.001071
 H    0.220448   -2.955227    0.000044
 H   -0.758218    2.474041   -0.002004
 H   -3.157209    1.759865   -0.001903
 H   -3.667883   -0.679312    0.001291
 H    3.333709   -0.012593   -0.000707
 H    2.630050   -2.363215   -0.001492
 H    2.661315    2.155088    0.001857
