55 
5emk_ligand_dft.xyz
 C    4.582259   -0.104842   -0.277466
 C    4.152613    1.277745   -0.748340
 C    3.090622    1.895542    0.134076
 C    2.769977    3.247472   -0.001859
 C    1.757289    3.818292    0.758145
 C    1.040959    3.036377    1.661947
 C    1.346551    1.689730    1.798580
 C    2.371699    1.117364    1.044000
 C    2.685298   -0.344209    1.244867
 N    3.362204   -0.917294    0.037415
 C    3.658194   -2.373770    0.144753
 C    2.446530   -3.305013    0.245677
 O    1.889491   -3.187260    1.538170
 C    1.369563   -3.132205   -0.850422
 N    0.431967   -2.051419   -0.617073
 C    0.503726   -0.847278   -1.236357
 O    1.525153   -0.532106   -1.872299
 C   -0.630077    0.090774   -1.055735
 C   -1.902333   -0.341924   -0.684030
 C   -0.381228    1.453174   -1.242682
 C   -1.401092    2.368333   -1.028486
 C   -2.665566    1.932808   -0.641977
 C   -2.935442    0.571251   -0.474590
 C   -4.273000    0.060383   -0.064761
 N   -4.279705   -1.152508    0.507260
 C   -5.448060   -1.658408    0.897918
 C   -6.663744   -0.998339    0.746449
 C   -6.656346    0.250742    0.138657
 C   -5.445039    0.789410   -0.278084
 H    5.145000   -0.626766   -1.054114
 H    5.188435   -0.066881    0.632642
 H    5.040350    1.916643   -0.789353
 H    3.768188    1.201403   -1.772810
 H    3.324926    3.856980   -0.710249
 H    1.526859    4.872731    0.644841
 H    0.241156    3.472525    2.250961
 H    0.779920    1.073342    2.491599
 H    3.362143   -0.511759    2.090311
 H    1.782732   -0.926559    1.426820
 H    2.709662   -0.790274   -0.782303
 H    4.223020   -2.635756   -0.754091
 H    4.297335   -2.525281    1.018588
 H    2.880787   -4.305287    0.103602
 H    1.468111   -4.019534    1.784702
 H    1.835898   -2.980473   -1.828005
 H    0.793344   -4.061085   -0.904115
 H   -0.348185   -2.231875   -0.003721
 H   -2.144355   -1.393342   -0.565481
 H    0.612328    1.780838   -1.528007
 H   -1.208398    3.429159   -1.149145
 H   -3.441052    2.668252   -0.451404
 H   -5.409728   -2.642692    1.358828
 H   -7.584969   -1.457041    1.088014
 H   -7.581591    0.795990   -0.018613
 H   -5.420439    1.749750   -0.781347
