55 
5eml_ligand_xtb.xyz
 C   -3.840555   -1.419747   -1.607726
 C   -5.165473   -1.249136   -0.878203
 C   -5.323623    0.149895   -0.343474
 C   -6.581732    0.626816    0.004934
 C   -6.737364    1.901331    0.515141
 C   -5.630267    2.717665    0.683878
 C   -4.375264    2.251142    0.344191
 C   -4.214439    0.968877   -0.167888
 C   -2.827427    0.511937   -0.545275
 N   -2.751699   -0.949786   -0.730874
 C   -1.407562   -1.434265   -1.096123
 C   -1.024280   -2.549537   -0.069531
 O   -1.805546   -2.400074    1.082519
 C    0.485113   -2.559971    0.229194
 N    1.084299   -1.262946    0.477237
 C    0.578249   -0.265185    1.194422
 O   -0.551109   -0.231976    1.683526
 C    1.519918    0.929310    1.295388
 O    1.952010    1.306501   -0.003412
 C    3.307760    1.465044   -0.195772
 C    4.208049    0.369427   -0.092649
 N    3.736585   -0.866422    0.187472
 C    4.574054   -1.867061    0.283632
 C    5.959106   -1.735771    0.118253
 C    6.465544   -0.500193   -0.186414
 C    5.593930    0.601531   -0.314112
 C    6.040559    1.891750   -0.661929
 C    5.144777    2.914884   -0.797196
 C    3.780539    2.702465   -0.557598
 H   -3.675395   -2.470300   -1.852462
 H   -3.826273   -0.830483   -2.528211
 H   -5.222141   -1.960410   -0.047685
 H   -5.986547   -1.481780   -1.557356
 H   -7.441639   -0.011751   -0.128621
 H   -7.719629    2.258751    0.780006
 H   -5.744678    3.713390    1.081448
 H   -3.508094    2.880426    0.475481
 H   -2.519519    0.997501   -1.478546
 H   -2.123583    0.794487    0.243182
 H   -2.876628   -1.404974    0.222394
 H   -1.396893   -1.818905   -2.115038
 H   -0.693408   -0.612521   -1.029163
 H   -1.287264   -3.532153   -0.476944
 H   -1.402976   -1.645285    1.602293
 H    0.636081   -3.217943    1.094127
 H    1.009434   -2.990562   -0.625922
 H    2.103926   -1.157194    0.243076
 H    2.362438    0.665192    1.942313
 H    0.976591    1.767911    1.747594
 H    4.134320   -2.831073    0.505013
 H    6.597168   -2.597901    0.223418
 H    7.524771   -0.352053   -0.336137
 H    7.095410    2.049769   -0.826156
 H    5.480040    3.902053   -1.073971
 H    3.079678    3.517021   -0.652894
