30 
5en3_ligand_xtb.xyz
Cl    4.447769   -2.786789   -0.191719
 C    3.516567   -1.343357   -0.095351
 C    2.136043   -1.435432   -0.129182
 C    4.171247   -0.127332    0.013353
 C    3.432302    1.049445    0.091978
 O    4.058657    2.215225    0.197570
 C    2.018609    0.983725    0.057238
 C    1.213447    2.197493    0.138263
 O    1.716485    3.322571    0.240116
 C    1.391563   -0.262995   -0.052519
 O    0.044183   -0.382093   -0.091517
 C   -0.729004    0.718703   -0.021343
 C   -0.209843    1.966967    0.094071
 C   -2.162701    0.420438   -0.063326
 C   -2.603862   -0.858881    0.280266
 C   -3.949648   -1.174254    0.259765
 O   -4.361396   -2.415758    0.604873
 C   -4.880591   -0.193885   -0.120789
 O   -6.198271   -0.562053   -0.121923
 C   -4.442733    1.070956   -0.474452
 C   -3.095863    1.380991   -0.446337
 H    1.634853   -2.384474   -0.213844
 H    5.246768   -0.072130    0.038327
 H    3.360971    2.928114    0.241096
 H   -0.851086    2.827399    0.176808
 H   -1.902641   -1.620297    0.578722
 H   -5.325583   -2.448058    0.531900
 H   -6.745608    0.182849   -0.393555
 H   -5.163425    1.818122   -0.777100
 H   -2.776765    2.365257   -0.745889
