21 
5enb_ligand_dft.xyz
 N    1.443328    0.095877    1.492440
 C   -2.697132   -1.457203    0.044837
 C   -1.335454   -1.508494   -0.231601
 C   -0.598164   -0.331211   -0.352535
 C    1.812262   -0.189952    0.220359
 S    3.416300   -0.237750   -0.264311
 N    0.794848   -0.415717   -0.651603
 C   -1.207846    0.924872   -0.198613
 C   -0.414065    2.195903   -0.344647
 C   -3.313729   -0.221383    0.211962
 C   -2.573179    0.950759    0.092473
 H    2.182475    0.145513    2.174714
 H    0.505119   -0.095251    1.815189
 H   -3.268765   -2.375465    0.134299
 H   -0.826325   -2.459717   -0.355166
 H    1.088276   -0.668532   -1.584187
 H    0.269414    2.333320    0.500606
 H    0.202423    2.174285   -1.248405
 H   -1.075678    3.064569   -0.394894
 H   -4.375603   -0.167391    0.432164
 H   -3.065538    1.911803    0.215389
