24 
5ene_ligand_xtb.xyz
 N   -4.516769   -1.627225    0.480424
 C    3.855156   -0.518804    1.157290
 C    3.787199    0.712958    0.530568
 C    2.789924    0.967560   -0.396161
 C   -0.553208    0.225304   -0.979014
 C   -2.421452   -0.311653   -0.115638
 C   -2.069191    0.929422    0.381480
 C   -3.566909   -1.051894    0.189123
 N   -1.421184   -0.719725   -0.975071
 N   -2.721399    1.804397    1.192487
 O   -0.885874    1.274134   -0.160694
 C    0.745454    0.254496   -1.696149
 C    1.858151   -0.010765   -0.708525
 C    2.923096   -1.497945    0.853597
 C    1.929233   -1.245081   -0.074019
 H    4.631563   -0.715935    1.881534
 H    4.511053    1.480167    0.763675
 H    2.739500    1.932540   -0.880399
 H   -3.454479    1.416989    1.763183
 H   -2.159178    2.525521    1.614825
 H    0.881941    1.229522   -2.166511
 H    0.720216   -0.522713   -2.460605
 H    2.970811   -2.460350    1.341282
 H    1.196319   -2.002535   -0.311631
