23 
5enf_ligand_xtb.xyz
 N   -4.021046   -1.534763    0.130967
 C    0.279139   -0.024877   -0.593530
 C   -1.772787   -0.376059   -0.149359
 C   -2.992962   -1.040061    0.002217
 C   -1.520681    0.966025    0.065474
 N   -0.595657   -0.963370   -0.567652
 N   -2.295905    1.971774    0.553007
 O   -0.224744    1.196266   -0.217322
 C    1.710392   -0.131639   -0.955259
 C    2.624391    0.113418    0.259119
 C    4.083399    0.134600   -0.186045
 C    2.401648   -0.960270    1.319776
 H   -3.290820    1.828354    0.500814
 H   -1.970043    2.909476    0.382894
 H    1.935563    0.606775   -1.728788
 H    1.878242   -1.131100   -1.355950
 H    2.371130    1.091141    0.684344
 H    4.357399   -0.819434   -0.630788
 H    4.254563    0.918890   -0.920020
 H    4.734680    0.315273    0.665684
 H    1.361205   -0.985132    1.634826
 H    2.658051   -1.940517    0.924516
 H    3.020994   -0.766156    2.192438
