23 
5enf_ligand_dft.xyz
 N   -4.110404   -1.447245    0.173357
 C    0.271570   -0.099634   -0.601244
 C   -1.785860   -0.383840   -0.146571
 C   -3.046677   -1.007410    0.020680
 C   -1.512470    0.943187    0.049872
 N   -0.615817   -1.025691   -0.557981
 N   -2.236059    2.003220    0.507803
 O   -0.213315    1.142920   -0.233889
 C    1.714550   -0.179927   -0.946415
 C    2.649189    0.129425    0.240741
 C    4.105451    0.094653   -0.225178
 C    2.414993   -0.840075    1.400482
 H   -3.236783    1.863498    0.516148
 H   -1.948325    2.911214    0.171411
 H    1.927894    0.512187   -1.770679
 H    1.895535   -1.195647   -1.312580
 H    2.422002    1.146510    0.586931
 H    4.373335   -0.905727   -0.586766
 H    4.284249    0.806353   -1.038935
 H    4.783742    0.344878    0.597142
 H    1.382584   -0.799421    1.762686
 H    2.616631   -1.872070    1.088886
 H    3.077137   -0.605409    2.240405
