23 
5eni_ligand_dft.xyz
 C    3.260950    0.815449    0.963333
 C    2.275255    1.757530    0.698507
 C    1.118637    1.365169    0.035975
 C   -2.674020   -0.071139   -0.334535
 C   -3.668729   -0.421766    0.765083
 O   -3.006976    0.651111   -1.259960
 O   -3.099215   -1.339643    1.676214
 N   -1.441217   -0.607195   -0.173646
 C   -0.364243   -0.358128   -1.108326
 C    0.904328    0.047283   -0.391729
Cl   -0.101194    2.579615   -0.256410
 C    3.085348   -0.505782    0.576341
 C    1.917473   -0.869136   -0.085187
Cl    1.736768   -2.559558   -0.517613
 H    4.168419    1.111893    1.479021
 H    2.394969    2.791329    1.001657
 H   -4.563323   -0.826823    0.274338
 H   -3.948371    0.523066    1.250603
 H   -3.705239   -1.461249    2.413947
 H   -1.298690   -1.222121    0.615275
 H   -0.707630    0.441083   -1.768224
 H   -0.177441   -1.241671   -1.724333
 H    3.840604   -1.254732    0.784819
