23 
5eni_ligand_xtb.xyz
 C    3.024575    1.386790    0.872826
 C    1.856004    2.053067    0.552844
 C    0.817088    1.360936   -0.049641
 C   -2.592330   -0.374603   -0.404047
 C   -3.608737   -0.491423    0.731563
 O   -2.903000    0.067274   -1.489502
 O   -3.017861   -1.040419    1.889054
 N   -1.364836   -0.809113   -0.079900
 C   -0.239466   -0.729800   -0.983013
 C    0.913504   -0.000132   -0.347412
Cl   -0.630556    2.215230   -0.444355
 C    3.152834    0.038071    0.596714
 C    2.102563   -0.640219   -0.002344
Cl    2.312345   -2.327927   -0.318312
 H    3.838725    1.919013    1.339113
 H    1.742496    3.103928    0.764051
 H   -4.437339   -1.114584    0.369352
 H   -4.001149    0.516728    0.922348
 H   -3.685371   -1.100013    2.579768
 H   -1.217763   -1.159902    0.854598
 H   -0.596123   -0.189669   -1.866661
 H    0.072003   -1.734482   -1.282577
 H    4.058651   -0.492336    0.843308
