45 
5eom_ligand_xtb.xyz
 N   -2.417878    1.195532    0.529489
 C   -2.253021    2.070612   -0.521017
 N   -1.168598    2.890304   -0.430524
 C   -0.248883    2.942060    0.598988
 C   -0.573229    2.099526    1.721229
 C   -1.603750    1.242572    1.625175
 O   -3.026121    2.129635   -1.458825
 N    0.764529    3.707722    0.424323
 C   -3.512669    0.218268    0.432039
 C   -3.501087   -0.515116   -0.940230
 O   -4.541847   -0.121901   -1.778946
 C   -3.664678   -1.993164   -0.544505
 C   -3.092488   -2.013010    0.879652
 O   -3.422890   -0.745669    1.430604
 O   -5.005071   -2.384754   -0.526718
 C   -1.581072   -2.265703    0.914067
 O   -0.936951   -1.255445    0.144399
 P    0.640974   -1.148163    0.193696
 O    1.364046   -2.139693   -0.609554
 O    0.981067   -1.094505    1.714826
 O    0.762644    0.334985   -0.396580
 P    2.184445    1.104774   -0.302763
 O    2.039712    2.254454   -1.333392
 O    2.568084    1.431603    1.060086
 O    3.158410    0.104557   -1.056839
 P    3.923068   -1.090660   -0.273544
 O    3.901347   -2.277613   -1.274094
 O    5.428110   -0.643108   -0.352181
 O    3.461480   -1.298131    1.104878
 H   -0.992353    3.490414   -1.227722
 H    0.069352    2.111938    2.583348
 H   -1.863734    0.543739    2.404978
 H    1.395020    3.728397    1.217294
 H   -4.460517    0.767128    0.554523
 H   -2.522363   -0.376146   -1.413646
 H   -4.356131    0.797068   -2.037011
 H   -3.087369   -2.644701   -1.213525
 H   -3.601574   -2.764524    1.489247
 H   -5.476052   -1.813091   -1.151983
 H   -1.353130   -3.250995    0.498874
 H   -1.221371   -2.217185    1.944403
 H    1.962431   -1.162751    1.800745
 H    1.654243    3.044817   -0.855395
 H    2.995090   -2.616084   -1.326271
 H    5.713907   -0.253783    0.474568
