47 
5eou_ligand_xtb.xyz
 P    4.099541   -0.417969   -0.481291
 O    3.814462   -0.134286   -1.979855
 O    3.904354   -1.774778    0.051609
 O    5.574145    0.103934   -0.335485
 P    1.741867    0.830058    0.578433
 O    1.712482    1.573486    1.944185
 O    1.019728    1.413916   -0.538107
 O    3.309643    0.687467    0.382347
 P    1.071615   -1.761067   -0.215577
 O    1.537343   -1.290482   -1.515629
 O    1.690044   -3.065630    0.387301
 O    1.266896   -0.664879    0.957750
 O   -0.479540   -2.050323   -0.219196
 C   -1.078481   -2.916189    0.744027
 C   -2.594666   -2.687890    0.770175
 O   -2.926094   -1.526507    1.523410
 C   -3.204071   -2.479857   -0.624755
 O   -4.523495   -2.942996   -0.643656
 C   -3.136826   -0.952207   -0.784394
 O   -4.160200   -0.478424   -1.602249
 C   -3.262403   -0.465379    0.682355
 N   -2.392220    0.664353    0.908347
 C   -1.516077    0.873272    1.920305
 N   -0.840527    1.983569    1.804881
 C   -1.279580    2.552455    0.633493
 C   -0.902443    3.680608   -0.118655
 N    0.057412    4.542746    0.263788
 N   -1.568524    3.929485   -1.248387
 C   -2.507096    3.096874   -1.652461
 N   -2.908654    1.974601   -1.077875
 C   -2.260948    1.731102    0.064246
 H    2.925078   -0.459180   -2.207995
 H    6.054706   -0.390392    0.327467
 H    0.774640    1.885280    2.109086
 H    2.658575   -2.945492    0.366353
 H   -0.669134   -2.714042    1.735970
 H   -0.859087   -3.950067    0.468650
 H   -3.073617   -3.534739    1.271890
 H   -2.606193   -2.983782   -1.394424
 H   -5.021018   -2.349286   -1.225715
 H   -2.147358   -0.674271   -1.167522
 H   -3.998221    0.479016   -1.719983
 H   -4.301097   -0.151587    0.886004
 H   -1.418898    0.182902    2.734016
 H    0.370483    5.193743   -0.437946
 H    0.723097    4.226553    0.948428
 H   -3.002319    3.356010   -2.578443
