47 
5eou_ligand_dft.xyz
 P    4.382901   -0.428082   -0.372985
 O    3.971667   -0.066946   -1.841397
 O    4.180816   -1.825616    0.085648
 O    5.873939    0.095544   -0.286371
 P    2.027684    0.982492    0.600544
 O    1.849973    1.557157    2.047324
 O    1.572057    1.795690   -0.534676
 O    3.600490    0.617654    0.602671
 P    1.044248   -1.603330   -0.428729
 O    1.474302   -1.130436   -1.761467
 O    1.732681   -2.895765    0.157580
 O    1.314608   -0.485071    0.722407
 O   -0.502542   -1.916314   -0.307337
 C   -1.026160   -2.977788    0.515675
 C   -2.520747   -2.792985    0.694039
 O   -2.787055   -1.661741    1.533063
 C   -3.330574   -2.566503   -0.583699
 O   -4.629807   -3.055690   -0.368367
 C   -3.355522   -1.041333   -0.696659
 O   -4.501260   -0.628891   -1.380509
 C   -3.338107   -0.615422    0.791242
 N   -2.504494    0.572152    0.976720
 C   -1.427956    0.713115    1.796881
 N   -0.773053    1.833406    1.601578
 C   -1.451286    2.462583    0.572465
 C   -1.198667    3.606651   -0.211115
 N   -0.091035    4.369318   -0.060273
 N   -2.101775    3.951280   -1.142045
 C   -3.143787    3.149127   -1.362306
 N   -3.427670    1.984522   -0.777261
 C   -2.543670    1.697216    0.188998
 H    3.049295   -0.374085   -2.047237
 H    6.416631   -0.489457    0.259519
 H    0.886526    1.851604    2.108821
 H    2.714062   -2.741092    0.196168
 H   -0.539691   -2.962320    1.494074
 H   -0.817591   -3.933744    0.027692
 H   -2.901412   -3.679696    1.210371
 H   -2.860506   -3.033349   -1.459791
 H   -5.218827   -2.484899   -0.885907
 H   -2.437858   -0.690394   -1.181278
 H   -4.455490    0.347138   -1.413215
 H   -4.352214   -0.393513    1.139308
 H   -1.159603   -0.049816    2.511044
 H    0.050985    5.039369   -0.804084
 H    0.744863    3.872741    0.223196
 H   -3.835554    3.475988   -2.133841
