42 
5eqp_ligand_xtb.xyz
 N    2.934350    1.555370   -0.040419
 C    2.566144   -0.690106   -1.140587
 C    2.068915    0.738778   -0.931232
 C    3.083814   -0.302030    1.674466
 C    2.819128    1.173845    1.392601
 C    1.959327   -1.235600    1.233213
 N    2.057177   -1.706575   -0.176024
 C    2.642303    2.997379   -0.211901
 C    0.743238   -2.345508   -0.609016
 C   -0.421087   -1.397267   -0.614284
 C   -0.687357   -0.614702   -1.761145
 C   -1.753159    0.239541   -1.793242
 C   -2.621817    0.343389   -0.685642
 C   -2.387893   -0.473501    0.457138
 C   -1.271585   -1.329628    0.468049
 N   -3.657808    1.194654   -0.759734
 C   -4.503940    1.239971    0.229016
 C   -4.388981    0.450988    1.394882
 C   -3.321835   -0.395233    1.516210
 H    3.912137    1.413435   -0.325255
 H    3.659708   -0.705079   -1.125305
 H    2.261015   -1.017046   -2.137562
 H    2.052728    1.228784   -1.908339
 H    1.045420    0.752386   -0.549150
 H    4.048165   -0.617732    1.273209
 H    3.165353   -0.391461    2.759727
 H    1.815887    1.443408    1.731738
 H    3.534024    1.775353    1.958088
 H    0.990428   -0.742921    1.354761
 H    1.955475   -2.122779    1.869357
 H    2.735896   -2.474849   -0.198757
 H    2.833707    3.307658   -1.237468
 H    3.272421    3.592216    0.446967
 H    1.599820    3.199760    0.027167
 H    0.551056   -3.167315    0.083121
 H    0.897800   -2.764668   -1.604711
 H   -0.066888   -0.726469   -2.638256
 H   -1.980973    0.827223   -2.667300
 H   -1.125527   -1.969254    1.328378
 H   -5.325720    1.933580    0.116536
 H   -5.133269    0.529187    2.170389
 H   -3.185984   -1.009453    2.394726
