104 
5eqq_ligand_xtb.xyz
 C    0.351872    2.578574   -0.102081
 C    1.018169   -0.610251   -1.834684
 C    1.043104    0.474476   -2.910770
 C    0.914468    0.161918   -0.505519
 C   -5.229255    4.446946   -0.059667
 C   -5.620484    3.546478   -1.227008
 C   -4.421764    3.192832   -2.074355
 C   -4.415431    1.966342   -2.940739
 C   -3.516981    2.043630   -1.733784
 N   -2.105958    2.222458   -1.944632
 C   -1.324726    1.254833   -2.455343
 O   -1.750954    0.220053   -2.939457
 C    0.169840    1.561799   -2.303980
 N    0.484403    1.498190   -0.879097
 O   -0.131878    3.617331   -0.553351
 C    0.925709    2.490220    1.313684
 N    2.202718    3.177689    1.293702
 C    3.353988    2.547985    0.954515
 O    3.463073    1.348016    0.836400
 O    4.333579    3.452414    0.805374
 C    5.671118    3.031004    0.438231
 C    6.250777    2.093290    1.496311
 C    6.467753    4.335230    0.385609
 C    5.647897    2.361967   -0.936359
 C   -0.018804    3.053066    2.401619
 C   -0.119040    4.579528    2.341571
 C    0.532445    2.628813    3.765355
 C   -1.406964    2.441932    2.195062
 O    2.204036   -1.383936   -1.876195
 C    2.123500   -2.579743   -1.262129
 C    3.313650   -3.368349   -1.151733
 C    4.633247   -2.814691   -1.588404
 C    5.160327   -1.825500   -0.545754
 N    3.264671   -4.555755   -0.616471
 C    2.075812   -5.018945   -0.165927
 C    1.970687   -6.303046    0.402338
 C    0.765350   -6.746472    0.864213
 C   -0.393385   -5.937240    0.785268
 C   -0.321488   -4.677302    0.238250
 C    0.911696   -4.214383   -0.243762
 N    0.974071   -2.983628   -0.799240
 O   -1.526989   -6.503746    1.277253
 C   -2.718012   -5.753339    1.213402
 C   -3.747261    1.119519   -0.552874
 O   -4.109755    1.479837    0.541777
 N   -3.455592   -0.181739   -0.826863
 S   -2.994859   -1.225674    0.440593
 O   -2.844563   -2.507538   -0.174203
 O   -1.849455   -0.659415    1.089994
 C   -4.388045   -1.280955    1.550715
 C   -4.331931   -0.412464    2.758804
 C   -4.058786   -1.873944    2.885721
 H    0.156196   -1.272321   -1.962464
 H    0.646823    0.118363   -3.858657
 H    2.065878    0.826444   -3.045186
 H    1.902432    0.195514   -0.035657
 H    0.193016   -0.305508    0.170192
 H   -6.112088    4.742731    0.501062
 H   -4.730460    5.344821   -0.417774
 H   -4.559058    3.911753    0.606623
 H   -6.352697    4.056489   -1.859170
 H   -6.080458    2.635640   -0.842429
 H   -3.909151    4.060472   -2.476224
 H   -5.260498    1.297160   -2.885848
 H   -3.949124    2.009601   -3.912616
 H   -1.643447    3.012286   -1.490096
 H    0.383870    2.567957   -2.678284
 H    1.135698    1.447146    1.555216
 H    2.182712    4.181926    1.205388
 H    5.679167    1.170535    1.536769
 H    6.220743    2.569669    2.473898
 H    7.282412    1.859170    1.249263
 H    6.449363    4.822040    1.357009
 H    6.032236    5.009842   -0.346738
 H    7.497801    4.129206    0.110825
 H    5.196833    3.029355   -1.668060
 H    6.662301    2.130741   -1.248260
 H    5.073723    1.440850   -0.896279
 H   -0.330036    4.904938    1.326887
 H   -0.928627    4.915219    2.985493
 H    0.799580    5.048668    2.687431
 H    0.492514    1.547544    3.873357
 H   -0.054547    3.077361    4.563317
 H    1.566290    2.948878    3.874113
 H   -2.033610    2.640530    3.061556
 H   -1.344609    1.365824    2.048223
 H   -1.894184    2.875285    1.325552
 H    4.508857   -2.303925   -2.544785
 H    5.335874   -3.640502   -1.703020
 H    6.113302   -1.412856   -0.868992
 H    4.456898   -1.009362   -0.400073
 H    5.304593   -2.329278    0.407201
 H    2.856030   -6.916774    0.457796
 H    0.659187   -7.727487    1.300762
 H   -1.168581   -4.017923    0.140614
 H   -2.645377   -4.835038    1.804068
 H   -2.969843   -5.483061    0.184462
 H   -3.493105   -6.396928    1.627209
 H   -3.051735   -0.391934   -1.743377
 H   -5.303021   -1.510970    1.033549
 H   -3.498817    0.269342    2.815875
 H   -5.260618   -0.010533    3.132755
 H   -4.789756   -2.514622    3.356167
 H   -3.034391   -2.180686    3.034560
