87 
5er1_ligand_dft.xyz
 C   -0.026476    5.922271    0.710823
 C   -0.515983    4.201993   -1.070814
 C    0.117491    4.454494    0.301394
 C    1.603515    4.054496    0.325180
 N    1.159489    1.680435    0.857955
 C    1.885278    2.606338   -0.067070
 C    3.388703    2.256499   -0.040314
 O    3.784177    1.931310    1.282124
 C    3.725741    1.056747   -0.981437
 N    4.386400   -0.069702   -0.238193
 C    3.964073   -1.433324   -0.707482
 C    2.488007   -1.495898   -0.294076
 O    2.157604   -0.890501    0.729809
 C    4.834955   -2.551582   -0.098424
 C    6.280292   -2.460280   -0.603152
 C    4.770407   -2.608264    1.431384
 N    1.665281   -2.175010   -1.086715
 C    0.206078   -2.147355   -1.000740
 C   -0.297356   -0.694882   -1.199929
 O    0.458382    0.239727   -1.471040
 C   -0.419119   -2.897071    0.210455
 C   -0.496059   -2.106702    1.531977
 C    0.256916   -4.258174    0.390467
 C   -1.671024   -2.561986    2.398338
 N   -1.628857   -0.584786   -1.110944
 C   -2.427939    0.594864   -1.359817
 C   -2.448724    1.508111   -0.128513
 O   -1.601243    1.498521    0.749720
 C   -3.837225    0.144658   -1.820517
 C   -4.434472   -0.886568   -0.885859
 C   -4.297847   -2.251719   -1.167341
 C   -5.068715   -0.508994    0.301717
 C   -4.768118   -3.215702   -0.277002
 C   -5.543212   -1.469823    1.189071
 C   -5.387405   -2.825278    0.906374
 C   -3.597451    3.256201    0.958277
 O   -3.463462    2.343438   -0.147244
 H   -1.080749    6.212025    0.753690
 H    0.411631    6.109774    1.696435
 H    0.467929    6.581008   -0.011858
 H    0.002339    4.771878   -1.850718
 H   -0.493691    3.143765   -1.359497
 H   -1.562666    4.521648   -1.078226
 H   -0.418683    3.849188    1.046244
 H    2.150653    4.697122   -0.376712
 H    2.025274    4.250327    1.321618
 H    0.128140    1.719252    0.730879
 H    1.415397    0.686733    0.712837
 H    1.381493    1.904028    1.830837
 H    1.484873    2.396754   -1.060732
 H    3.936115    3.131937   -0.401138
 H    4.305980    2.644239    1.670333
 H    2.813106    0.657696   -1.431976
 H    4.397437    1.361159   -1.784960
 H    5.405131    0.014036   -0.275226
 H    4.109079    0.025155    0.753143
 H    4.073668   -1.432114   -1.796524
 H    4.399669   -3.477708   -0.495517
 H    6.336947   -2.381794   -1.693902
 H    6.830445   -3.357327   -0.308762
 H    6.823785   -1.614243   -0.161136
 H    5.344574   -3.468185    1.784729
 H    3.749150   -2.709735    1.807160
 H    5.219255   -1.720578    1.894569
 H    2.059039   -2.602573   -1.913054
 H   -0.118648   -2.692611   -1.894008
 H   -1.454103   -3.105287   -0.100075
 H    0.446594   -2.218683    2.076923
 H   -0.613723   -1.035369    1.332405
 H    0.254038   -4.842790   -0.536018
 H    1.294834   -4.140894    0.721091
 H   -0.266112   -4.844046    1.149998
 H   -1.621432   -3.631745    2.625122
 H   -2.626975   -2.370012    1.896732
 H   -1.680201   -2.026105    3.351466
 H   -2.161758   -1.388911   -0.797888
 H   -1.953396    1.179010   -2.157952
 H   -3.731727   -0.276239   -2.824772
 H   -4.475501    1.026300   -1.901837
 H   -3.849502   -2.563340   -2.109195
 H   -5.217638    0.544411    0.520351
 H   -4.668518   -4.269312   -0.518508
 H   -6.047710   -1.160513    2.098883
 H   -5.763772   -3.572213    1.597593
 H   -3.607069    2.703435    1.898762
 H   -4.545166    3.764304    0.795130
 H   -2.773669    3.972216    0.953744
