53 
5es1_ligand_xtb.xyz
 C    4.725779   -0.445214   -0.630051
 C    2.195218   -0.184348   -0.423983
 C   -0.677736    4.260433   -0.675771
 C    4.843983   -1.927556   -1.041660
 C    6.325001   -2.328637   -0.934878
 C    6.863594   -2.136859    0.483215
 F   -6.404638   -2.903817   -1.138344
 C    6.703280   -0.692838    0.954784
 C    5.264960   -0.224098    0.803178
 C   -0.177472    0.559090   -0.161661
 C    1.156623    0.793230   -0.427661
 N   -4.477581    0.888920    0.284125
 C   -3.165243    0.484941   -0.001382
 C   -2.398569    1.657169    0.029618
 C   -3.330741    2.660583    0.348089
 N   -4.556139    2.187186    0.495295
 C   -5.478707   -0.004173    0.323537
 C   -5.167617   -1.314676    0.077541
 C   -3.821344   -1.665054   -0.204141
 N   -2.861317   -0.787478   -0.238838
 C   -0.971990    1.717379   -0.211424
 S    1.428762    2.486552   -0.752720
 C   -0.236280    2.849107   -0.534234
 N    3.427255    0.200514   -0.786058
 F    4.443725   -0.840084    1.702916
 O    1.885438   -1.384353   -0.128061
 F    5.158779    1.103299    1.089885
 N    3.968097   -2.790685   -0.246931
 C   -6.221006   -2.387215    0.086417
 F   -7.405790   -1.938537    0.506222
 F   -5.876301   -3.408669    0.883142
 C   -0.569761    5.001987    0.662811
 H    5.400832    0.113440   -1.287640
 H   -0.045429    4.766472   -1.408182
 H   -1.706284    4.284840   -1.038250
 H    4.514921   -2.008864   -2.083755
 H    6.910070   -1.731130   -1.634634
 H    6.431892   -3.374123   -1.227823
 H    6.355952   -2.805670    1.181646
 H    7.920578   -2.398815    0.503987
 H    6.988896   -0.595356    2.003261
 H    7.331295   -0.021180    0.367697
 H   -0.574262   -0.416652    0.052711
 H   -3.170321    3.707758    0.502169
 H   -6.470923    0.359474    0.548798
 H   -3.551775   -2.693079   -0.397820
 H    3.514214    1.195718   -0.955454
 H    4.312470   -2.912322    0.701565
 H    3.864462   -3.704267   -0.675375
 H    2.734477   -2.078139   -0.139146
 H    0.467437    5.045380    0.986955
 H   -1.149230    4.500822    1.434227
 H   -0.938986    6.017269    0.551467
