57 
5eue_ligand_dft.xyz
 C    0.196184    4.509094    0.722412
 C   -0.533451    3.864689   -0.270939
 C   -1.098999    2.608605   -0.033033
 C   -1.801866    1.892138   -1.182466
 C   -0.754473    1.281078   -2.137291
 C   -2.701499   -0.342222   -0.426783
 C   -5.478052   -2.381950    0.723978
 C   -6.396647   -3.444999    1.205229
 C    2.555296   -0.432495   -1.281620
 C    3.283692    0.422365   -0.444542
 C    4.255688   -0.130601    0.391585
 C    3.768098   -2.371845   -0.427704
 C    3.033918    1.912900   -0.380392
 C    0.371559    3.901771    1.964109
 C   -0.187758    2.650691    2.207119
 C   -0.919289    2.004042    1.212953
 C    2.809089   -1.809782   -1.251899
 C   -4.151974   -2.339241    0.417998
 C    4.500988   -1.503277    0.404946
 C   -3.957279   -0.996376    0.019389
 C    4.049647   -3.847677   -0.403796
 C    6.232497   -1.299082    2.024809
 C    1.491190    0.093864   -2.199105
 N   -5.066507   -0.297619    0.082552
 N   -2.839001    0.956915   -0.768113
 N    0.307668    0.553720   -1.396304
 O   -1.646835   -0.983567   -0.467719
 O   -6.018297   -1.161566    0.522500
 O    5.423596   -2.099921    1.183872
 H    0.619566    5.489654    0.530716
 H   -0.676109    4.350997   -1.233736
 H   -2.323437    2.643555   -1.783484
 H   -1.209037    0.587277   -2.847179
 H   -0.270745    2.091225   -2.687780
 H   -7.195438   -3.620035    0.478329
 H   -6.859384   -3.154837    2.152986
 H   -5.846309   -4.375686    1.352310
 H    4.825830    0.532081    1.033264
 H    2.262660    2.169038    0.361161
 H    3.938666    2.444053   -0.073906
 H    2.728861    2.338528   -1.343016
 H    0.934143    4.407243    2.742235
 H   -0.062158    2.175417    3.174532
 H   -1.354056    1.030715    1.418528
 H    2.239440   -2.467415   -1.905466
 H   -3.421975   -3.131055    0.465388
 H    3.890291   -4.261553    0.597141
 H    5.093246   -4.049568   -0.665398
 H    3.405952   -4.382202   -1.107076
 H    5.627294   -0.758107    2.761967
 H    6.827814   -0.587513    1.440701
 H    6.898307   -1.989238    2.541762
 H    1.820662    0.954383   -2.789468
 H    1.130032   -0.673633   -2.886879
 H   -3.766765    1.342376   -0.626622
 H   -0.180555   -0.245811   -0.928872
 H    0.641032    1.159286   -0.638033
