31 
5evd_ligand_xtb.xyz
 O    1.976341    1.888343   -1.788345
 C    0.970897    1.652559   -0.981858
 O    0.179469    2.460038   -0.576348
 C    0.882615    0.171661   -0.586452
 N   -0.402930   -0.052993    0.102862
 C    2.017906   -0.225357    0.379822
 C    2.351267    0.880101    1.374061
 C    3.249791   -0.690081   -0.378161
 S    1.308325   -1.662775    1.342985
 C   -0.395044   -1.389231    0.735014
 C   -0.827158   -2.416942   -0.303293
 S   -1.777615   -1.533757   -1.602370
 C   -1.614197    0.069355   -0.734321
 C   -2.813440    0.402980    0.153269
 S   -2.335690    1.594027    1.469580
 H    2.047893    2.826276   -2.040485
 H    0.919964   -0.447846   -1.489472
 H   -0.551799    0.705542    0.838537
 H    2.867611    1.700487    0.879848
 H    1.463574    1.271060    1.868153
 H    3.013023    0.486229    2.141455
 H    3.028832   -1.558442   -0.994075
 H    4.033362   -0.962245    0.323533
 H    3.621199    0.107295   -1.017763
 H   -1.067791   -1.387756    1.595555
 H   -1.452324   -3.191738    0.136100
 H    0.025809   -2.892374   -0.787333
 H   -1.471605    0.850925   -1.482575
 H   -3.183338   -0.479066    0.675767
 H   -3.625948    0.815075   -0.441188
 H   -2.150580    2.650310    0.679853
