25 
5evk_ligand_xtb.xyz
 C    2.111858    1.066491    0.550172
 O    3.081564   -1.175864   -1.230467
 C    1.973237   -1.191376   -0.535445
 O    1.476839   -2.140875    0.004653
 C    1.351645    0.211768   -0.451376
 N   -0.035621    0.129445    0.055029
 C   -1.026823   -0.487329   -0.868776
 C   -1.501772   -1.852721   -0.347770
 S   -1.343131   -1.961673    1.482027
 S    1.006406    2.485412    0.875416
 C   -0.489355    1.469258    0.531322
 C   -1.359385    2.065654   -0.553136
 S   -2.445312    0.685074   -1.011406
 H    2.299391    0.533245    1.483671
 H    3.049642    1.441122    0.146777
 H    3.525641   -2.041787   -1.271173
 H    1.361879    0.684708   -1.438794
 H   -0.082315   -0.554425    0.895035
 H   -0.578752   -0.598517   -1.859422
 H   -0.923251   -2.665155   -0.779730
 H   -2.554015   -1.989184   -0.594540
 H   -0.344306   -2.840894    1.501264
 H   -1.065502    1.338470    1.451826
 H   -0.781257    2.401602   -1.414905
 H   -1.968858    2.887156   -0.185254
