42 
5evz_ligand_xtb.xyz
 P    2.482305   -1.442885    0.335650
 O    2.896914   -2.800662   -0.014963
 O    2.834637   -0.314818   -0.715014
 O    2.944219   -0.893327    1.704106
 P    0.196187   -1.985594   -0.968338
 O    0.754181   -1.302550   -2.133442
 O    0.429642   -3.534810   -0.834775
 O    0.832934   -1.381939    0.401666
 O   -1.351017   -1.776165   -0.829148
 C   -2.145084   -2.302420    0.231148
 C   -3.071358   -1.208128    0.781990
 O   -2.369378   -0.331785    1.657296
 C   -3.674674   -0.322026   -0.317947
 O   -4.934868    0.137102    0.077516
 C   -2.654271    0.824164   -0.403689
 O   -3.238252    2.001648   -0.863725
 C   -2.160372    0.917085    1.060770
 N   -0.759033    1.257569    1.116811
 C    0.157973    0.796066    2.005043
 N    1.373399    1.195869    1.758283
 C    1.273539    1.975176    0.630405
 C    2.202095    2.652178   -0.183536
 N    3.522805    2.675316    0.059349
 N    1.731285    3.339624   -1.228197
 C    0.436366    3.347759   -1.476804
 N   -0.527490    2.722888   -0.820592
 C   -0.067934    2.028292    0.223998
 H    2.350640   -0.487949   -1.540117
 H    2.494338   -0.023902    1.915256
 H    1.372661   -3.692014   -0.641121
 H   -2.741652   -3.122528   -0.175692
 H   -1.508292   -2.672195    1.036446
 H   -3.866602   -1.677673    1.370481
 H   -3.739988   -0.863209   -1.270582
 H   -5.053193    1.013624   -0.316833
 H   -1.820988    0.510556   -1.042915
 H   -2.503192    2.611782   -1.063915
 H   -2.738769    1.686006    1.602932
 H   -0.120467    0.156842    2.818207
 H    4.111796    3.056098   -0.662398
 H    3.906468    1.991154    0.688291
 H    0.123306    3.931288   -2.331678
