52 
5ewj_ligand_xtb.xyz
 C   -4.428191    2.272148    1.459570
 N    0.235980   -1.700022    0.080396
 O    1.054129   -0.736962    2.344235
 C    4.787454    0.894270   -0.223803
 O    4.673899    3.123062   -1.119381
 C    2.781974    2.210919   -0.069612
 C   -3.817162    0.539672   -0.639544
 C   -4.573702    0.104250    0.442441
 C   -4.876488    0.962508    1.485262
 C   -3.467364   -0.401880   -1.760532
 C   -2.138618   -1.148529   -1.540302
 C   -0.955965   -0.184016   -1.437111
 C   -3.688352    2.721705    0.379113
 C   -3.387051    1.861489   -0.662588
 C    0.341744   -0.939934   -1.185980
 C   -0.844510   -2.705227   -0.037144
 C   -2.177441   -2.008021   -0.275465
 C    1.521063   -2.251380    0.619035
 C    2.144636   -1.171043    1.545979
 C    2.825471   -0.027160    0.825599
 C    4.152632   -0.143406    0.429881
 C    4.107459    2.082084   -0.484649
 C    2.154654    1.168388    0.578594
 C    2.456477   -2.780101   -0.451271
 H   -4.667372    2.943218    2.270047
 H   -0.051059   -1.037457    0.824426
 H    1.370972   -0.120304    3.012679
 H    5.820726    0.789554   -0.522215
 H    5.598835    2.944916   -1.332345
 H    2.269222    3.139752   -0.257246
 H   -4.946520   -0.910031    0.460864
 H   -5.470296    0.609912    2.314984
 H   -4.261447   -1.141556   -1.873328
 H   -3.394972    0.157305   -2.694651
 H   -1.981716   -1.802886   -2.404819
 H   -1.134494    0.526939   -0.627520
 H   -0.854880    0.384661   -2.361316
 H   -3.352432    3.747140    0.342426
 H   -2.828780    2.227602   -1.512647
 H    0.530070   -1.645604   -1.996852
 H    1.178269   -0.243944   -1.114749
 H   -0.604163   -3.376471   -0.864600
 H   -0.890627   -3.286780    0.885356
 H   -2.956965   -2.764867   -0.361977
 H   -2.419445   -1.378933    0.584138
 H    1.233093   -3.076718    1.278713
 H    2.890313   -1.683700    2.170076
 H    4.700106   -1.048944    0.642263
 H    1.134692    1.297203    0.913369
 H    3.296187   -3.273792    0.029996
 H    1.954736   -3.518332   -1.071340
 H    2.849540   -1.986940   -1.080172
