76 
5ey8_ligand_xtb.xyz
 C   -0.351393   -2.488471    0.681198
 C    1.765379   -1.886520    0.933132
 C    0.216831   -1.630987    2.733200
 C    1.532979   -1.490831    2.261546
 N   -0.702241   -2.139586    1.904509
 N    0.839416   -2.398598    0.113544
 C    3.570534   -1.078600    1.849785
 C    1.371744    1.560038    0.940145
 C   -0.025028    1.959365    1.393920
 C   -1.062354    1.674334    0.309072
 C   -2.446893    2.235614    0.631682
 C   -3.099729    1.661590    1.890958
 C   -3.277760    0.141436    1.897712
 C   -4.051990   -0.427238    0.708470
 O    4.241930    2.482127    0.923205
 P    3.401054    2.564264   -0.271940
 O    3.544533    3.910950   -1.107540
 O    3.667008    1.439225   -1.376872
 C    5.010487    1.053599   -1.618831
 C    5.095708   -0.459813   -1.838952
 O    4.966259   -1.156477   -0.603294
 C    3.995013   -0.995571   -2.765869
 O    4.479736   -2.070713   -3.517863
 C    2.915412   -1.448265   -1.771076
 O    2.149541   -2.483810   -2.299112
 C    3.768789   -1.872007   -0.550994
 N    3.078321   -1.611462    0.688997
 N    2.691560   -0.992192    2.799541
 N   -0.168355   -1.235433    3.957032
 O    1.834449    2.472749   -0.052256
 C   -5.488469    0.080613    0.611023
 C   -6.251926   -0.603018   -0.520867
 C   -7.684942   -0.090472   -0.642413
 C   -8.434621   -0.772281   -1.784954
 C   -9.904945   -0.363189   -1.878216
 C  -10.098874    1.092376   -2.287153
 H   -1.141013   -2.890900    0.061382
 H    4.589927   -0.760851    1.927523
 H    2.078872    1.560390    1.775501
 H    1.345737    0.557961    0.503197
 H   -0.023286    3.023115    1.636685
 H   -0.257792    1.396080    2.298415
 H   -0.712661    2.125668   -0.621655
 H   -1.126609    0.595738    0.152515
 H   -3.100001    2.055917   -0.223714
 H   -2.365383    3.318798    0.754452
 H   -2.502720    1.939906    2.762167
 H   -4.076453    2.135901    2.009456
 H   -3.804740   -0.130279    2.816447
 H   -2.301563   -0.344096    1.928844
 H   -3.524556   -0.199686   -0.219085
 H   -4.068982   -1.515040    0.810770
 H    3.671012    4.655930   -0.521189
 H    5.625130    1.321432   -0.754486
 H    5.373357    1.576909   -2.507855
 H    6.081978   -0.703161   -2.248767
 H    3.617532   -0.204241   -3.426491
 H    3.738736   -2.682903   -3.640814
 H    2.296666   -0.584353   -1.492801
 H    1.467704   -2.698940   -1.627054
 H    3.977431   -2.956656   -0.612976
 H   -1.107453   -1.430227    4.256053
 H    0.531831   -0.937421    4.612028
 H   -5.489804    1.158316    0.437933
 H   -6.002754   -0.104670    1.557236
 H   -6.267035   -1.681702   -0.346469
 H   -5.727221   -0.430493   -1.463888
 H   -8.214526   -0.273232    0.295880
 H   -7.662195    0.988112   -0.807060
 H   -8.381825   -1.854453   -1.640056
 H   -7.937176   -0.542872   -2.730403
 H  -10.397742   -1.003591   -2.614019
 H  -10.388674   -0.536615   -0.914073
 H   -9.704957    1.766328   -1.531060
 H   -9.590247    1.293617   -3.227671
 H  -11.156649    1.310566   -2.416420
