56 
5eyd_ligand_dft.xyz
 C    8.865291    1.188257   -0.334840
 O    7.848931    0.311048   -0.747972
 C    6.666652    0.473428   -0.013896
 C    5.666563   -0.529054   -0.559742
 O    4.480487   -0.372683    0.198887
 C    3.405006   -1.131295   -0.115177
 C    2.256233   -0.945739    0.634732
 C    1.127261   -1.702740    0.327281
 C   -0.105554   -1.500937    1.100092
 O   -0.202509   -0.661861    1.998351
 C    3.375155   -2.089483   -1.148361
 N    2.308155   -2.812347   -1.451067
 C    1.186519   -2.628060   -0.731714
 C    0.005103   -3.379507   -1.058374
 C   -1.111829   -3.191653   -0.332341
 N   -1.170570   -2.309361    0.735784
 C   -2.448179   -2.181514    1.475048
 C   -2.887121   -3.505225    2.093643
 C   -3.488122   -1.600867    0.569744
 N   -3.459281   -0.299747    0.142417
 C   -2.610757    0.743577    0.440663
 N   -4.483568   -2.232455   -0.011811
 N   -5.145011   -1.372713   -0.828878
 C   -4.518929   -0.211105   -0.734758
 C   -4.715225    1.051748   -1.364937
 F   -5.729790    1.163409   -2.215073
 C   -3.876213    2.087399   -1.114753
 C   -2.786481    1.937845   -0.187752
 C   -1.856862    3.039934    0.070399
 C   -0.587439    2.948965    0.618019
 C   -2.023032    4.423791   -0.160727
 N   -0.958107    5.120819    0.211883
 N   -0.098308    4.203876    0.685075
 C    1.204459    4.623063    1.153628
 H    9.119417    1.038824    0.725669
 H    8.575041    2.240296   -0.478969
 H    9.744394    0.974262   -0.945722
 H    6.263193    1.493486   -0.119322
 H    6.830587    0.287463    1.059569
 H    5.482382   -0.328576   -1.622816
 H    6.066677   -1.545854   -0.457862
 H    2.230670   -0.227716    1.446962
 H    4.256652   -2.276871   -1.755554
 H    0.026093   -4.072821   -1.889018
 H   -2.043314   -3.700409   -0.550523
 H   -2.227512   -1.472184    2.275425
 H   -3.765649   -3.335978    2.720885
 H   -2.079707   -3.905895    2.711867
 H   -3.164266   -4.241935    1.336626
 H   -1.835302    0.540690    1.169951
 H   -4.031114    3.026941   -1.632620
 H   -0.016780    2.092860    0.953009
 H   -2.881495    4.940362   -0.568994
 H    1.085937    5.406682    1.904371
 H    1.798508    5.007449    0.320850
 H    1.710256    3.764749    1.598672
