48 
5ezz_ligand_xtb.xyz
 C    0.986853    1.550117    0.110926
 C   -1.495720    1.858226    0.349095
 C    0.141697    3.706265    1.067017
 C    3.064995   -0.283981    0.220925
 C   -1.670167    0.526328    0.001762
 C   -2.891115   -0.113538    0.190841
 C   -3.027796   -1.534935   -0.148530
 C    1.904614    1.474036   -0.921172
 C   -4.186652   -2.045966   -0.736250
 C   -3.366901   -4.166246   -0.812888
 C   -3.961334    0.612024    0.708154
 F    4.987588   -1.606400   -1.672560
 C    5.170710   -1.130144   -0.412158
 F    6.121379   -1.899908    0.135403
 O    4.062542   -1.245050    0.341953
 C    2.150932   -0.224756    1.279688
 C    2.293939   -1.158314    2.437565
 C    1.127540    0.702387    1.206547
 C    2.943116    0.555917   -0.871296
 C   -0.158332    2.540261    0.092026
 N   -0.235057    3.296526   -1.149482
 C   -0.489786    4.633895   -0.890098
 N   -0.821403    5.555689   -1.676204
 O   -0.294574    4.883694    0.420449
 C   -2.581253    2.575623    0.840056
 C   -3.803453    1.949782    1.018159
 C   -1.991502   -2.433133    0.102022
 N   -4.345598   -3.315985   -1.053409
 C   -2.166222   -3.764055   -0.237851
Cl   -0.907403   -4.907078    0.058676
 H    1.221639    3.774878    1.248389
 H   -0.374551    3.612662    2.024048
 H   -0.849092   -0.022717   -0.434293
 H    1.813699    2.129558   -1.772477
 H   -5.018598   -1.398718   -0.978185
 H   -3.544350   -5.196549   -1.085824
 H   -4.908827    0.123991    0.878373
 H    5.563413   -0.098805   -0.506861
 H    2.216457   -2.188885    2.095274
 H    3.275769   -1.045010    2.893362
 H    1.527693   -0.970087    3.184173
 H    0.413823    0.761816    2.015423
 H    3.629833    0.493624   -1.700881
 H   -0.664771    2.862472   -1.951000
 H   -0.953785    5.263912   -2.636538
 H   -2.484789    3.624625    1.075488
 H   -4.637885    2.513580    1.406945
 H   -1.074836   -2.104771    0.568693
