45 
5f00_ligand_dft.xyz
 C   -4.233295   -2.305929    1.391552
 C   -3.881583   -0.034825    1.687254
 C   -2.113688    3.605889   -0.512461
 C   -0.792539    3.191343   -0.563536
 C   -1.509125    0.930878   -0.140071
 C   -5.333160    0.740655   -0.209699
 C    0.813386   -0.813398   -1.323369
 C    2.808240    0.078894   -0.276223
 C    3.479318   -1.145603   -0.520576
 C    4.829963   -1.236113   -0.103847
 C    4.664597    1.032231    0.688423
 C   -3.917805    0.296050    0.183359
 N   -3.571627   -0.944279   -0.528760
 C   -4.002363   -2.187013   -0.102551
 O   -4.722487   -1.121562    1.982272
 C   -0.476360    1.838272   -0.381629
 C   -2.843845    1.342172   -0.113678
 C   -3.143387    2.690653   -0.300632
 N   -4.119177   -3.244892   -0.809026
 N    0.869810    1.465156   -0.404151
 C    1.433413    0.237856   -0.671593
 C    1.497848   -2.025170   -1.552578
 C    2.798093   -2.210108   -1.160268
 C    5.411675   -0.153373    0.495597
 N    3.413092    1.139860    0.317803
Cl    7.069628   -0.198412    1.028520
 H   -3.280315   -2.597334    1.863564
 H   -4.965201   -3.093168    1.568076
 H   -2.845833   -0.251935    1.992769
 H   -4.242291    0.822890    2.259929
 H   -2.348862    4.655975   -0.657963
 H    0.002641    3.906289   -0.756155
 H   -1.284742   -0.112405    0.045101
 H   -5.654824    1.622837    0.352193
 H   -6.035244   -0.066718    0.012103
 H   -5.387377    0.972963   -1.278579
 H   -0.203199   -0.709529   -1.681964
 H    5.387732   -2.153579   -0.264345
 H    5.129480    1.894806    1.159571
 H   -3.528335   -0.836075   -1.535833
 H   -4.168930    3.041424   -0.288515
 H   -3.883131   -3.065573   -1.788665
 H    1.542167    2.140176   -0.060991
 H    0.968725   -2.827356   -2.058375
 H    3.312775   -3.149268   -1.336835
