45 
5f00_ligand_xtb.xyz
 C   -4.125359   -2.342400    1.334724
 C   -3.918049   -0.060068    1.678466
 C   -2.117276    3.595667   -0.484147
 C   -0.808162    3.167843   -0.539630
 C   -1.547886    0.922636   -0.133822
 C   -5.351504    0.746413   -0.218541
 C    0.768182   -0.885709   -1.252613
 C    2.757096    0.073132   -0.271938
 C    3.439509   -1.156661   -0.463572
 C    4.791605   -1.211821   -0.063983
 C    4.608927    1.083044    0.613969
 C   -3.937838    0.306754    0.179800
 N   -3.591539   -0.901163   -0.559934
 C   -3.804963   -2.177326   -0.132256
 O   -4.693984   -1.200717    1.928863
 C   -0.506004    1.812079   -0.382713
 C   -2.869138    1.350264   -0.093137
 C   -3.152017    2.696734   -0.275117
 N   -3.684218   -3.224042   -0.833721
 N    0.818707    1.424338   -0.433703
 C    1.383032    0.195867   -0.649271
 C    1.452477   -2.090758   -1.432259
 C    2.755692   -2.243861   -1.037958
 C    5.369134   -0.093626    0.475858
 N    3.359679    1.156528    0.253783
Cl    7.020374   -0.100392    0.984173
 H   -3.190868   -2.615293    1.853327
 H   -4.837164   -3.158774    1.456792
 H   -2.879258   -0.223163    2.003585
 H   -4.350983    0.750585    2.266537
 H   -2.341603    4.644427   -0.610053
 H   -0.007756    3.873585   -0.705978
 H   -1.328743   -0.115247    0.058766
 H   -5.681428    1.591292    0.378471
 H   -6.036828   -0.080108   -0.041467
 H   -5.385393    1.015781   -1.272358
 H   -0.241995   -0.801365   -1.617917
 H    5.352474   -2.125663   -0.191106
 H    5.050562    1.977801    1.030151
 H   -3.471599   -0.773827   -1.556480
 H   -4.165885    3.058935   -0.248000
 H   -3.435276   -3.053292   -1.805897
 H    1.510403    2.123875   -0.187496
 H    0.931105   -2.914517   -1.896690
 H    3.272615   -3.181472   -1.172144
