44 
5f01_ligand_dft.xyz
 C   -4.921479   -0.362848    1.390236
 C   -1.406654   -0.266811    0.813259
 C   -1.223103   -1.735392    0.540184
 C   -0.384240    0.814943    0.635335
 N    0.904399    0.392256    0.478888
 C   -3.794483   -2.210650   -1.545453
 C    2.043079    1.157625    0.228127
 C    4.478941    2.496930   -0.278152
 C    3.262681    0.411938    0.135478
 C    4.481364    1.089059   -0.116054
 C    5.556731   -1.050830   -0.021718
 C   -3.508384   -1.044948   -0.596888
 C   -4.086348    0.265405   -1.148897
 C   -4.104013    1.362593   -0.106525
 O   -4.807618    0.948533    1.058465
 N   -4.159044   -1.273814    0.682429
 C   -1.994510   -0.891410   -0.428982
 O   -0.730979    1.987623    0.609077
 F   -3.362384    0.687627   -2.222121
 F   -5.360527    0.050452   -1.586869
 N   -5.666487   -0.761542    2.337729
 C    2.069392    2.525523    0.067346
 C    3.295461    3.181183   -0.186976
 C    5.656494    0.302846   -0.190899
 C    4.293713   -1.640069    0.222398
 N    3.191863   -0.936300    0.297829
Cl    6.961058   -2.077167   -0.097662
 H   -2.122649   -0.025648    1.593811
 H   -0.263327   -2.124659    0.211746
 H   -1.778317   -2.400732    1.194651
 H    1.112805   -0.591592    0.602744
 H   -3.334538   -2.028490   -2.520399
 H   -4.868703   -2.347397   -1.682682
 H   -3.363354   -3.128825   -1.133461
 H    5.414480    3.013338   -0.470377
 H   -3.081495    1.658873    0.146823
 H   -4.641931    2.224227   -0.506695
 H   -4.434928   -2.221570    0.893477
 H   -1.477691   -0.660117   -1.356623
 H   -6.133315    0.033366    2.767553
 H    1.148878    3.087038    0.142614
 H    3.285521    4.259810   -0.309885
 H    6.616659    0.773703   -0.377867
 H    4.215939   -2.716184    0.356369
