54 
5f1u_ligand_xtb.xyz
 N   -1.636581    0.421612    1.731050
 C   -1.558483   -0.152200    0.353870
 C   -1.462834    1.030492   -0.636735
 O   -0.670408    1.038854   -1.547851
 O   -2.314194    1.977118   -0.362390
 C   -2.835385   -0.985880    0.053804
 C   -4.200214   -0.290761    0.192998
 C   -5.336935   -1.272850   -0.147282
 C   -6.707020   -0.596977   -0.043488
 N   -7.818906   -1.538410   -0.359499
 C   -0.334129   -1.087311    0.197651
 C    1.067134   -0.691720    0.712049
 C    1.905655    0.399873    0.016627
 N    1.894978    0.264999   -1.472422
 C    3.372988    0.395429    0.522437
 C    4.243506   -0.766467    0.113382
 C    5.550571   -0.642524   -0.085288
 C    6.475570   -1.770869   -0.447520
 N    7.840634   -1.592250    0.127476
 C    1.347267    1.811488    0.349315
 O    1.940318    2.736940   -0.344960
 O    0.470437    1.979171    1.160843
 H   -0.801360    1.042600    1.876952
 H   -1.672925   -0.309076    2.452724
 H   -2.474349    1.014394    1.817239
 H   -2.310290    2.725862   -0.989794
 H   -2.747971   -1.366459   -0.965514
 H   -2.824573   -1.852765    0.718066
 H   -4.356408    0.065182    1.212936
 H   -4.267920    0.564043   -0.479205
 H   -5.294064   -2.120461    0.539240
 H   -5.191048   -1.649390   -1.161177
 H   -6.865509   -0.215805    0.967525
 H   -6.766524    0.242028   -0.739835
 H   -7.738210   -1.912759   -1.316343
 H   -8.730056   -1.059567   -0.290130
 H   -7.838165   -2.335238    0.293893
 H   -0.282250   -1.357146   -0.858066
 H   -0.573206   -2.009611    0.731004
 H    1.014057   -0.415277    1.766317
 H    1.646433   -1.615493    0.675019
 H    2.255673   -0.647039   -1.776944
 H    0.909819    0.406283   -1.814733
 H    2.475719    1.004197   -1.894955
 H    3.856208    1.321543    0.204801
 H    3.345214    0.416264    1.616629
 H    3.785023   -1.744596    0.065732
 H    6.013991    0.333587   -0.024797
 H    6.580034   -1.816355   -1.537331
 H    6.075654   -2.727896   -0.105698
 H    8.277822   -0.717442   -0.199584
 H    7.821709   -1.575118    1.157898
 H    8.456588   -2.369499   -0.158258
 H    1.684640    3.654351   -0.125899
