54 
5f1u_ligand_dft.xyz
 N   -1.655737    0.522062    1.737173
 C   -1.564586   -0.100140    0.358543
 C   -1.458907    1.057719   -0.647175
 O   -0.706532    1.042963   -1.596960
 O   -2.292894    2.037757   -0.358832
 C   -2.842587   -0.955632    0.084984
 C   -4.228251   -0.278842    0.120270
 C   -5.345931   -1.317918   -0.118655
 C   -6.726540   -0.654757   -0.101493
 N   -7.834893   -1.656960   -0.341335
 C   -0.331221   -1.032647    0.260862
 C    1.094831   -0.643854    0.736722
 C    1.952957    0.442857    0.056850
 N    1.967956    0.271737   -1.448462
 C    3.426016    0.437957    0.579600
 C    4.272271   -0.786054    0.303443
 C    5.476370   -0.715718   -0.274909
 C    6.371014   -1.908128   -0.495338
 N    7.739017   -1.711608    0.133220
 C    1.397312    1.855317    0.335019
 O    1.976961    2.754995   -0.431849
 O    0.562911    2.087227    1.181429
 H   -0.803591    1.088828    1.916870
 H   -1.754926   -0.187680    2.472001
 H   -2.455450    1.163152    1.807345
 H   -2.239070    2.758169   -1.016891
 H   -2.694488   -1.416898   -0.898202
 H   -2.826147   -1.780770    0.809196
 H   -4.405896    0.206415    1.089185
 H   -4.292692    0.502623   -0.642712
 H   -5.298770   -2.095119    0.654185
 H   -5.183574   -1.808451   -1.086470
 H   -6.945631   -0.188222    0.861736
 H   -6.828097    0.099708   -0.884997
 H   -7.751944   -2.120993   -1.254165
 H   -8.756490   -1.199696   -0.325540
 H   -7.859188   -2.393474    0.374421
 H   -0.304279   -1.370314   -0.779786
 H   -0.573063   -1.933542    0.835951
 H    1.090510   -0.390520    1.801825
 H    1.655466   -1.582762    0.678795
 H    2.391019   -0.621449   -1.724765
 H    0.999462    0.332545   -1.819810
 H    2.507912    1.023671   -1.896898
 H    3.930462    1.327183    0.187162
 H    3.363258    0.577048    1.666940
 H    3.920411   -1.743449    0.687967
 H    5.852780    0.240735   -0.640654
 H    6.558468   -2.075196   -1.560010
 H    5.961938   -2.823568   -0.063369
 H    8.235796   -0.898397   -0.252070
 H    7.686259   -1.584319    1.151329
 H    8.340751   -2.529269   -0.037160
 H    1.684342    3.662890   -0.218227
