47 
5f1x_ligand_xtb.xyz
 P    4.099173   -0.416613   -0.482737
 O    3.906362   -1.772121    0.054452
 O    5.572955    0.108083   -0.339177
 O    3.813212   -0.138176   -1.982047
 P    1.740549    0.830787    0.576992
 O    1.712446    1.576173    1.941752
 O    1.015402    1.411994   -0.539102
 O    3.307960    0.690229    0.377928
 P    1.072863   -1.762199   -0.211986
 O    1.537392   -1.293138   -1.513058
 O    1.692952   -3.065289    0.392141
 O    1.268228   -0.664220    0.959486
 O   -0.478050   -2.052183   -0.215219
 C   -1.078846   -2.916774    0.747922
 C   -2.595106   -2.688188    0.770894
 O   -2.928225   -1.526337    1.522436
 C   -3.201516   -2.481331   -0.625553
 O   -4.520985   -2.944270   -0.646514
 C   -3.133730   -0.953785   -0.786443
 O   -4.155408   -0.480737   -1.606872
 C   -3.262637   -0.465954    0.679693
 N   -2.392936    0.663785    0.907056
 C   -1.517300    0.872161    1.919604
 N   -0.841863    1.982684    1.805223
 C   -1.280535    2.552201    0.634008
 C   -0.903926    3.681415   -0.116648
 N    0.054385    4.544272    0.268053
 N   -1.569165    3.930884   -1.246690
 C   -2.506961    3.098022   -1.652169
 N   -2.908304    1.975036   -1.078862
 C   -2.261267    1.730925    0.063498
 H    6.053961   -0.382415    0.326263
 H    2.923933   -0.464585   -2.208567
 H    0.774320    1.886113    2.108223
 H    2.661346   -2.943764    0.371393
 H   -0.671180   -2.713490    1.740280
 H   -0.859522   -3.951080    0.474135
 H   -3.075367   -3.534455    1.272342
 H   -2.602042   -2.986305   -1.393308
 H   -5.017454   -2.351468   -1.230387
 H   -2.143459   -0.675970   -1.167611
 H   -3.993937    0.476710   -1.724827
 H   -4.301858   -0.152065    0.880467
 H   -1.420148    0.181397    2.732946
 H    0.367236    5.196761   -0.432448
 H    0.719586    4.228128    0.953111
 H   -3.002010    3.358025   -2.577994
