61 
5f2f_ligand_xtb.xyz
 C   -4.661917    1.160791    0.064004
 C   -3.294121    1.217473   -0.172091
 C   -0.299430    1.067364    0.155898
 C   -0.467503   -0.795509   -1.332585
 C   -5.287652   -0.073146    0.205386
 C    1.067560    1.115982   -0.055271
 C    0.892408   -0.758349   -1.571524
 C   -3.175239   -1.174292   -0.073174
 C   -1.086848    0.112660   -0.475123
 C   -2.536248    0.050405   -0.238349
 C    1.556856   -1.725314   -2.500379
 C    1.666502    0.213973   -0.921099
 C   -5.157485   -2.600941    0.300646
 C    5.885115   -0.336230   -0.825568
 C    5.903978   -0.380965    0.708367
 C    5.226587    0.960648   -1.306427
 C    4.472446   -0.204033    1.229995
 C    3.859161    1.131339   -0.628095
 C   -7.181650   -3.933310   -0.048906
 C    4.415057   -0.126066    2.757456
 O   -4.540185   -3.535117    0.775752
 O    3.922932    1.015944    0.764467
 O    7.195183   -0.369661   -1.340272
 O    6.479909   -1.608968    1.082680
 O    6.020646    2.072843   -1.002594
 O    4.844186   -1.357006    3.302954
 O    3.012576    0.180767   -1.208736
 O   -6.697685    2.351448   -0.216881
 C   -5.531059    2.374971    0.128111
 N   -4.929057    3.487577    0.607598
 C   -5.623336    4.742910    0.746213
 C   -4.547715   -1.245357    0.131741
 N   -6.434844   -2.703676   -0.130382
 H   -2.805995    2.165438   -0.349361
 H   -0.748329    1.764993    0.847436
 H   -1.068302   -1.535890   -1.840070
 H   -6.350443   -0.077744    0.397777
 H    1.662475    1.844431    0.471307
 H   -2.610637   -2.094357   -0.089149
 H    2.308456   -2.302411   -1.964181
 H    0.830543   -2.404864   -2.937290
 H    2.069624   -1.186394   -3.295185
 H    5.304417   -1.195212   -1.193281
 H    6.516203    0.459931    1.077258
 H    5.059451    0.892064   -2.392845
 H    3.864599   -1.056901    0.889989
 H    3.503464    2.156693   -0.805473
 H   -8.091250   -3.793013    0.538180
 H   -6.544472   -4.668570    0.440315
 H   -7.450516   -4.292954   -1.044322
 H    5.058327    0.697885    3.092565
 H    3.381699    0.097151    3.046808
 H    7.656100   -1.079779   -0.876252
 H    6.158479   -1.831969    1.968265
 H    6.930117    1.819991   -1.218903
 H    4.731744   -1.333464    4.258839
 H   -3.980243    3.436150    0.939855
 H   -5.674035    5.047296    1.793683
 H   -6.632483    4.598555    0.363421
 H   -5.125080    5.524635    0.169521
 H   -6.879899   -1.911017   -0.563733
