47 
5f2k_ligand_xtb.xyz
 N    2.885903    0.214568   -1.136061
 C    3.028408   -0.700867    0.021497
 C    2.432017   -2.083001   -0.272792
 C    0.919964   -2.154834   -0.109427
 S    0.011033   -1.075681   -1.293370
 C    4.542209   -0.832069    0.242599
 O    5.313641   -0.389185   -0.567626
 O    4.851496   -1.466504    1.344979
 C   -1.532413   -2.005658   -1.505076
 C   -2.592715   -1.687106   -0.450980
 O   -2.026914   -1.587249    0.849390
 C   -3.364801   -0.382346   -0.714061
 O   -4.561599   -0.699788   -1.363738
 C   -3.602641    0.178624    0.709565
 O   -4.792084   -0.294838    1.257721
 C   -2.399898   -0.384752    1.480473
 N   -1.250049    0.502583    1.465654
 C   -0.093392    0.211742    2.134872
 N    0.942768    0.888634    1.742781
 C    0.463738    1.710326    0.753042
 C    1.059593    2.597468   -0.140574
 N    2.452450    2.724130   -0.230718
 N    0.315847    3.221839   -1.035898
 C   -0.986732    2.976016   -1.069987
 N   -1.658155    2.112565   -0.334780
 C   -0.918694    1.479700    0.569086
 H    3.779381    0.144966   -1.661165
 H    2.769890    1.248549   -0.822380
 H    2.083463   -0.054893   -1.718545
 H    2.548976   -0.267113    0.909620
 H    2.713880   -2.390391   -1.282384
 H    2.865557   -2.797225    0.430076
 H    0.586762   -3.172167   -0.307054
 H    0.620570   -1.874519    0.898442
 H    5.812365   -1.558167    1.469005
 H   -1.264931   -3.061245   -1.481578
 H   -1.912991   -1.752430   -2.494068
 H   -3.320098   -2.512471   -0.452502
 H   -2.756380    0.323730   -1.293692
 H   -5.004033    0.109478   -1.647571
 H   -3.597770    1.274222    0.725813
 H   -5.259545   -0.811657    0.580914
 H   -2.658077   -0.605882    2.521830
 H   -0.068495   -0.525870    2.913678
 H    2.903869    2.766651    0.676896
 H    2.711026    3.509322   -0.820655
 H   -1.555477    3.528822   -1.802841
