47 
5f4n_ligand_xtb.xyz
 C   -0.794247    2.932350    0.129348
 O   -3.702568    0.815454   -0.017621
 C    1.185067    1.812358    0.102062
 O   -3.492444    3.022919   -0.301097
 C    0.570860    0.597983   -0.193061
 C   -0.808772    0.564857   -0.364512
 C   -0.982853   -1.895139   -0.828577
 C   -1.746068   -2.896977    0.081129
 C   -3.965592   -2.799308   -0.758711
 C   -4.512895   -2.303865    0.578761
 N   -1.503229   -0.559022   -0.715955
 C   -2.212657   -2.253831    1.402390
 C    4.890909    1.503317    0.273140
 C    3.553769    1.064304    0.151085
 C    4.309952   -1.060930   -0.134956
 C    5.628733   -0.619367   -0.018510
 C    6.702998   -1.539989   -0.114525
 C   -2.982351    1.817920   -0.164555
 C   -4.908953    3.154669   -0.273125
 N   -3.467377   -1.484286    1.233716
 C   -1.530758    1.775134   -0.159823
 O   -2.801783   -3.566108   -0.568958
 N    0.504513    2.959535    0.255196
 N    2.535257    1.972469    0.245290
 N    5.897586    0.675645    0.189246
 N    3.287320   -0.227411   -0.048463
 N    7.527819   -2.329321   -0.198164
 H   -1.307042    3.870405    0.285049
 H    1.194868   -0.266415   -0.330422
 H    0.063782   -1.899357   -0.530193
 H   -1.044218   -2.264884   -1.857196
 H   -1.049402   -3.705514    0.327858
 H   -4.683146   -3.470926   -1.232694
 H   -3.787198   -1.951016   -1.431696
 H   -5.404148   -1.696569    0.425078
 H   -4.752263   -3.159825    1.214228
 H   -2.365508   -0.380650   -1.208684
 H   -1.431184   -1.596325    1.784357
 H   -2.399585   -3.049288    2.128433
 H    5.132862    2.543937    0.439768
 H    4.068830   -2.101952   -0.299440
 H   -5.114533    4.204621   -0.460594
 H   -5.365074    2.533195   -1.045928
 H   -5.300006    2.858528    0.702101
 H   -3.797351   -1.176271    2.152176
 H   -3.342779   -0.579609    0.650790
 H    2.801374    2.935618    0.416986
