60 
5f4r_ligand_dft.xyz
 C    5.583037    0.306783   -0.507668
 C    6.865922   -0.002179   -0.096332
 F    7.829137    0.906930   -0.255128
 C    7.161584   -1.236515    0.474296
Cl    8.784577   -1.596017    0.977978
 C    6.138478   -2.164317    0.626882
 C    4.840484   -1.876866    0.221455
 C    4.559867   -0.631875   -0.349384
 N    3.284831   -0.258565   -0.794507
 C    2.111581   -0.903523   -0.603472
 O    1.923881   -1.970188   -0.039180
 C    0.942701   -0.077367   -1.162111
 O    1.088465    0.708217   -2.094959
 N   -0.190584   -0.279892   -0.476702
 C   -1.391679    0.516696   -0.640219
 C   -2.641254   -0.282357   -0.352081
 C   -2.945123   -1.574195   -0.757139
 C   -4.165503   -2.124919   -0.369645
 C   -5.069107   -1.399892    0.410553
 C   -6.417043   -1.984359    0.786773
 N   -7.528031   -1.397482    0.028880
 C   -7.466467   -1.648202   -1.398196
 C   -8.010819   -0.143392    0.419503
 N   -8.324540    0.844788   -0.330054
 N   -8.157885   -0.009229    1.803289
 C   -4.746774   -0.098137    0.810674
 C   -3.532701    0.451789    0.427746
 C   -2.979467    1.821520    0.728229
 C   -1.481973    1.710142    0.360435
 C   -0.915083    3.037182   -0.161902
 N    0.475702    3.029690   -0.566069
 C    1.498829    2.948560    0.360693
 N    1.452096    3.023245    1.636845
 N    2.754887    2.769740   -0.258450
 H    5.395236    1.278336   -0.952405
 H    6.363037   -3.127467    1.071968
 H    4.050841   -2.603549    0.349752
 H    3.179290    0.697668   -1.130935
 H   -0.153538   -0.972707    0.261578
 H   -1.384777    0.879034   -1.675743
 H   -2.244949   -2.148110   -1.358201
 H   -4.417856   -3.137759   -0.674675
 H   -6.602590   -1.828758    1.850166
 H   -6.423562   -3.064579    0.603611
 H   -7.266514   -2.711623   -1.557525
 H   -6.676600   -1.074842   -1.907404
 H   -8.431203   -1.412229   -1.854557
 H   -8.029275    0.697418   -1.291924
 H   -8.627462    0.863270    2.011187
 H   -8.618905   -0.796573    2.243445
 H   -5.445738    0.464247    1.425166
 H   -3.477537    2.575607    0.102438
 H   -3.131315    2.124538    1.768999
 H   -0.920992    1.407143    1.253229
 H   -1.053923    3.814451    0.599273
 H   -1.500418    3.354903   -1.032996
 H    0.658940    2.492637   -1.409728
 H    0.494401    3.060901    1.978215
 H    3.479663    2.910879    0.437106
 H    2.884648    3.399323   -1.043564
