60 
5f4r_ligand_xtb.xyz
 C    5.676838   -0.246318   -1.093951
 C    6.967812   -0.625199   -0.787443
 F    7.949952   -0.318336   -1.650865
 C    7.260667   -1.310904    0.386756
Cl    8.882159   -1.774873    0.746735
 C    6.223324   -1.612011    1.257958
 C    4.925371   -1.241095    0.966098
 C    4.641323   -0.555414   -0.213762
 N    3.353069   -0.164655   -0.553036
 C    2.192686   -0.353514    0.107927
 O    2.012043   -0.938547    1.156989
 C    1.037445    0.287690   -0.664809
 O    1.218649    0.822935   -1.751854
 N   -0.120750    0.186697   -0.020888
 C   -1.374107    0.729448   -0.483897
 C   -2.525971   -0.208260   -0.249286
 C   -2.577576   -1.569519   -0.467100
 C   -3.754847   -2.243398   -0.175573
 C   -4.858245   -1.570061    0.330419
 C   -6.152678   -2.295497    0.615475
 N   -7.233514   -1.819251   -0.231560
 C   -7.003915   -2.015507   -1.645964
 C   -7.994356   -0.725257    0.157068
 N   -8.506554    0.168242   -0.583085
 N   -8.224164   -0.630376    1.525145
 C   -4.794124   -0.194920    0.546398
 C   -3.626183    0.477564    0.256110
 C   -3.323556    1.938850    0.398380
 C   -1.791040    2.013975    0.277545
 C   -1.295539    3.297650   -0.403836
 N    0.136030    3.335904   -0.590703
 C    0.996790    3.393716    0.492640
 N    0.757164    3.796746    1.670693
 N    2.273272    2.937206    0.205664
 H    5.489396    0.283065   -2.015331
 H    6.441338   -2.142053    2.170879
 H    4.124707   -1.477760    1.646685
 H    3.231964    0.348149   -1.425011
 H   -0.089870   -0.263467    0.886995
 H   -1.247593    0.933614   -1.555390
 H   -1.721223   -2.100180   -0.856215
 H   -3.811371   -3.309812   -0.340022
 H   -6.427683   -2.138352    1.659002
 H   -6.029156   -3.369880    0.442046
 H   -6.622363   -3.025018   -1.795197
 H   -6.279593   -1.305469   -2.064962
 H   -7.948540   -1.922233   -2.181415
 H   -8.234736    0.141444   -1.557566
 H   -8.898528    0.098628    1.712191
 H   -8.461375   -1.500666    1.978765
 H   -5.654541    0.328786    0.935848
 H   -3.799471    2.495418   -0.414021
 H   -3.687861    2.348533    1.339997
 H   -1.345171    1.958698    1.276479
 H   -1.594255    4.163344    0.196488
 H   -1.758439    3.397299   -1.389586
 H    0.468209    2.741060   -1.340566
 H   -0.203497    4.064617    1.846578
 H    2.941441    3.216126    0.908426
 H    2.583802    3.093152   -0.741390
