45 
5fao_ligand_dft.xyz
 O   -3.755779    0.596183   -0.000449
 S   -5.120304   -0.397557   -0.398224
 O   -5.120261   -0.498694   -1.821535
 O   -6.227546    0.574308    0.128265
 O   -4.976012   -1.499755    0.511768
 N   -2.801682   -0.110801    0.745696
 C   -1.737078   -0.760925   -0.110579
 C   -0.822971   -1.601785    0.781950
 C    0.026420   -0.745705    1.731383
 C   -0.957622    0.339322   -0.819850
 N   -0.239633    1.141660    0.162889
 C   -0.039864    2.491871   -0.057414
 O    0.843197    3.126465    0.478054
 C    0.704676    0.449712    1.052208
 C    1.969125    0.067846    0.269012
 O    2.157010   -1.049268   -0.208273
 N    2.867406    1.080500    0.168063
 O    3.816770    0.932414   -0.810266
 C    5.167805    0.634390   -0.371400
 C    5.268850   -0.154234    0.938775
 C    5.155958   -1.642809    0.544621
 N    4.900516   -1.593052   -0.941128
 C    5.618508   -0.365812   -1.425820
 H   -6.706347    1.012947   -0.603314
 H   -3.303295   -0.813392    1.319497
 H   -2.381819    0.604407    1.354579
 H   -2.280473   -1.383923   -0.824945
 H   -1.397883   -2.346599    1.343153
 H   -0.168420   -2.157530    0.104580
 H    0.784275   -1.380140    2.196652
 H   -0.582991   -0.358811    2.557853
 H   -1.619585    0.987450   -1.400477
 H   -0.270292   -0.148652   -1.522166
 H   -0.771198    2.940686   -0.747606
 H    0.988513    1.179855    1.814348
 H    2.569141    2.045635    0.323607
 H    5.748698    1.558158   -0.367285
 H    4.502594    0.149668    1.652190
 H    6.238474    0.047611    1.398459
 H    4.330578   -2.174046    1.015531
 H    6.085050   -2.190101    0.708372
 H    3.877615   -1.447516   -1.058926
 H    5.178311   -2.448442   -1.427287
 H    6.693828   -0.553454   -1.393460
 H    5.301970   -0.115512   -2.438228
