70 
5fbn_ligand_dft.xyz
 O   -7.249648    0.739650   -0.284583
 C   -7.312677   -0.485639   -0.287526
 C   -8.648575   -1.163920   -0.028182
 C   -8.869740   -1.386645    1.468509
 C   -9.094149   -2.342220   -0.924704
 O  -10.299424   -1.667203   -1.286992
 C   -9.833252   -0.441000   -0.702440
 N   -6.218457   -1.265200   -0.559169
 C   -6.040352   -2.626270   -0.061133
 C   -5.237579   -2.625519    1.247187
 C   -3.931217   -1.833159    1.124297
 C   -4.956566   -0.574383   -0.773181
 C   -4.207044   -0.433247    0.564518
 C   -2.969483    0.385271    0.406908
 N   -3.015587    1.732638    0.210204
 C   -4.094812    2.606176    0.134400
 C   -3.810639    3.905939   -0.100803
 C   -1.704144    2.179470    0.089960
 C   -1.537219    3.576768   -0.225369
 N   -0.283501    4.081768   -0.434120
 N   -2.549910    4.403512   -0.303105
 N   -1.723306   -0.048298    0.414291
 C   -0.918227    1.037463    0.238950
 C    0.543432    0.874502    0.226538
 C    1.096848   -0.253590   -0.390498
 C    1.404271    1.792984    0.841367
 C    2.779364    1.607712    0.803026
 C    3.326821    0.483050    0.184677
 C    2.469688   -0.447764   -0.411473
 C    4.820112    0.363452    0.176577
 O    5.542252    1.339646    0.294062
 N    5.301703   -0.918664    0.039850
 C    6.627111   -1.348104   -0.052455
 N    6.732692   -2.677365   -0.141041
 C    7.726678   -0.485104   -0.063011
 C    8.982881   -1.063968   -0.176767
 C   10.192889   -0.162037   -0.173176
 F   11.324519   -0.837664   -0.424228
 F   10.082197    0.802501   -1.098827
 F   10.339031    0.442926    1.015715
 C    9.116891   -2.443868   -0.271962
 C    7.951398   -3.200340   -0.247137
 H   -9.880279   -1.772127    1.639102
 H   -8.158805   -2.106999    1.887341
 H   -8.762561   -0.440809    2.008898
 H   -8.443381   -2.518057   -1.792486
 H   -9.290759   -3.295839   -0.417597
 H  -10.573729    0.003627   -0.028611
 H   -9.534542    0.293890   -1.457393
 H   -5.506917   -3.199065   -0.830118
 H   -7.009049   -3.105762    0.084631
 H   -5.028833   -3.659699    1.542416
 H   -5.856656   -2.181897    2.038008
 H   -3.232922   -2.350433    0.455251
 H   -3.434789   -1.761421    2.096541
 H   -4.349055   -1.167160   -1.468026
 H   -5.165593    0.391021   -1.232503
 H   -4.883479    0.094833    1.252353
 H   -5.090541    2.192830    0.237717
 H   -4.617613    4.627711   -0.165679
 H   -0.277940    5.009862   -0.833434
 H    0.441408    3.457978   -0.755689
 H    0.433327   -0.972556   -0.859071
 H    0.991275    2.651522    1.361601
 H    3.448814    2.326366    1.263889
 H    2.863755   -1.312694   -0.938422
 H    4.650555   -1.690638    0.070229
 H    7.585074    0.583457    0.018859
 H   10.086991   -2.915197   -0.364150
 H    7.997399   -4.284146   -0.318458
