70 
5fbn_ligand_xtb.xyz
 O   -7.365055    0.620885   -0.618112
 C   -7.322636   -0.573491   -0.377782
 C   -8.611120   -1.354950   -0.147302
 C   -8.913028   -1.478326    1.342078
 C   -8.839929   -2.621743   -0.993500
 O   -9.973582   -2.042221   -1.630480
 C   -9.788699   -0.791103   -0.964273
 N   -6.148563   -1.246219   -0.350698
 C   -5.894356   -2.552204    0.212442
 C   -5.155054   -2.412877    1.549030
 C   -3.874075   -1.601239    1.376758
 C   -4.930642   -0.500925   -0.590402
 C   -4.199968   -0.249915    0.739923
 C   -2.973060    0.559159    0.511921
 N   -2.996017    1.900014    0.295337
 C   -4.029166    2.800007    0.223102
 C   -3.717058    4.091274   -0.048423
 C   -1.677897    2.308456    0.124059
 C   -1.470177    3.675064   -0.237693
 N   -0.229896    4.145969   -0.510846
 N   -2.465381    4.528987   -0.299375
 N   -1.744588    0.095448    0.478148
 C   -0.914845    1.144449    0.262692
 C    0.523027    0.949440    0.234051
 C    1.042926   -0.214993   -0.334716
 C    1.404911    1.878483    0.791106
 C    2.765152    1.662828    0.736397
 C    3.284592    0.507344    0.152284
 C    2.403308   -0.434696   -0.379086
 C    4.762254    0.378180    0.105123
 O    5.499848    1.339635    0.131800
 N    5.217364   -0.920478    0.041855
 C    6.515441   -1.376602   -0.042405
 N    6.610884   -2.704334   -0.063585
 C    7.633241   -0.538059   -0.106394
 C    8.873835   -1.145238   -0.193862
 C   10.105292   -0.280564   -0.234769
 F   11.189456   -0.937685   -0.673443
 F    9.958845    0.787844   -1.030789
 F   10.421151    0.194134    0.984589
 C    8.981997   -2.531776   -0.212454
 C    7.804060   -3.258831   -0.146268
 H   -9.875852   -1.964625    1.485834
 H   -8.152944   -2.057375    1.861545
 H   -8.957281   -0.484438    1.783845
 H   -8.050520   -2.850080   -1.717554
 H   -9.105600   -3.526494   -0.436774
 H  -10.669853   -0.497279   -0.389639
 H   -9.514420    0.009726   -1.655380
 H   -5.264868   -3.109102   -0.491565
 H   -6.824282   -3.099446    0.347730
 H   -4.923849   -3.405539    1.936975
 H   -5.805692   -1.909419    2.268048
 H   -3.170076   -2.130242    0.733536
 H   -3.388605   -1.448950    2.341032
 H   -4.285219   -1.080870   -1.257361
 H   -5.202674    0.437757   -1.075626
 H   -4.878134    0.308948    1.396887
 H   -5.032455    2.438297    0.364921
 H   -4.485687    4.846226   -0.109747
 H   -0.191526    5.079833   -0.883251
 H    0.511277    3.506258   -0.737152
 H    0.355672   -0.937668   -0.745765
 H    1.017703    2.753810    1.290825
 H    3.454856    2.380516    1.154355
 H    2.771269   -1.326920   -0.865789
 H    4.542066   -1.672069    0.094387
 H    7.520620    0.533077   -0.089383
 H    9.941000   -3.017687   -0.279894
 H    7.813733   -4.339886   -0.159580
