67 
5fbo_ligand_xtb.xyz
 N    2.978501    4.771364    0.420571
 C    4.259337    4.355986    0.482411
 C    4.655018    3.081804    0.240341
 C    2.037065    3.893536    0.157348
 C    2.336817    2.504144   -0.002443
 N    3.681320    2.151689   -0.020638
 C    3.746610    0.827167   -0.314942
 N    2.545295    0.323859   -0.484710
 C    1.650025    1.319286   -0.278229
 C    5.019424    0.068288   -0.448252
 N    0.790754    4.370535   -0.046172
 C    4.765032   -1.427337   -0.203625
 C    6.895298   -0.576120   -1.970649
 C    6.647419   -2.052798   -1.641311
 N    5.990901   -2.172715   -0.345591
 C    5.622937    0.255892   -1.847265
 C    0.229712    1.020024   -0.326701
 C   -0.675438    1.487325    0.627042
 C   -2.016501    1.166970    0.606177
 C   -2.499416    0.338912   -0.403816
 C   -1.612682   -0.149079   -1.363395
 C   -0.273374    0.170404   -1.314132
 F   -0.232504    2.268906    1.643757
 C   -3.935318   -0.030871   -0.529425
 O   -4.453263   -0.267763   -1.597364
 N   -4.602492   -0.090767    0.671466
 C   -5.930678   -0.385966    0.907076
 N   -6.240521   -0.427530    2.200606
 C   -7.482604   -0.693312    2.552799
 C   -8.500000   -0.933265    1.642116
 C   -8.168504   -0.884715    0.292928
 C   -6.870168   -0.609803   -0.103051
 C   -9.203853   -1.134235   -0.771572
 F   -8.929947   -2.235876   -1.490378
 F  -10.437296   -1.302346   -0.274877
 F   -9.281129   -0.119286   -1.647598
 C    5.859224   -2.780281   -2.729716
 C    6.675040   -2.746400    0.678490
 O    7.828665   -3.125389    0.553651
 C    5.953420   -2.937023    1.979099
 C    6.779283   -3.481794    3.119013
 C    6.470127   -2.227211    3.202021
 H    4.978891    5.126375    0.714446
 H    5.679837    2.754808    0.236918
 H    5.738408    0.426554    0.298809
 H    0.640222    5.334026    0.199009
 H    0.000500    3.754824   -0.078069
 H    4.020767   -1.778861   -0.922990
 H    4.353550   -1.556609    0.794567
 H    7.299664   -0.495141   -2.980275
 H    7.644004   -0.188748   -1.275515
 H    7.614993   -2.552947   -1.524330
 H    5.849359    1.310323   -2.023031
 H    4.889146   -0.054086   -2.592900
 H   -2.656775    1.588687    1.366467
 H   -2.000344   -0.786740   -2.142611
 H    0.417177   -0.225007   -2.041406
 H   -4.075811    0.033563    1.526473
 H   -7.669442   -0.713795    3.617385
 H   -9.505235   -1.146504    1.964969
 H   -6.586738   -0.569390   -1.141525
 H    6.442038   -2.800764   -3.646823
 H    5.666733   -3.804537   -2.420377
 H    4.908977   -2.296834   -2.937477
 H    4.901353   -3.202856    1.915381
 H    7.258803   -4.354246    3.482742
 H    6.508779   -1.281673    3.682973
