67 
5fbo_ligand_dft.xyz
 N    2.866518    4.691864    0.306497
 C    4.178627    4.300646    0.348469
 C    4.612522    3.034770    0.158947
 C    1.956421    3.766057    0.122926
 C    2.293446    2.371983   -0.015188
 N    3.645905    2.058324   -0.052684
 C    3.747476    0.721822   -0.294609
 N    2.549993    0.173258   -0.409796
 C    1.637283    1.166385   -0.224888
 C    5.054744    0.013475   -0.443454
 N    0.650927    4.147090    0.065076
 C    4.877371   -1.500615   -0.239187
 C    7.000407   -0.505182   -1.970586
 C    6.800258   -2.005201   -1.705201
 N    6.151148   -2.185728   -0.400528
 C    5.699593    0.286379   -1.816522
 C    0.195208    0.879356   -0.276558
 C   -0.671806    1.253576    0.751121
 C   -2.029016    0.976171    0.720238
 C   -2.555372    0.276951   -0.366229
 C   -1.709867   -0.123447   -1.402888
 C   -0.354953    0.165290   -1.347524
 F   -0.185703    1.905201    1.815036
 C   -4.014797   -0.048370   -0.496041
 O   -4.539539   -0.197542   -1.585907
 N   -4.686013   -0.174524    0.697069
 C   -6.039733   -0.449641    0.912569
 N   -6.336308   -0.590119    2.205333
 C   -7.603678   -0.843896    2.530355
 C   -8.625523   -0.968615    1.600470
 C   -8.291811   -0.819277    0.256995
 C   -6.983680   -0.555398   -0.115407
 C   -9.354698   -1.002654   -0.798255
 F   -9.563249   -2.306710   -1.042533
 F  -10.527580   -0.480878   -0.403458
 F   -9.020614   -0.423046   -1.957749
 C    6.028974   -2.721592   -2.814611
 C    6.945283   -2.523785    0.670886
 O    8.149905   -2.709407    0.561779
 C    6.266602   -2.719877    2.009152
 C    7.168343   -3.036361    3.169799
 C    6.657486   -1.853478    3.180807
 H    4.900261    5.091406    0.524943
 H    5.647937    2.725543    0.156351
 H    5.744272    0.366166    0.338671
 H    0.497533    5.141832   -0.008907
 H   -0.023564    3.546514   -0.382135
 H    4.151176   -1.883866   -0.962528
 H    4.465226   -1.692631    0.749924
 H    7.417574   -0.357152   -2.973156
 H    7.741909   -0.132169   -1.252839
 H    7.780933   -2.471511   -1.605928
 H    5.890114    1.358606   -1.942506
 H    4.980411    0.005309   -2.596159
 H   -2.642911    1.337270    1.539195
 H   -2.133509   -0.653819   -2.248249
 H    0.309593   -0.157264   -2.142233
 H   -4.155769   -0.169452    1.557661
 H   -7.806518   -0.951818    3.592620
 H   -9.643591   -1.169553    1.911776
 H   -6.688442   -0.435734   -1.147618
 H    6.590962   -2.662161   -3.752385
 H    5.893690   -3.776936   -2.561009
 H    5.040240   -2.287580   -2.996124
 H    5.263946   -3.152325    1.974818
 H    7.807832   -3.794587    3.588569
 H    6.556237   -0.873591    3.618340
