29 
5fcz_ligand_dft.xyz
 C    0.476533   -1.552706   -0.208508
 S   -4.380996   -0.420360   -0.637281
 C   -0.443566   -0.383332    0.163108
 C    0.164670    0.923675   -0.357105
 C    1.600072    1.069891    0.132573
 C    2.399555   -0.174540   -0.249816
 C    3.818945   -0.169781    0.293234
 C   -2.962094   -0.295176    0.214876
 C   -2.916501    0.140656    1.658905
 N   -1.778872   -0.589689   -0.367284
 O   -0.543712    2.066459    0.084012
 O    2.216495    2.192338   -0.447922
 O    1.771757   -1.332037    0.293113
 O    4.507681   -1.337992   -0.078258
 H    0.501940   -1.679140   -1.305022
 H    0.110436   -2.480977    0.235616
 H   -0.500071   -0.329960    1.252240
 H    0.189308    0.891713   -1.458957
 H    1.580458    1.151461    1.232438
 H    2.438385   -0.258171   -1.347861
 H    3.777537   -0.050741    1.388147
 H    4.360607    0.681749   -0.122720
 H   -2.499427   -0.655416    2.287393
 H   -3.925022    0.364521    2.001387
 H   -2.284741    1.027842    1.775712
 H   -1.850044   -0.866082   -1.340484
 H   -1.363309    2.134071   -0.421810
 H    1.618320    2.937366   -0.299161
 H    3.950216   -2.076917    0.199396
