71 
5fdp_ligand_xtb.xyz
 C   -6.870782    1.893227    0.601823
 C   -9.006296    2.145848   -0.127141
 C   -8.105296    0.062635   -0.217397
 C   -6.880470    0.511885    0.320275
 C   -4.486645    0.241337    0.724113
 C   -3.395682   -0.695095    0.264430
 C   -3.668849   -2.009945   -0.130552
 C   -5.074209   -2.524997   -0.151275
 C   -5.922595   -1.704838    0.827580
 C   -2.092074   -0.238973    0.262549
 C   -1.022797   -1.066489   -0.131184
 C   -1.314433   -2.387413   -0.534683
 C   -2.611842   -2.834147   -0.524936
 C    0.306744   -0.549919   -0.112717
 C    2.708511   -1.003705   -0.409755
 C    3.700241   -1.827919    0.126703
 C    5.027221   -1.488270   -0.049998
 C    5.390966   -0.332020   -0.731296
 C    4.406097    0.484067   -1.277606
 C    3.070444    0.133030   -1.138371
 C    6.124078   -2.331200    0.562835
 C    4.810951    1.721764   -2.031520
 N   -7.901949    2.667931    0.366214
 N   -9.121151    0.863581   -0.413727
 N   -5.804087   -0.301806    0.511565
 N    1.372561   -1.365576   -0.234514
 C    3.238671    3.529603   -1.225978
 C    2.693021    3.648744    0.196533
 C    4.390167    2.265118    1.152839
 C    5.248604    2.974288    0.099135
 C    2.219905    2.332884    2.167995
 C   -5.639378   -2.435294   -1.575215
 N    4.645524    3.002768   -1.263025
 N    2.952069    2.406041    0.908158
 O    0.484234    0.749775    0.057268
 F    5.693721   -3.529514    0.944773
 F    6.612114   -1.710324    1.652862
 F    7.143742   -2.500400   -0.278899
 H   -6.019940    2.380754    1.057010
 H   -9.850341    2.792815   -0.304011
 H   -8.258098   -0.964109   -0.519006
 H   -4.393142    1.178372    0.167880
 H   -4.316977    0.463811    1.791464
 H   -5.079351   -3.574276    0.158336
 H   -5.559828   -1.874927    1.850566
 H   -6.963796   -2.016655    0.785224
 H   -1.876579    0.768763    0.582624
 H   -0.538114   -3.050154   -0.884821
 H   -2.829148   -3.845403   -0.833104
 H    3.437636   -2.725184    0.665884
 H    6.438188   -0.100009   -0.847637
 H    2.307585    0.699348   -1.648629
 H    4.236193    1.812739   -2.956266
 H    5.866987    1.636468   -2.297650
 H    1.195588   -2.356511   -0.121810
 H    3.206616    4.509123   -1.704638
 H    2.604920    2.853351   -1.796626
 H    3.115329    4.523499    0.712061
 H    1.614039    3.801105    0.130769
 H    4.667266    2.700238    2.124128
 H    4.619664    1.198934    1.201594
 H    5.404635    4.012833    0.398600
 H    6.225867    2.493149    0.045233
 H    1.152389    2.420648    1.977676
 H    2.510989    3.126268    2.865019
 H    2.424616    1.373182    2.639262
 H   -5.698197   -1.398792   -1.898765
 H   -5.006635   -2.978911   -2.271449
 H   -6.633662   -2.871631   -1.608333
 H    5.199008    3.682632   -1.791113
 H    1.409821    0.996667    0.257922
