45 
5fhm_ligand_xtb.xyz
 C    2.825038    0.360397    0.716591
 C    1.666311    1.056924    0.518808
 O    1.870901    2.385319    0.580023
 N    3.207359    2.549089    0.810973
 C    3.849522    1.368608    0.896119
 C    0.333797    0.591553    0.239174
 N   -0.699783    1.391552   -0.084129
 N   -1.704274    0.622269   -0.288214
 N   -1.305760   -0.611230   -0.092400
 N   -0.044944   -0.687920    0.240005
 C   -2.159102   -1.763235   -0.236950
 C   -6.153892   -0.566469    0.762997
 C   -5.529227   -0.052855   -0.366340
 C   -4.250964   -0.480781   -0.701676
 C   -3.577498   -1.388242    0.104383
 C   -4.209432   -1.896958    1.231059
 C   -5.498576   -1.500164    1.547381
 O    5.070563    1.238492    1.072420
 C    3.029479   -1.120659    0.755561
 C    4.260370   -1.582333   -0.032840
 C    4.264246   -0.958368   -1.443233
 O    5.486390   -0.966613   -1.954016
 O    3.284285   -0.541363   -1.982487
 N    5.518693   -1.228965    0.662275
 C   -6.183156    1.004048   -1.213508
 N   -5.517728    2.325174   -0.941129
 H    3.557940    3.493307    0.889939
 H   -1.773637   -2.542804    0.422403
 H   -2.092954   -2.117215   -1.272399
 H   -7.152706   -0.252124    1.023267
 H   -3.772913   -0.110155   -1.596214
 H   -3.700920   -2.610945    1.860031
 H   -5.988592   -1.910526    2.415381
 H    2.136823   -1.587686    0.337619
 H    3.124650   -1.450610    1.793588
 H    4.208281   -2.669354   -0.172946
 H    5.515788   -0.616412   -2.860582
 H    5.656409   -1.775421    1.514669
 H    5.455674   -0.123495    0.924712
 H    6.319473   -1.366483    0.037078
 H   -6.065333    0.778077   -2.274691
 H   -7.245557    1.091361   -0.985123
 H   -5.689282    2.609641    0.032185
 H   -4.499348    2.223627   -1.066116
 H   -5.867346    3.061964   -1.567146
