33 
5fl1_ligand_xtb.xyz
 O    0.664202    2.851516    0.179989
 C    0.869695    1.478235   -0.050239
 C    2.366477    1.191290    0.092273
 O    3.107118    1.911791   -0.852902
 C    0.043644    0.619178    0.924889
 C    0.532883   -0.847148    0.921572
 O    1.886674   -1.044605    0.874119
 C    2.591803   -0.306999   -0.120266
 C    4.066871   -0.690526    0.013514
 O    4.285629   -2.040761   -0.281991
 N   -1.327349    0.654282    0.511522
 C   -1.649478   -0.316177   -0.240664
 S   -0.428606   -1.610995   -0.476604
 N   -2.804685   -0.444171   -0.903439
 C   -3.928635    0.438243   -0.654624
 C   -4.814897   -0.083154    0.438364
 C   -6.103254   -0.327134    0.296328
 H   -0.286571    2.999556    0.246263
 H    0.566870    1.223260   -1.081431
 H    2.680054    1.458975    1.115463
 H    2.779730    2.820788   -0.833167
 H    0.138390    1.040092    1.931989
 H    0.188485   -1.370148    1.821469
 H    2.230611   -0.594323   -1.118665
 H    4.395443   -0.453511    1.035367
 H    4.648891   -0.105267   -0.699086
 H    3.678687   -2.561482    0.258143
 H   -3.009946   -1.351935   -1.291232
 H   -4.490516    0.552800   -1.585077
 H   -3.507642    1.402470   -0.358682
 H   -4.310066   -0.264594    1.377301
 H   -6.614087   -0.149492   -0.636233
 H   -6.706038   -0.700410    1.106067
