53 
5fol_ligand_dft.xyz
 C   -0.850835   -0.703265   -0.258380
 N   -2.972519    0.381191   -0.361741
 O   -0.715140   -0.163425   -1.353568
 N   -2.034181    3.053925    0.817017
 C   -1.508342    2.280938    1.788609
 N   -0.334783    1.666745    1.808384
 C    0.394680    1.968072    0.721101
 C    0.045907    2.841573   -0.302413
 C   -1.250553    3.381610   -0.233864
 N   -1.776198    4.128876   -1.225005
 N    1.002575    2.855144   -1.294749
 C    1.886381    1.984326   -0.890468
 N    1.592189    1.423502    0.337280
 C   -2.250023   -0.705782    0.384471
 C   -2.974662   -2.060911    0.273836
 N    0.137776   -1.293770    0.430962
 C    1.518298   -1.029771    0.090160
 C    2.519626   -2.106482    0.466504
 O    2.142630   -2.550698    1.754951
 C    3.832966   -1.286141    0.473205
 C    4.609818   -1.335278   -0.830386
 O    3.733772   -0.978441   -1.881140
 O    3.466538    0.075196    0.741157
 C    2.083504    0.173635    0.871959
 C   -3.639089   -3.967041   -1.303280
 C   -3.086289   -2.547369   -1.181034
 C   -4.323839   -2.017087    1.000480
 H   -2.466338    0.453366   -1.270684
 H   -2.885386    1.308230    0.100031
 H   -3.961867    0.174847   -0.507676
 H   -2.159568    2.108971    2.643488
 H   -1.155028    4.479802   -1.939530
 H   -2.614561    4.655426   -1.029188
 H    2.778947    1.689471   -1.424678
 H   -2.178119   -0.393429    1.428697
 H   -2.327605   -2.765018    0.814102
 H   -0.032359   -1.636043    1.368594
 H    1.587164   -0.827130   -0.979028
 H    2.551983   -2.928856   -0.256884
 H    2.745781   -3.242877    2.050548
 H    4.483068   -1.632470    1.285546
 H    5.452832   -0.636398   -0.753790
 H    5.013150   -2.349857   -0.966400
 H    4.226484   -0.968541   -2.709415
 H    1.766729    0.139501    1.921565
 H   -3.051565   -4.668877   -0.701479
 H   -3.595169   -4.301609   -2.342869
 H   -4.682255   -4.032992   -0.981051
 H   -3.730770   -1.866193   -1.756685
 H   -2.099299   -2.506209   -1.655018
 H   -4.229341   -1.589211    2.003842
 H   -5.075901   -1.436698    0.448647
 H   -4.732700   -3.023714    1.110094
