31 
5foo_ligand_dft.xyz
 C   -1.595998    1.146455    0.189619
 C   -2.938521    0.544814   -0.197677
 C   -2.987961   -0.938203    0.129481
 C   -1.865974   -1.669908   -0.602955
 C   -0.498095   -1.088989   -0.243763
 C   -0.453678    0.428045   -0.529144
 C    0.868589    1.054203   -0.118643
 O    1.940900    0.403978   -0.840909
 P    3.256968   -0.102230   -0.132216
 O    2.640605   -1.127164    0.962430
 O    3.761103    1.085983    0.836378
 O    4.284692   -0.629098   -1.036507
 O   -0.264046   -1.365089    1.127899
 O   -1.555527    2.518684   -0.146943
 O   -3.931208    1.266384    0.503577
 O   -4.282975   -1.375183   -0.266379
 H   -1.471175    1.014638    1.276213
 H   -3.077900    0.667468   -1.285145
 H   -2.861909   -1.056647    1.214382
 H   -1.875014   -2.735676   -0.349535
 H   -2.034289   -1.580882   -1.683123
 H    0.266155   -1.577148   -0.862139
 H   -0.580393    0.578223   -1.609470
 H    0.894176    2.113122   -0.376278
 H    1.020533    0.950865    0.960384
 H    3.331804   -1.558880    1.482494
 H    4.500245    1.556044    0.426646
 H    0.694291   -1.366259    1.264298
 H   -2.382833    2.895241    0.184186
 H   -4.761508    0.795148    0.350105
 H   -4.435230   -2.248265    0.112343
