31 
5foo_ligand_xtb.xyz
 C   -1.568364    1.148929    0.196300
 C   -2.924691    0.559842   -0.205001
 C   -2.974510   -0.933972    0.121665
 C   -1.850504   -1.665095   -0.611373
 C   -0.491332   -1.089120   -0.209326
 C   -0.439309    0.416857   -0.534306
 C    0.898128    1.056163   -0.161031
 O    1.960118    0.439002   -0.889158
 P    3.221851   -0.112489   -0.122389
 O    2.594300   -1.049625    1.025109
 O    3.774528    1.114045    0.755875
 O    4.220798   -0.752023   -0.966281
 O   -0.307532   -1.349138    1.163491
 O   -1.518200    2.519423   -0.114871
 O   -3.922542    1.273726    0.490167
 O   -4.259499   -1.387276   -0.264062
 H   -1.446033    1.007839    1.282226
 H   -3.070674    0.687999   -1.290094
 H   -2.839961   -1.061281    1.205587
 H   -1.873334   -2.724854   -0.349616
 H   -1.992135   -1.564843   -1.688131
 H    0.293867   -1.592183   -0.794505
 H   -0.576167    0.540175   -1.611902
 H    0.866648    2.112934   -0.435412
 H    1.078078    0.978475    0.912976
 H    3.234045   -1.722191    1.253764
 H    4.560729    1.468939    0.345313
 H    0.621419   -1.194017    1.377887
 H   -2.366987    2.891701    0.158200
 H   -4.739649    0.768671    0.399414
 H   -4.309910   -2.336725   -0.113600
