43 
5fq9_ligand_xtb.xyz
 O    0.529685    3.054007   -0.362470
 B    0.860744    1.941136    0.290269
 O    1.998352    1.290504   -0.081721
 C    2.331749    0.069193    0.398284
 C    1.756078   -0.455253    1.562742
 C    0.767277    0.363506    2.349561
 C   -0.061026    1.295437    1.467128
 N   -1.202094    0.584947    0.883699
 C   -2.171927    1.260624    0.247166
 O   -2.141662    2.479039    0.144849
 C   -3.311264    0.422756   -0.307877
 C   -2.825369   -0.535465   -1.400195
 C   -4.007298   -1.306955   -1.982271
 C   -4.736850   -2.077843   -0.885695
 C   -5.210986   -1.128136    0.210567
 C   -4.032329   -0.355758    0.797060
 C    2.147279   -1.707526    2.011453
 C    3.114375   -2.442253    1.345305
 C    3.693494   -1.923142    0.206336
 C    3.297178   -0.682669   -0.287471
 C    3.951364   -0.208199   -1.532737
 O    3.189546    0.596952   -2.273714
 O    5.058666   -0.545700   -1.873901
 H   -0.372304    3.355913   -0.183210
 H    1.330567    0.983687    3.054430
 H    0.120801   -0.292526    2.939261
 H   -0.495170    2.088450    2.091140
 H   -1.177453   -0.420973    0.874717
 H   -4.017935    1.129576   -0.754779
 H   -2.104778   -1.245960   -0.986235
 H   -2.322054    0.029868   -2.187157
 H   -3.653770   -1.997145   -2.750798
 H   -4.699534   -0.606552   -2.453990
 H   -4.062696   -2.822570   -0.455186
 H   -5.590719   -2.608651   -1.310823
 H   -5.932523   -0.423543   -0.208011
 H   -5.712380   -1.690992    1.000534
 H   -3.343738   -1.059560    1.271336
 H   -4.384005    0.337432    1.563955
 H    1.693655   -2.105490    2.908332
 H    3.413274   -3.409415    1.718137
 H    4.456470   -2.463925   -0.331946
 H    3.678044    0.893760   -3.057432
