55 
5fqp_ligand_dft.xyz
 C   -4.135192    1.465439    0.935233
 C   -3.302035    1.386069   -0.336549
 C   -3.604043    0.161870   -1.191966
 C   -3.156948   -1.115941   -0.523956
 C   -3.784884   -2.315983   -0.838064
 C   -3.381255   -3.506911   -0.236872
 C   -2.337151   -3.491476    0.693687
 C   -1.711088   -2.295247    0.999493
 C   -2.106378   -1.097456    0.398567
 C   -1.379816    0.171177    0.810282
 N   -1.811873    1.363414   -0.041955
 C   -1.276701    2.659335    0.505951
 C   -1.420033    3.848586   -0.445184
 C   -0.859349    3.536152   -1.836542
 C   -0.694109    5.039065    0.191215
 C    0.126361    0.040794    0.719811
 C    0.720268   -0.395816   -0.469458
 C    2.098267   -0.485088   -0.576922
 C    2.925417   -0.159755    0.509470
 C    2.321388    0.265755    1.697466
 C    0.938665    0.366712    1.803385
 C    4.390433   -0.251209    0.456096
 C    5.125419   -0.782282   -0.525357
 C    6.604248   -0.787883   -0.399562
 O    7.181244   -1.368406   -1.464347
 O    7.226050   -0.333617    0.532223
 O   -4.038803   -4.627472   -0.592663
 H   -4.042019    0.563498    1.545385
 H   -3.891884    2.340666    1.543061
 H   -5.185039    1.558805    0.645651
 H   -3.459768    2.287505   -0.932207
 H   -4.679916    0.135319   -1.388200
 H   -3.120629    0.271272   -2.173647
 H   -4.600738   -2.345073   -1.553589
 H   -2.013817   -4.410939    1.173885
 H   -0.893923   -2.295646    1.715303
 H   -1.656771    0.452033    1.832508
 H   -1.349752    1.232664   -0.947913
 H   -1.778576    2.836120    1.459471
 H   -0.218117    2.481829    0.708155
 H   -2.478874    4.119021   -0.537836
 H   -0.831660    4.442650   -2.446752
 H   -1.470096    2.811377   -2.391781
 H    0.165742    3.150043   -1.771377
 H   -1.077710    5.255103    1.193653
 H   -0.831854    5.935870   -0.418268
 H    0.382002    4.847781    0.269975
 H    0.098549   -0.700066   -1.309555
 H    2.534504   -0.818873   -1.512465
 H    2.943306    0.518090    2.551355
 H    0.493741    0.700803    2.737509
 H    4.930726    0.146762    1.313521
 H    4.707077   -1.228502   -1.421785
 H    8.140576   -1.340208   -1.316623
 H   -3.688797   -5.391273   -0.116795
