52 
5fqr_ligand_xtb.xyz
 C   -0.644538    5.125237    0.153556
 C   -1.222250    3.872740   -0.503574
 C   -0.288003    3.370271   -1.604129
 C   -1.416258    2.809323    0.583318
 N   -1.985351    1.542217    0.062500
 C   -3.450094    1.602680   -0.126925
 C   -3.888396    0.435073   -0.995064
 C   -3.405077   -0.867160   -0.413476
 C   -4.026858   -2.050892   -0.769943
 C   -3.607322   -3.268424   -0.240367
 C   -2.550701   -3.282874    0.668748
 C   -1.928525   -2.104151    1.020195
 C   -2.338815   -0.888994    0.481133
 C   -1.601401    0.364312    0.906683
 C   -0.107450    0.162428    0.797271
 C    0.446800   -0.224020   -0.420989
 C    1.807828   -0.405628   -0.547387
 C    2.658803   -0.208501    0.544404
 C    2.093054    0.177841    1.762196
 C    0.729759    0.360126    1.888389
 C    4.095823   -0.392274    0.466937
 C    4.790271   -0.905038   -0.553489
 C    6.258822   -1.027382   -0.453349
 O    6.917703   -0.678513    0.492104
 O    6.782887   -1.578471   -1.552635
 O   -4.252446   -4.379783   -0.631048
 H   -1.293745    5.483236    0.948169
 H    0.336529    4.918668    0.573534
 H   -0.540154    5.918880   -0.579835
 H   -2.187988    4.135702   -0.947187
 H    0.636017    2.982163   -1.179779
 H   -0.744957    2.598357   -2.223192
 H   -0.031561    4.192179   -2.266310
 H   -2.074673    3.179721    1.371706
 H   -0.440346    2.586151    1.021682
 H   -1.553523    1.382409   -0.857344
 H   -3.714306    2.553323   -0.591890
 H   -3.922133    1.546413    0.856464
 H   -4.976063    0.423721   -1.068259
 H   -3.501608    0.554823   -2.012601
 H   -4.852410   -2.049522   -1.463082
 H   -2.218740   -4.216677    1.097928
 H   -1.108911   -2.123209    1.721988
 H   -1.867545    0.613873    1.941695
 H   -0.195246   -0.411342   -1.271624
 H    2.215438   -0.701591   -1.500049
 H    2.732512    0.329807    2.618030
 H    0.313323    0.648550    2.842970
 H    4.660568   -0.091956    1.341683
 H    4.356739   -1.261514   -1.474058
 H    7.746753   -1.656166   -1.471999
 H   -3.894478   -5.165550   -0.198359
