52 
5fqr_ligand_dft.xyz
 C   -0.141097    5.079260    0.213112
 C   -0.710740    3.836831   -0.479368
 C    0.326458    3.212027   -1.420112
 C   -1.157762    2.853695    0.603673
 N   -1.827041    1.627403    0.038591
 C   -3.284486    1.860734   -0.223165
 C   -3.828524    0.741440   -1.086087
 C   -3.540734   -0.606795   -0.469194
 C   -4.324398   -1.700962   -0.819005
 C   -4.089992   -2.952799   -0.254168
 C   -3.055624   -3.107657    0.674941
 C   -2.269452   -2.019098    1.010986
 C   -2.494517   -0.760126    0.447044
 C   -1.588598    0.379236    0.885414
 C   -0.115434    0.040877    0.801750
 C    0.416639   -0.462117   -0.390923
 C    1.774308   -0.707532   -0.508055
 C    2.642558   -0.471658    0.569724
 C    2.096248    0.000971    1.767829
 C    0.734639    0.259648    1.883153
 C    4.090607   -0.706731    0.498246
 C    4.794865   -1.047428   -0.585117
 C    6.262003   -1.236422   -0.463386
 O    6.899215   -1.100934    0.554743
 O    6.807969   -1.580337   -1.641138
 O   -4.893836   -3.961441   -0.641598
 H   -0.874119    5.542856    0.880976
 H    0.748081    4.825657    0.801520
 H    0.153235    5.824371   -0.530258
 H   -1.583884    4.149511   -1.068381
 H    1.186418    2.828942   -0.859026
 H   -0.070661    2.387628   -2.027719
 H    0.689980    3.962047   -2.127454
 H   -1.873613    3.301730    1.298341
 H   -0.287177    2.515793    1.168437
 H   -1.380042    1.437879   -0.864113
 H   -3.382537    2.836421   -0.702459
 H   -3.773211    1.895491    0.754504
 H   -4.906428    0.887270   -1.201597
 H   -3.401361    0.810111   -2.096280
 H   -5.136567   -1.596605   -1.531859
 H   -2.864316   -4.075765    1.129554
 H   -1.459625   -2.154081    1.722392
 H   -1.837421    0.696804    1.905260
 H   -0.242069   -0.694803   -1.225512
 H    2.160072   -1.105770   -1.440528
 H    2.747522    0.172280    2.619842
 H    0.335999    0.631554    2.824150
 H    4.646794   -0.580135    1.425639
 H    4.360376   -1.194488   -1.568627
 H    7.761244   -1.688316   -1.490787
 H   -4.656001   -4.778873   -0.185956
