53 
5g0q_ligand_xtb.xyz
 O   -4.894010   -2.332025   -1.028007
 C   -3.832823   -1.607705   -0.804595
 O   -2.798484   -1.712463   -1.437820
 C   -3.950346   -0.685708    0.397207
 C   -5.346424   -0.048354    0.528943
 O   -5.408076    0.483064    1.822683
 C   -5.573048    1.002097   -0.578873
 O   -5.596047    0.295387   -1.795809
 C   -4.458603    2.075644   -0.600933
 O   -4.397144    2.837713    0.573093
 C   -3.101726    1.385463   -0.765569
 C   -2.881473    0.417341    0.394949
 N   -1.523576   -0.181018    0.258535
 C   -0.967702   -0.860329    1.450728
 C    0.409079   -1.438316    1.140885
 C    1.472911   -0.374788    0.864604
 C    2.851774   -1.012010    0.690352
 C    3.935638    0.026931    0.411011
 C    5.309917   -0.620452    0.256521
 C    6.396140    0.414705   -0.018502
 C    7.767570   -0.237400   -0.172721
 N    8.730250    0.789337   -0.435537
 N    9.898276    0.674252   -0.609452
 N   10.999486    0.790101   -0.798109
 H   -4.794018   -2.908114   -1.805880
 H   -3.838356   -1.312066    1.289941
 H   -6.097569   -0.837769    0.383910
 H   -6.297679    0.797485    2.014935
 H   -6.541152    1.491458   -0.387870
 H   -5.956439    0.851782   -2.495603
 H   -4.630417    2.723810   -1.476551
 H   -5.198014    3.360649    0.681823
 H   -3.086548    0.857715   -1.719291
 H   -2.332677    2.159062   -0.761020
 H   -2.959073    0.973681    1.334546
 H   -1.636797   -0.863734   -0.541069
 H   -0.860247    0.546604   -0.025797
 H   -0.904995   -0.135752    2.265726
 H   -1.646300   -1.660447    1.746521
 H    0.724479   -2.029199    2.001307
 H    0.336657   -2.117972    0.289336
 H    1.239129    0.184983   -0.045680
 H    1.510387    0.331290    1.696825
 H    3.109171   -1.564125    1.595834
 H    2.816680   -1.726943   -0.134229
 H    3.967666    0.747561    1.230823
 H    3.691486    0.574037   -0.502495
 H    5.279591   -1.340991   -0.564039
 H    5.554716   -1.168373    1.169086
 H    6.164827    0.964226   -0.932666
 H    6.440343    1.134657    0.800411
 H    8.030800   -0.778577    0.746683
 H    7.748064   -0.959765   -1.000750
