34 
5g2g_ligand_xtb.xyz
 C    4.474999   -0.199633   -0.022585
 C    3.729680    0.948162    0.086795
 C    2.325495    0.903596    0.048578
 C    1.657052   -0.342331   -0.114798
 C    2.455790   -1.501021   -0.209557
 C    3.820147   -1.435691   -0.166287
 C    1.566322    2.087367    0.176434
 C    0.204024    2.046058    0.156756
 C   -0.475003    0.823916    0.001904
 C    0.233378   -0.367470   -0.154963
 C   -1.922255    0.769502   -0.057423
 C   -2.602324   -0.524038    0.300775
 C   -1.827624   -1.689611   -0.221635
 C   -0.510533   -1.592509   -0.406327
 C   -2.799698    1.675754   -0.495376
 C   -4.188689    1.125526   -0.563870
 C   -4.012588   -0.351309   -0.256160
 C   -2.755205   -0.668871    1.832227
 O    5.832256   -0.116301    0.016952
 O   -4.833169   -1.215436   -0.394683
 H    4.232859    1.894893    0.206569
 H    1.991990   -2.469720   -0.306855
 H    4.410794   -2.340238   -0.240004
 H    2.087995    3.025432    0.297380
 H   -0.375602    2.949431    0.272983
 H   -2.371270   -2.605306   -0.397208
 H    0.033029   -2.450312   -0.769563
 H   -2.573806    2.674904   -0.824239
 H   -4.855119    1.562563    0.186148
 H   -4.661205    1.278166   -1.536777
 H   -1.770511   -0.732057    2.289983
 H   -3.280787    0.190398    2.243611
 H   -3.315898   -1.571843    2.062232
 H    6.217019   -0.996798   -0.069337
