69 
5g5v_ligand_xtb.xyz
 O   -6.994648   -1.617480   -0.359744
 C   -5.909637   -1.074990   -0.414527
 N   -5.703932    0.186195    0.061898
 C   -6.810012    0.971676    0.602222
 C   -6.526403    1.309491    2.062887
 C   -7.009319    2.229471   -0.236875
 C   -4.687796   -1.675717   -1.096678
 C   -4.823078   -3.189294   -1.250358
 C   -4.387329   -3.932899   -0.028248
 C   -3.766937   -3.377634    0.998108
 C   -3.419494   -1.923122    1.062937
 C   -3.422070   -1.282606   -0.333658
 C   -3.427910    0.218364   -0.190765
 N   -4.526279    0.847957    0.004643
 C   -2.199046    1.001396   -0.218580
 C   -0.938037    0.410162   -0.144751
 C    0.223974    1.164185   -0.150424
 C    0.137591    2.564825   -0.250411
 O    1.314540    3.245877   -0.289259
 C    1.285679    4.644355   -0.435772
 C   -1.117853    3.160863   -0.329420
 C   -2.262897    2.392292   -0.308730
 C    1.530148    0.488067   -0.062275
 C    2.491943    0.896081    0.857548
 C    3.708306    0.246972    0.939489
 C    3.989711   -0.826898    0.101290
 C    3.020372   -1.255823   -0.799005
 C    1.807768   -0.601376   -0.884576
 C    5.264149   -1.596403    0.197095
 O    5.277622   -2.814624    0.262155
 N    6.408596   -0.876882    0.231199
 C    7.683585   -1.572917    0.275866
 C    8.730566   -0.551591   -0.197092
 O    9.398800    0.079333    0.871517
 C    7.894343    0.509516   -0.917816
 C    6.596202    0.516566   -0.112392
 H   -7.690744    0.326291    0.530004
 H   -6.415781    0.399097    2.648013
 H   -7.345793    1.889883    2.477455
 H   -5.608117    1.888166    2.134943
 H   -7.215917    1.965998   -1.271509
 H   -7.845328    2.805160    0.150019
 H   -6.110367    2.839237   -0.202833
 H   -4.657331   -1.212640   -2.094573
 H   -5.872050   -3.422914   -1.452053
 H   -4.236719   -3.534304   -2.107953
 H   -4.610493   -4.990572   -0.025233
 H   -3.492359   -3.966575    1.861925
 H   -4.146347   -1.411625    1.704957
 H   -2.438818   -1.791651    1.527571
 H   -2.553201   -1.633596   -0.895378
 H   -0.838881   -0.659962   -0.047735
 H    0.800605    4.942425   -1.370654
 H    0.781222    5.128403    0.406788
 H    2.328649    4.956801   -0.456854
 H   -1.211125    4.232450   -0.409616
 H   -3.231561    2.861101   -0.366882
 H    2.277091    1.719645    1.520651
 H    4.434470    0.560044    1.674942
 H    3.232104   -2.107007   -1.428835
 H    1.069479   -0.927599   -1.602847
 H    7.635713   -2.454273   -0.370872
 H    7.890272   -1.913741    1.296252
 H    9.464353   -1.020290   -0.868202
 H    9.861634   -0.583354    1.394875
 H    7.709068    0.203059   -1.946489
 H    8.399007    1.471884   -0.905351
 H    5.744731    0.902671   -0.672720
 H    6.734222    1.113994    0.796103
