66 
5g5z_ligand_xtb.xyz
 C    1.488615   -0.384827    0.916611
 C   -0.650794    0.223644   -0.945987
 C   -1.830383   -2.580731   -1.026042
 C    2.703471   -0.308904    1.852853
 C    0.314317    1.281642   -0.384527
 C   -2.350434   -1.326945   -0.292151
 C    3.966929   -0.387296    0.999933
 C   -0.368382    2.172433    0.685501
 C   -3.111377   -1.725455    1.000492
 C    3.942969   -1.685757    0.181948
 C   -0.919223    3.320406   -0.176373
 C   -4.580981   -1.583810    0.593718
 C    2.644518   -1.754285   -0.638876
 C    0.151875    3.440375   -1.264750
 C   -4.533670   -0.518291   -0.520926
 C    2.470093   -3.114454   -1.321869
 C    1.299827    4.389766   -0.897808
 C   -4.791679    0.916677   -0.025390
 O    1.535939    0.735535    0.088002
 O   -1.277933   -0.492314    0.104314
 O   -0.861673   -3.258838   -0.279031
 O    2.624139    0.884930    2.581285
 O    0.677610    2.118135   -1.445435
 O   -3.257445   -0.655967   -1.128764
 O    5.080562   -0.335814    1.857251
 O    0.516943    2.692508    1.631458
 O   -2.854112   -0.864550    2.080738
 O    5.090513   -1.685403   -0.626835
 O   -2.142362    3.020170   -0.781485
 O   -5.024945   -2.829792    0.127638
 O    1.499589   -1.589211    0.193113
 O    2.338121    4.294909   -1.836396
 O   -3.818449    1.417619    0.850679
 O    3.540800   -3.321725   -2.219602
 H    0.564956   -0.413841    1.505456
 H   -1.406391    0.752567   -1.535287
 H   -0.082468   -0.445932   -1.600335
 H   -2.669314   -3.265394   -1.167026
 H   -1.454510   -2.274710   -2.011691
 H    2.678260   -1.174811    2.533367
 H    3.980893    0.465776    0.304758
 H   -1.183156    1.623940    1.179429
 H   -2.882401   -2.763077    1.267176
 H    3.967415   -2.540522    0.881593
 H   -0.982430    4.234669    0.428957
 H   -5.174867   -1.247804    1.454079
 H    2.675895   -0.958372   -1.396825
 H   -0.294306    3.730667   -2.220701
 H   -5.274061   -0.743940   -1.298830
 H    2.447045   -3.894884   -0.550167
 H    1.508988   -3.123353   -1.848384
 H    1.659856    4.140590    0.109633
 H    0.949532    5.423576   -0.910319
 H   -5.784971    0.936210    0.449657
 H   -4.799111    1.588090   -0.887662
 H   -0.144732   -2.643178   -0.052608
 H    3.513078    1.079970    2.907311
 H    5.852378   -0.573851    1.328813
 H    1.240661    2.065806    1.809444
 H   -1.899706   -0.723570    2.124214
 H    4.944595   -2.306673   -1.355360
 H   -2.739095    2.616827   -0.125519
 H   -5.952972   -2.768242   -0.125369
 H    2.485979    3.351567   -1.986758
 H   -3.559175    0.718119    1.480842
 H    3.401602   -4.152881   -2.685461
