87 
5g60_ligand_xtb.xyz
 C   -3.451305    0.142547   -0.963908
 O   -2.924444    0.314604    0.324247
 C   -4.954365   -0.124522   -0.778140
 O   -5.586192    0.884471   -0.036403
 C   -5.125224   -1.456465   -0.034716
 O   -6.476576   -1.831704    0.065514
 C   -4.379676   -2.561182   -0.790566
 O   -4.403046   -3.776972   -0.081717
 C   -2.917472   -2.144978   -0.990374
 O   -2.840592   -0.901195   -1.667204
 C   -2.133858   -3.185046   -1.796968
 O   -1.697300   -4.239134   -0.975675
 C   -0.590783    0.448586   -0.442560
 O    0.534420    1.251073   -0.171805
 C    2.206727   -0.409602   -0.888309
 O    2.375052   -0.757257    0.468849
 C    1.172171   -2.875501    0.751296
 O    0.937869   -3.248247   -0.587754
 C   -1.695359    1.015220    0.461715
 O   -1.310860    0.816877    1.793784
 C    1.710108    1.047520   -0.923252
 O    2.645602    1.882664   -0.298792
 C    2.508899   -2.122362    0.833898
 O    2.943037   -2.104516    2.158678
 C   -1.892430    2.552775    0.252162
 O   -3.240775    2.910278    0.157661
 C    1.558716    1.544529   -2.395974
 O    0.434230    2.344244   -2.581165
 C    3.648722   -2.876047    0.108708
 O    3.687002   -2.804232   -1.284906
 C   -1.200230    3.153699    1.495119
 O    0.143204    3.484492    1.283419
 C    2.873888    2.314801   -2.619553
 O    3.915705    1.497662   -3.085437
 C    4.884992   -2.254960    0.775488
 O    5.974559   -3.131521    0.862853
 C   -1.345667    2.030547    2.538988
 C    3.237788    2.800918   -1.209084
 C    4.367407   -1.921367    2.184744
 C   -2.630638    2.094691    3.385169
 O   -3.796456    1.917530    2.616995
 C    2.768185    4.238933   -0.913723
 O    1.377501    4.415160   -1.071848
 C    4.745354   -0.504410    2.652691
 O    4.637043    0.480382    1.668724
 H   -3.292876    1.038540   -1.578613
 H   -5.411473   -0.211869   -1.777548
 H   -5.121899    1.721500   -0.173730
 H   -4.688183   -1.347002    0.970242
 H   -6.969720   -1.051806    0.347858
 H   -4.860767   -2.686936   -1.774309
 H   -5.311441   -3.908736    0.218908
 H   -2.452024   -2.053059    0.002829
 H   -2.753447   -3.560892   -2.619969
 H   -1.244829   -2.710279   -2.216834
 H   -2.475049   -4.577665   -0.507476
 H   -0.877686    0.508557   -1.496391
 H   -0.412990   -0.592257   -0.158259
 H    3.162866   -0.443975   -1.424311
 H    1.484656   -1.067005   -1.381779
 H    1.247248   -3.755468    1.401375
 H    0.381626   -2.221803    1.139694
 H    0.099491   -3.740615   -0.635868
 H   -1.412114    2.881577   -0.671493
 H   -3.650677    2.757569    1.037868
 H    1.466019    0.697378   -3.082106
 H    0.598122    3.195701   -2.116478
 H    3.581337   -3.926197    0.440624
 H    2.839876   -3.141834   -1.607230
 H   -1.699963    4.076034    1.802271
 H    0.617375    2.664726    1.042081
 H    2.701264    3.159878   -3.300117
 H    3.711075    1.189772   -3.975720
 H    5.160338   -1.333534    0.243214
 H    6.259540   -3.341112   -0.034064
 H   -0.480219    2.020143    3.209296
 H    4.322249    2.743713   -1.069973
 H    4.763510   -2.649806    2.899970
 H   -2.714543    3.073803    3.860924
 H   -2.570988    1.323339    4.162057
 H   -3.741301    1.054061    2.175502
 H    3.076181    4.496647    0.102329
 H    3.258493    4.916779   -1.618415
 H    0.929987    4.202320   -0.230385
 H    4.116623   -0.269228    3.523385
 H    5.794209   -0.511474    2.960275
 H    3.742536    0.453283    1.289099
