42 
5ggl_ligand_dft.xyz
 C   -0.895259    0.316447   -0.715028
 C   -2.262390    0.888498   -0.308455
 C   -2.882448   -0.019223    0.744117
 C   -2.971776   -1.445417    0.222723
 C   -1.586294   -1.917471   -0.236356
 C   -1.628404   -3.245656   -0.978471
 N   -2.186748    2.236046    0.208495
 O   -0.054278    0.400797    0.416708
 O   -3.483595   -2.215259    1.285907
 O   -1.034065   -0.999735   -1.173798
 O   -2.234319   -4.202958   -0.122125
 O   -1.292432    3.108528   -1.679124
 O    5.962576   -0.701552   -0.892614
 N    5.473017   -0.243656    0.129976
 O    6.115664    0.086881    1.116374
 C    4.021761   -0.081774    0.178351
 C    3.433771    0.428476    1.332402
 C    2.060274    0.577455    1.372887
 C    3.262049   -0.446623   -0.924169
 C    1.881608   -0.304942   -0.882185
 C    1.280638    0.216757    0.267667
 C   -1.776889    3.277258   -0.569542
 C   -1.964899    4.655721    0.031285
 O   -4.155820    0.488985    1.077138
 H   -0.474833    0.886642   -1.544312
 H   -2.880022    0.867833   -1.216349
 H   -2.232067   -0.029031    1.632567
 H   -3.655475   -1.457140   -0.643243
 H   -0.936928   -2.007302    0.644599
 H   -2.206672   -3.110822   -1.903250
 H   -0.606016   -3.540098   -1.247922
 H   -2.754042    2.423920    1.022478
 H   -3.403746   -3.145897    1.022835
 H   -2.332629   -5.031992   -0.602287
 H    4.055670    0.705237    2.174518
 H    1.565447    0.980488    2.249344
 H    3.752599   -0.847106   -1.802643
 H    1.282055   -0.621623   -1.725738
 H   -1.088866    5.262157   -0.206214
 H   -2.835197    5.129074   -0.434452
 H   -2.112415    4.637314    1.114600
 H   -4.561076   -0.170907    1.657076
