95 
5gid_ligand_xtb.xyz
 O   -5.059353   -2.272871    1.146810
 C   -4.236437   -1.652043    0.501884
 C   -3.623529   -2.139331   -0.814984
 O   -3.240470   -3.491379   -0.709664
 C   -4.651935   -1.948612   -1.937630
 C   -2.401117   -1.232698   -0.973879
 C   -2.747008    0.029603   -0.172759
 N   -3.703515   -0.460454    0.811138
 C   -4.170758    0.318860    1.930991
 C   -5.000173    1.535520    1.506499
 C   -6.206984    1.169591    0.643747
 C   -7.263694    0.351088    1.394234
 C   -8.393672    0.010941    0.466450
 C   -8.354913   -1.166930   -0.268973
 C   -9.363387   -1.471863   -1.164895
 C  -10.426345   -0.600866   -1.335816
 C  -10.475607    0.573626   -0.604767
 C   -9.463376    0.877975    0.288329
 C   -1.533994    0.678861    0.496950
 C   -0.388738    1.044461   -0.464109
 C   -0.871541    2.088123   -1.469098
 C    0.806284    1.533548    0.377337
 C    2.087751    2.008882   -0.352707
 C    2.471603    1.062304   -1.492678
 C    3.126555    1.918283    0.801279
 C    2.846649    0.543268    1.395330
 C    1.314861    0.428111    1.335819
 C    2.046360    3.461431   -0.834713
 C    3.426792    3.927429   -1.291437
 C    4.471937    3.736353   -0.191472
 C    4.491943    2.322958    0.333682
 C    5.643780    1.637692    0.329327
 C    5.943819    0.349937    0.902541
 C    7.020543   -0.408157    0.626770
 C    8.039346   -0.095688   -0.431319
 C    8.326371   -1.320804   -1.311099
 O    9.360396   -1.055109   -2.237621
 C    8.770963   -2.490966   -0.441441
 C    7.671206   -2.854990    0.550620
 O    6.566794   -3.351979   -0.191941
 C    7.253176   -1.652123    1.370103
 C    7.068247   -1.751927    2.683252
 H   -3.923341   -3.941064   -0.193490
 H   -4.243224   -2.331454   -2.869782
 H   -4.899702   -0.896792   -2.058372
 H   -5.561015   -2.498243   -1.702633
 H   -2.179053   -1.018754   -2.016665
 H   -1.547334   -1.743653   -0.527831
 H   -3.253244    0.761840   -0.817331
 H   -3.317015    0.646267    2.531594
 H   -4.776374   -0.358482    2.536682
 H   -5.336664    2.047280    2.410113
 H   -4.362525    2.227003    0.950096
 H   -6.668447    2.088257    0.272757
 H   -5.874785    0.596287   -0.224844
 H   -7.630452    0.927626    2.246239
 H   -6.816171   -0.573252    1.759392
 H   -7.529893   -1.849217   -0.122306
 H   -9.323586   -2.392179   -1.729918
 H  -11.216087   -0.838421   -2.033502
 H  -11.305581    1.254193   -0.730359
 H   -9.506750    1.795911    0.858317
 H   -1.852858    1.591906    1.004719
 H   -1.168174   -0.017503    1.251642
 H   -0.090456    0.148099   -1.012987
 H   -0.128032    2.259571   -2.239660
 H   -1.085138    3.031448   -0.971273
 H   -1.775683    1.749527   -1.967450
 H    0.450513    2.379864    0.976769
 H    1.925753    1.307661   -2.400452
 H    3.536068    1.131784   -1.702487
 H    2.251845    0.031121   -1.235278
 H    2.821684    2.663166    1.550026
 H    3.212740    0.454656    2.417584
 H    3.308579   -0.233798    0.789925
 H    0.883521    0.555449    2.328560
 H    1.026178   -0.558608    0.973363
 H    1.706711    4.100231   -0.014642
 H    1.347045    3.585676   -1.659943
 H    3.380881    4.983600   -1.566519
 H    3.728588    3.369567   -2.178859
 H    4.230004    4.408270    0.638875
 H    5.456520    4.018932   -0.568109
 H    6.491848    2.141958   -0.120169
 H    5.265579   -0.016338    1.655786
 H    7.705048    0.728800   -1.062836
 H    8.979074    0.198563    0.049292
 H    7.406479   -1.609904   -1.841609
 H    9.087176   -0.328977   -2.808130
 H    9.680314   -2.219669    0.095696
 H    8.982487   -3.348894   -1.079033
 H    8.039019   -3.645840    1.225243
 H    5.838906   -3.517327    0.416570
 H    6.772262   -0.906063    3.279783
 H    7.232565   -2.677257    3.210593
