27 
5gs9_ligand_xtb.xyz
 N    0.709262   -1.151699    0.362343
 C    1.508274   -0.167451   -0.372154
 C    2.994594   -0.343889   -0.040578
 O    3.778544    0.366296   -0.836672
 C    1.105537    1.276973   -0.038929
 C   -0.364506    1.574144   -0.345655
 C   -1.288850    1.228317    0.834467
 N   -2.608345    0.804968    0.403774
 C   -2.875079   -0.402160   -0.090950
 N   -4.128844   -0.672752   -0.481029
 N   -1.933007   -1.320318   -0.195769
 O    3.376614   -1.047479    0.853488
 H   -2.187102   -2.235262   -0.528836
 H    0.952662   -1.082766    1.350481
 H    1.009773   -2.082984    0.081317
 H    1.371834   -0.339114   -1.444832
 H    4.716619    0.252549   -0.609273
 H    1.740658    1.929853   -0.636924
 H    1.312356    1.483282    1.012769
 H   -0.471674    2.630650   -0.588851
 H   -0.667581    1.004633   -1.225101
 H   -1.418082    2.097977    1.478338
 H   -0.853768    0.429854    1.436037
 H   -3.335562    1.502186    0.375989
 H   -4.378645   -1.585084   -0.821779
 H   -4.871726   -0.005624   -0.365017
 H   -0.914304   -1.167687    0.048720
