62 
5gso_ligand_dft.xyz
 C    1.205732   -0.116198   -2.073602
 C    2.679343   -0.534107   -2.275265
 C    0.416508   -1.233802   -1.379206
 C   -0.919813    6.255023    1.057650
 C    3.414040   -0.782841   -0.979107
 C    3.355457   -2.037876   -0.363237
 C    4.114059    0.241236   -0.335752
 C    3.951072   -2.262905    0.871279
 C    4.616963   -1.213023    1.490789
 C    4.715608    0.038315    0.903224
 C   -0.057914    1.796427   -1.252796
 C   -0.015905    3.066840   -0.485833
 C   -4.998081   -1.669217    0.385986
 C   -1.046469    4.019273   -0.306132
 C   -0.522235   -3.490642    0.375308
 C   -0.462739    4.965079    0.480463
 C   -4.601918   -1.325969    1.815871
 C   -0.243686   -2.088975    0.926760
 C   -1.470730   -1.505199    1.676006
 C   -2.361134   -0.446319    0.994892
 C   -2.815401   -0.721454   -0.443764
 C   -3.603868   -0.161762    1.859732
 F    5.184435   -1.420261    2.682137
 N    1.116682    1.141089   -1.357801
 N    1.083795    3.406486    0.145810
 N   -3.782054   -1.875047   -0.469913
 N    0.328140   -1.144661   -0.037675
 O    0.805663    4.594760    0.749848
 O   -1.625861   -3.569577   -0.508287
 O   -0.065460   -2.133443   -2.071024
 O   -1.102496    1.357495   -1.735095
 O   -3.510846    0.343143   -0.994297
 H    0.730705   -0.004044   -3.051769
 H    3.172021    0.251385   -2.858244
 H    2.672776   -1.435880   -2.894870
 H   -1.976101    6.411467    0.832875
 H   -0.345765    7.087593    0.639912
 H   -0.783271    6.262584    2.142912
 H    2.841356   -2.855777   -0.862668
 H    4.219250    1.212948   -0.814463
 H    3.923362   -3.236083    1.349069
 H    5.263236    0.828146    1.404742
 H   -5.551393   -0.849862   -0.076830
 H   -5.592345   -2.583123    0.326057
 H   -2.044406    4.007283   -0.714413
 H   -0.753367   -4.130418    1.231204
 H    0.374896   -3.890969   -0.108119
 H   -4.196795   -2.215320    2.311402
 H   -5.514396   -1.063058    2.358577
 H    0.545895   -2.244869    1.672693
 H   -2.076302   -2.357013    2.006577
 H   -1.117655   -1.033382    2.599442
 H   -1.778919    0.478123    0.907484
 H   -1.991079   -1.029916   -1.086240
 H   -3.303873    0.028773    2.894604
 H   -4.090592    0.745364    1.489725
 H    1.942961    1.569471   -0.956797
 H   -4.078563   -1.985726   -1.443201
 H   -3.217030   -2.720599   -0.236946
 H    0.832082   -0.368279    0.370535
 H   -1.256837   -3.222495   -1.350135
 H   -2.837035    0.940533   -1.374052
