47 
5gut_ligand_xtb.xyz
 N    2.885760    0.214598   -1.136040
 C    3.028641   -0.700577    0.021672
 C    2.432142   -2.082754   -0.272136
 C    0.920155   -2.154811   -0.108404
 S    0.010881   -1.076388   -1.292749
 C    4.542597   -0.831833    0.242061
 O    4.852338   -1.466383    1.344329
 O    5.313590   -0.389072   -0.568489
 C   -1.532496   -2.006539   -1.504358
 C   -2.592898   -1.687269   -0.450626
 O   -2.027038   -1.586952    0.849655
 C   -3.364636   -0.382466   -0.714358
 O   -4.561321   -0.699972   -1.364258
 C   -3.602706    0.178877    0.709131
 O   -4.792269   -0.294620    1.257028
 C   -2.400175   -0.384400    1.480438
 N   -1.250246    0.502893    1.465769
 C   -0.093590    0.212070    2.135043
 N    0.942620    0.888793    1.742708
 C    0.463650    1.710295    0.752833
 C    1.059532    2.597474   -0.140713
 N    2.452389    2.724007   -0.230575
 N    0.315760    3.221944   -1.035932
 C   -0.986814    2.976040   -1.070116
 N   -1.658214    2.112533   -0.334965
 C   -0.918784    1.479752    0.568959
 H    3.779038    0.144892   -1.661515
 H    2.769732    1.248656   -0.822449
 H    2.083135   -0.055162   -1.718150
 H    2.549635   -0.266471    0.909884
 H    2.713700   -2.390230   -1.281774
 H    2.866005   -2.796768    0.430701
 H    0.587165   -3.172303   -0.305551
 H    0.620952   -1.874076    0.899411
 H    5.813257   -1.557917    1.467942
 H   -1.265095   -3.062126   -1.480101
 H   -1.912868   -1.753867   -2.493592
 H   -3.320511   -2.512445   -0.451774
 H   -2.756023    0.323393   -1.294033
 H   -5.003324    0.109166   -1.649089
 H   -3.597873    1.274494    0.725292
 H   -5.259503   -0.811377    0.580020
 H   -2.658725   -0.605333    2.521735
 H   -0.068715   -0.525356    2.914038
 H    2.903518    2.766699    0.677154
 H    2.711391    3.508961   -0.820631
 H   -1.555588    3.528825   -1.802959
