31 
5gwa_ligand_xtb.xyz
 O    0.434555   -2.483441    0.275861
 C   -0.686611   -1.947805    0.547528
 N   -1.214057   -0.865430    0.063663
 C   -0.615725   -0.056991   -0.985074
 C   -2.426065   -0.308943    0.644097
 C   -3.575916   -0.172120   -0.393956
 O   -3.389051   -0.106190   -1.583552
 N   -4.786879   -0.109396    0.173653
 C   -2.072074    1.059966    1.253208
 C   -1.418580    1.973842    0.218319
 C   -0.197130    1.308935   -0.420635
 N    0.886897    1.109428    0.548961
 O    2.164174    1.371496   -0.049198
 S    3.018139    0.033550   -0.196647
 O    3.187354   -0.418462    1.296902
 O    4.252856    0.386114   -0.762901
 O    2.185250   -0.956178   -0.813181
 H   -1.276743   -2.504884    1.276364
 H    0.238622   -0.565184   -1.426966
 H   -1.384904    0.088417   -1.751394
 H   -2.771934   -0.979267    1.436604
 H   -4.950353   -0.185966    1.162114
 H   -5.587424   -0.005429   -0.431688
 H   -2.976702    1.530089    1.639317
 H   -1.389064    0.896399    2.088914
 H   -2.132782    2.200379   -0.574640
 H   -1.136899    2.916907    0.688121
 H    0.165898    1.929809   -1.247852
 H    0.821102    1.799072    1.297068
 H    4.041933   -0.146121    1.634580
 H    1.118810   -1.941244   -0.240502
