51 
5gx7_ligand_xtb.xyz
 C   -1.446450    1.196683   -0.233152
 C   -2.597994    2.062413    0.304299
 C   -2.491699    3.466507   -0.313525
 C   -1.076183    3.948866   -0.222492
 C   -0.057273    3.104714   -0.032179
 C    1.358326    3.533056    0.088525
 O   -3.840170    1.521900   -0.031333
 O   -3.335485    4.380460    0.334340
 O   -0.175102    1.753962    0.062807
 O    1.520833    4.847579   -0.035527
 O    2.285025    2.779338    0.282511
 C   -0.378480   -3.549828   -0.186247
 C   -1.371195   -2.412310    0.169837
 C   -0.705903   -1.058377   -0.121717
 C    0.645042   -1.003982    0.609351
 C    1.498574   -2.198215    0.174293
 C    2.847138   -2.153196    0.899960
 C   -3.778516   -2.049497   -0.324188
 C   -4.879556   -2.507839   -1.254425
 N   -2.581132   -2.617910   -0.595384
 O   -0.902200   -4.792016    0.116278
 O   -1.549920   -0.033667    0.378046
 O    0.440454   -1.059422    1.997307
 O    0.846286   -3.411628    0.481498
 O    3.391925   -0.853867    0.861821
 O   -3.954137   -1.243130    0.566849
 S    3.827495   -0.328989   -0.584251
 O    4.875312   -1.143578   -1.082132
 O    4.391582    1.053342   -0.154541
 O    2.681272   -0.142804   -1.415986
 H   -1.530917    1.099983   -1.333756
 H   -2.477420    2.139518    1.396600
 H   -2.783492    3.386713   -1.377594
 H   -0.915209    5.011044   -0.274366
 H   -3.893205    0.603787    0.299730
 H   -4.212340    3.978991    0.378646
 H    2.459786    5.082355    0.054897
 H   -0.217911   -3.531482   -1.281594
 H   -1.611362   -2.439982    1.239739
 H   -0.551900   -0.929090   -1.201697
 H    1.167219   -0.083593    0.324968
 H    1.662894   -2.123203   -0.909890
 H    2.686242   -2.387132    1.954460
 H    3.548727   -2.860752    0.448888
 H   -5.803540   -2.001461   -0.991634
 H   -5.020023   -3.582424   -1.163349
 H   -4.622676   -2.273884   -2.284779
 H   -2.531845   -3.319967   -1.317948
 H   -0.740317   -4.959258    1.053791
 H   -0.244038   -0.407557    2.201554
 H    3.658945    1.660873    0.053488
