60 
5h4j_ligand_dft.xyz
 O    3.972821   -1.301144   -0.335637
 S    3.923674    0.055057    0.206701
 O    4.872577    0.491204    1.217212
 C    4.094961    1.188059   -1.197646
 C    2.907257    1.273843   -2.163265
 C    2.368258   -0.047667   -2.702982
 O    1.441642   -0.555412   -1.758540
 C    1.165701   -1.929538   -1.884837
 N    0.370896   -2.319647   -0.749826
 C   -1.017206   -2.170460   -0.844030
 O   -1.578026   -1.850196   -1.873500
 N   -1.683474   -2.447630    0.325854
 C    0.988109   -2.607474    0.454045
 C    0.303512   -2.830011    1.588836
 C   -1.150056   -2.747160    1.589388
 O   -1.885772   -2.902769    2.543073
 N    2.403874    0.248485    0.805800
 C    2.019204    1.480838    1.527905
 C    1.961416    1.201529    3.027393
 C    0.703101    1.955054    0.941549
 C    0.604216    3.202810    0.322698
 C   -0.588840    3.576509   -0.284590
 C   -1.689105    2.724247   -0.294723
 C   -1.593663    1.475423    0.326159
 C   -0.398906    1.104936    0.948237
 O   -2.585352    0.556125    0.378432
 C   -3.788318    0.768282   -0.345720
 C   -4.796317    1.679561    0.369265
 C   -6.175822    1.245813   -0.176127
 C   -5.950898   -0.124159   -0.874496
 C   -4.535231   -0.554999   -0.474237
 H    4.301813    2.170171   -0.764178
 H    5.003443    0.844085   -1.702060
 H    2.073754    1.807989   -1.692576
 H    3.236305    1.891866   -3.006014
 H    3.181932   -0.769351   -2.860914
 H    1.856666    0.114800   -3.661087
 H    0.593835   -2.132928   -2.793902
 H    2.099536   -2.503323   -1.874311
 H   -2.681950   -2.288416    0.297933
 H    2.072814   -2.612766    0.413958
 H    0.809341   -3.051978    2.517940
 H    1.737691   -0.034644    0.087156
 H    2.775682    2.255682    1.351461
 H    1.676378    2.106288    3.573678
 H    2.943120    0.866756    3.373111
 H    1.229994    0.416773    3.242780
 H    1.457060    3.876495    0.315201
 H   -0.670117    4.547407   -0.764430
 H   -2.604244    3.041469   -0.779195
 H   -0.349657    0.128093    1.422191
 H   -3.545658    1.146991   -1.348024
 H   -4.714115    1.473906    1.442295
 H   -4.600017    2.745731    0.227388
 H   -6.570716    1.980264   -0.884419
 H   -6.905464    1.168304    0.634597
 H   -6.008743   -0.007707   -1.962123
 H   -6.702235   -0.866303   -0.593329
 H   -4.547583   -1.033339    0.514773
 H   -4.058100   -1.226771   -1.193168
