52 
5h5f_ligand_dft.xyz
 N    2.331695    2.426285    0.474656
 C    2.891937    1.071181    0.162206
 C    4.372873    1.291728   -0.106726
 O    5.094158    0.187440    0.052955
 O    4.811743    2.370647   -0.425311
 C    2.142317    0.472225   -1.043916
 C    2.529697   -0.972200   -1.339159
 S    1.902549   -2.171734    0.285134
 C    3.367658   -3.219563   -0.018685
 C    0.356106   -2.501399   -0.669915
 C   -0.798161   -2.967066    0.208650
 O   -1.056726   -2.006165    1.245808
 C   -2.114265   -3.072998   -0.563220
 O   -2.971711   -3.910689    0.157610
 C   -2.616983   -1.627437   -0.513659
 O   -3.996609   -1.584818   -0.676980
 C   -2.130671   -1.190899    0.890129
 N   -1.655607    0.201140    0.873414
 C   -0.491307    0.666070    1.390040
 N   -0.293797    1.949995    1.159513
 C   -1.420318    2.351131    0.458995
 C   -1.849322    3.579039   -0.082802
 N   -1.125490    4.723581    0.022633
 N   -2.997831    3.607238   -0.765011
 C   -3.711713    2.484055   -0.888170
 N   -3.435362    1.277034   -0.394016
 C   -2.274935    1.271740    0.271221
 H    2.862511    2.886187    1.218538
 H    2.417240    3.029373   -0.349054
 H    1.302731    2.352916    0.774928
 H    2.753625    0.446878    1.048243
 H    6.019322    0.396636   -0.165260
 H    2.312240    1.133124   -1.907835
 H    1.069081    0.535868   -0.811824
 H    3.608850   -1.055428   -1.485631
 H    2.061129   -1.284540   -2.278318
 H    3.437944   -3.950704    0.789591
 H    4.246634   -2.574872   -0.054917
 H    3.252750   -3.734178   -0.975253
 H    0.596559   -3.259887   -1.421653
 H    0.117776   -1.571940   -1.190860
 H   -0.569050   -3.912396    0.704263
 H   -1.969137   -3.419628   -1.596169
 H   -3.877690   -3.662917   -0.080910
 H   -2.101062   -1.027850   -1.277841
 H   -4.246696   -0.642727   -0.694826
 H   -2.935445   -1.275338    1.625845
 H    0.190538    0.006091    1.906722
 H   -1.603019    5.562609   -0.280062
 H   -0.527848    4.830927    0.828683
 H   -4.634877    2.572212   -1.452891
 H    1.445525   -3.194560    1.203430
