75 
5h9q_ligand_xtb.xyz
 C   -0.737034   -3.633173   -0.743866
 C   -1.821297   -2.562554   -0.525699
 C   -2.119329   -1.875399   -1.866836
 C   -0.800664   -1.348670   -2.470036
 C    0.156703   -2.541068   -2.664230
 C    1.536933   -2.111177   -3.195059
 N   -4.785913    0.338759   -2.124531
 C    5.203027    2.027086   -0.243564
 C    6.423830    1.669629    0.323180
 C    7.570838    2.295273   -0.121886
 C    0.387510   -2.863330    1.785828
 S   -0.130341   -4.333491    0.831400
 O    0.403969   -3.187708   -1.425780
 O   -0.763153   -2.261656    2.309308
 C   -0.476710   -1.162831    3.152763
 C   -1.807178   -0.620066    3.671805
 O    2.197936   -1.216164   -2.341008
 O   -1.518877    0.274893    4.717926
 C    0.301749   -0.075936    2.386185
 O   -0.283743   -0.388030   -1.592261
 O   -0.512456    0.378595    1.344814
 C    1.613761   -0.706322    1.871905
 C    1.229697   -1.880526    0.960052
 O    2.393000   -2.478576    0.443826
 O   -2.996587   -3.159492   -0.054017
 N    2.399956    0.240967    1.128403
 C    3.735899    0.417663    1.138992
 C    3.966106    1.403750    0.190531
 N    2.762223    1.748534   -0.325024
 N    1.848066    1.054732    0.227688
 N   -3.060977   -0.810406   -1.683392
 N   -4.119495   -0.684488   -2.482197
 C   -4.176952    0.930012   -1.064654
 C   -3.046906    0.183862   -0.772326
 C    7.551379    3.263178   -1.109861
 C    6.331429    3.610161   -1.667122
 C    5.167030    3.000850   -1.241063
 C   -4.695702    2.121119   -0.418658
 C   -4.015666    2.718380    0.642722
 C   -4.524979    3.851418    1.249105
 C   -5.715446    4.409580    0.813848
 C   -6.377332    3.805817   -0.240915
 C   -5.893358    2.675505   -0.865221
 F    8.753310    1.947410    0.430918
 F   -7.539411    4.345855   -0.670598
 H   -1.193428   -4.489980   -1.264432
 H   -1.466988   -1.799010    0.174800
 H   -2.591116   -2.587656   -2.552039
 H   -1.011338   -0.904529   -3.456467
 H   -0.298941   -3.250300   -3.372252
 H    1.408583   -1.592973   -4.147935
 H    2.139646   -3.012852   -3.358916
 H    6.492601    0.921009    1.095970
 H    1.009122   -3.286013    2.593663
 H    0.128164   -1.494431    4.011014
 H   -2.410404   -1.467485    4.023063
 H   -2.331256   -0.125299    2.846836
 H    2.406060   -1.664450   -1.505437
 H   -2.340366    0.685741    5.007327
 H    0.535626    0.741416    3.086353
 H    0.616153   -0.146351   -1.875004
 H    0.036539    0.877182    0.705995
 H    2.219678   -1.063682    2.710820
 H    0.616448   -1.460212    0.152446
 H    2.126099   -3.300427    0.004342
 H   -2.858877   -3.429310    0.862637
 H    4.381429   -0.143279    1.778743
 H   -2.275824    0.293211   -0.042067
 H    8.472593    3.725801   -1.426003
 H    6.293862    4.362788   -2.439705
 H    4.212317    3.263231   -1.667537
 H   -3.084476    2.295932    0.987305
 H   -3.991150    4.309492    2.068476
 H   -6.128328    5.293276    1.273801
 H   -6.423819    2.220670   -1.685694
