60 
5h9s_ligand_xtb.xyz
 S   -3.119195   -0.417492    2.426910
 C   -0.789449    0.513526    1.130808
 C   -0.111077    1.774364    0.544177
 C   -2.365119    2.775817    0.277105
 C   -3.386119    3.416260   -0.661010
 C    6.592343   -0.010615    0.774423
 C   -2.128964    0.951374    1.749660
 C   -3.057806   -1.674716    1.107566
 O   -2.957185    1.620773    0.831894
 O   -1.748682   -2.163679    1.097873
 C   -1.459990   -3.146523    0.127692
 C    0.049695   -3.416965    0.268702
 O   -2.938970    4.719415   -0.949847
 O    0.804622   -2.239501    0.242198
 C   -1.072548    2.411718   -0.474045
 C   -1.848032   -2.685193   -1.287853
 O   -1.404435    1.524803   -1.506960
 O   -1.020759   -1.621561   -1.694439
 C   -3.318072   -2.241468   -1.299706
 O   -3.605047   -1.763639   -2.589544
 C   -3.513101   -1.135141   -0.255284
 O    0.038388   -0.083598    2.082430
 O   -4.871409   -0.776933   -0.240226
 N    1.132160    1.382419   -0.064675
 N    1.225411    1.037501   -1.348633
 N    2.413512    0.638053   -1.588749
 C    3.146788    0.695163   -0.451953
 C    2.313807    1.177866    0.547401
 C    4.544457    0.307012   -0.407592
 C    5.263446    0.361536    0.783830
 C    7.235416   -0.436338   -0.373840
 C    6.509572   -0.490029   -1.552587
 C    5.178044   -0.122476   -1.573164
 F    7.289790    0.046419    1.930578
 H   -0.978909   -0.155143    0.287910
 H    0.111962    2.479085    1.352316
 H   -2.120562    3.496159    1.073384
 H   -3.461681    2.803925   -1.566335
 H   -4.358640    3.430858   -0.151590
 H   -1.922475    1.585442    2.626281
 H   -3.769663   -2.449892    1.436628
 H   -2.022881   -4.069262    0.344862
 H    0.236116   -3.873489    1.243075
 H    0.360999   -4.111381   -0.522682
 H   -3.537694    5.116842   -1.590680
 H    0.608340   -1.789323   -0.594613
 H   -0.630406    3.335153   -0.878228
 H   -1.729852   -3.532889   -1.981239
 H   -0.565810    1.225938   -1.909735
 H   -1.462943   -1.184905   -2.436869
 H   -3.969489   -3.092995   -1.048647
 H   -4.445459   -1.291558   -2.538458
 H   -2.902583   -0.273534   -0.555889
 H    0.226977   -0.993984    1.800682
 H   -4.969259   -0.034910    0.371039
 H    2.454983    1.370287    1.588136
 H    4.806190    0.682300    1.705779
 H    8.276142   -0.715734   -0.334184
 H    6.991762   -0.821088   -2.459858
 H    4.604317   -0.159288   -2.485443
