60 
5h9s_ligand_dft.xyz
 S   -3.154372   -0.755712    2.355488
 C   -0.869400    0.458966    1.181944
 C   -0.298384    1.778787    0.644311
 C   -2.592123    2.665639    0.457616
 C   -3.674796    3.305214   -0.396254
 C    6.425190   -0.055873    0.812484
 C   -2.263992    0.723565    1.796909
 C   -2.928294   -1.888065    0.953810
 O   -3.117063    1.427966    0.907329
 O   -1.600369   -2.357796    1.008785
 C   -1.160962   -3.216708   -0.024672
 C    0.346393   -3.362263    0.212339
 O   -3.229177    4.604271   -0.726318
 O    0.999046   -2.117604    0.353807
 C   -1.290278    2.454849   -0.314215
 C   -1.497689   -2.705949   -1.426977
 O   -1.588254    1.656818   -1.436757
 O   -0.662094   -1.605808   -1.741488
 C   -2.962160   -2.281456   -1.508581
 O   -3.156216   -1.695995   -2.778655
 C   -3.249134   -1.265590   -0.415275
 O   -0.005270   -0.079242    2.139120
 O   -4.598910   -0.876955   -0.525414
 N    0.990960    1.511538    0.011589
 N    1.100490    1.352608   -1.319221
 N    2.317166    0.996524   -1.583844
 C    3.017832    0.904948   -0.420384
 C    2.163660    1.231500    0.612565
 C    4.433558    0.516819   -0.392987
 C    5.088955    0.305786    0.822821
 C    7.140805   -0.221248   -0.363126
 C    6.477563   -0.012740   -1.568891
 C    5.136966    0.353852   -1.590617
 F    7.046292   -0.255648    1.986297
 H   -0.953573   -0.208745    0.326759
 H   -0.099823    2.455942    1.483078
 H   -2.389975    3.322125    1.319776
 H   -3.828438    2.681124   -1.284720
 H   -4.607072    3.330024    0.185601
 H   -2.118546    1.310738    2.717785
 H   -3.645286   -2.702865    1.144246
 H   -1.635562   -4.207272    0.082567
 H    0.505348   -3.896395    1.151882
 H    0.786516   -3.955488   -0.601632
 H   -3.724554    4.909013   -1.493120
 H    0.844512   -1.628518   -0.471352
 H   -0.902639    3.436680   -0.617123
 H   -1.317693   -3.522556   -2.142337
 H   -0.734686    1.504936   -1.881815
 H   -1.108522   -1.116965   -2.450547
 H   -3.610865   -3.162421   -1.378337
 H   -3.936016   -1.128338   -2.689605
 H   -2.607791   -0.403903   -0.606216
 H    0.271749   -0.948407    1.792498
 H   -4.665181   -0.032466   -0.053981
 H    2.271744    1.264410    1.683731
 H    4.579880    0.407866    1.775243
 H    8.186232   -0.505730   -0.322034
 H    7.015098   -0.137337   -2.503779
 H    4.622356    0.516655   -2.530897
