50 
5hd0_ligand_xtb.xyz
 C    4.556460    0.868340   -0.635166
 C   -6.706283   -1.672413   -0.489336
 C   -4.214646   -0.789445   -0.490120
 C    6.461108   -1.134080   -0.560220
 C   -1.875414   -0.990319    0.213837
 C   -5.704464   -2.362542    0.177198
 C    6.787292    0.110781   -1.099318
 C    4.219560   -0.373609   -0.094713
 C   -6.363501   -0.501802   -1.151083
 C    5.183898   -1.375749   -0.061945
 C    5.826515    1.103755   -1.131387
 N    8.217967   -2.996077   -0.484777
 C    7.432007   -2.162649   -0.520330
 C    2.874732   -0.618416    0.423631
 C    2.577360   -1.488256    1.433633
 C    1.706498    0.027548   -0.069542
 C    0.567387   -0.369384    0.554470
 S    0.903511   -1.535845    1.797384
 C   -0.831509    0.127675    0.352409
 N   -2.949789   -0.350310   -0.506145
 N   -5.124367   -0.057105   -1.151542
 F   -7.977315   -2.124973   -0.491042
 N   -4.461322   -1.927535    0.178498
 C   -2.554170    0.901534   -1.117212
 C   -1.029517    0.911631   -0.948906
 C   -0.445100    2.310052   -0.902517
 O    0.025027    2.835035   -1.888944
 N   -0.491504    2.930857    0.307330
 C   -0.058625    4.312685    0.407120
 C   -0.932505    2.341519    1.489035
 N   -1.044786    3.089944    2.504642
 N   -1.228038    1.003058    1.440989
 H    3.822976    1.659867   -0.655042
 H   -2.229442   -1.369907    1.174506
 H   -1.466845   -1.831166   -0.359332
 H   -5.904024   -3.277980    0.717240
 H    7.780426    0.284837   -1.485036
 H   -7.096007    0.086568   -1.686357
 H    4.944707   -2.351569    0.333675
 H    6.068186    2.070866   -1.545736
 H    3.249284   -2.091027    2.011461
 H    1.723858    0.737580   -0.876122
 H   -3.023812    1.743645   -0.595195
 H   -2.863068    0.936359   -2.163282
 H   -0.565990    0.379713   -1.783018
 H    0.245265    4.638773   -0.584608
 H    0.772276    4.388536    1.106626
 H   -0.879238    4.922733    0.779525
 H   -1.355015    2.621680    3.347589
 H   -1.373736    0.557533    2.335693
