50 
5hd0_ligand_dft.xyz
 C    4.534987    0.788811   -0.749541
 C   -6.741150   -1.718059   -0.509034
 C   -4.258371   -0.794583   -0.467813
 C    6.411571   -1.246427   -0.609249
 C   -1.928225   -0.925638    0.332233
 C   -5.745317   -2.379968    0.189420
 C    6.746076   -0.042052   -1.236056
 C    4.189513   -0.413531   -0.120886
 C   -6.399625   -0.557662   -1.184528
 C    5.140521   -1.433421   -0.061398
 C    5.797424    0.969927   -1.303508
 N    8.155693   -3.165216   -0.471049
 C    7.377432   -2.308743   -0.534543
 C    2.846796   -0.596423    0.467032
 C    2.580272   -1.344756    1.579827
 C    1.656803    0.002964   -0.061749
 C    0.530918   -0.302217    0.642465
 S    0.908987   -1.335440    1.986690
 C   -0.877525    0.192060    0.417262
 N   -2.986104   -0.323475   -0.453406
 N   -5.159429   -0.082488   -1.169513
 F   -7.996948   -2.186339   -0.531506
 N   -4.495691   -1.929277    0.216392
 C   -2.591094    0.908301   -1.116774
 C   -1.065356    0.911473   -0.920972
 C   -0.449640    2.292519   -0.957570
 O   -0.057460    2.773377   -2.004929
 N   -0.355955    2.956923    0.248608
 C    0.212778    4.301572    0.267371
 C   -0.777637    2.430856    1.482498
 N   -0.689030    3.181200    2.510360
 N   -1.306198    1.148138    1.439003
 H    3.812081    1.598132   -0.791575
 H   -2.293576   -1.239702    1.315919
 H   -1.505956   -1.810464   -0.160715
 H   -5.964031   -3.295440    0.734502
 H    7.733713    0.089258   -1.664398
 H   -7.146584   -0.001499   -1.746434
 H    4.892603   -2.387392    0.392696
 H    6.044057    1.910202   -1.785591
 H    3.282993   -1.885350    2.199534
 H    1.652517    0.625329   -0.950240
 H   -3.067348    1.777853   -0.648795
 H   -2.864182    0.900707   -2.174205
 H   -0.597341    0.335823   -1.722611
 H    0.510058    4.541839   -0.751056
 H    1.072102    4.327987    0.939785
 H   -0.529601    5.014471    0.630219
 H   -0.999230    2.695592    3.349642
 H   -1.433750    0.749075    2.359593
