54 
5hdu_ligand_xtb.xyz
 C    3.173974   -0.663859    0.357356
 C    2.076320    0.125012   -0.088670
 C    0.895788   -0.219118    0.487974
 C   -0.452310    0.411369    0.312814
 C   -0.424121    2.534180    1.622446
 C    0.609786    4.518289    0.719773
 C   -0.559673    1.313197   -0.920923
 C   -3.881918   -0.149418   -0.668903
 C   -5.503639   -1.671417   -0.179754
 C   -4.910006   -3.612980    0.969995
 C   -6.438978   -0.830565   -0.811104
 C   -5.980883    0.354848   -1.341288
 C    4.545586   -0.502578   -0.122688
 C    5.413289   -1.589584   -0.156366
 C    6.306333    0.895802   -1.007968
 C    5.007710    0.741299   -0.555348
 C    7.589010   -2.545418   -0.635457
 N    8.290865   -3.451401   -0.650811
 C    6.719421   -1.429470   -0.610342
 C    7.171810   -0.181321   -1.039277
 C    2.782976   -1.586299    1.285495
 S    1.105629   -1.513425    1.628182
 C   -1.582963   -0.600238    0.068931
 N   -2.583953    0.181660   -0.613661
 C   -2.076524    1.445022   -1.106327
 C    0.134711    2.649712   -0.749686
 O    0.681886    3.206240   -1.677246
 N    0.091555    3.180155    0.502611
 N   -0.521432    3.209659    2.689509
 N   -0.795270    1.223615    1.465851
 N   -4.706270    0.706787   -1.274611
 F   -7.741116   -1.178377   -0.889236
 N   -4.232364   -1.321796   -0.114762
 O   -5.907475   -2.823101    0.352226
 H    2.170139    0.897416   -0.830050
 H    1.017015    4.874132   -0.223488
 H    1.380980    4.492929    1.487430
 H   -0.194124    5.168461    1.060243
 H   -0.126068    0.814624   -1.790867
 H   -4.117454   -3.855937    0.259325
 H   -4.471177   -3.082125    1.817689
 H   -5.412692   -4.516488    1.306946
 H   -6.650665    1.045456   -1.833507
 H    5.076330   -2.567524    0.153452
 H    6.646113    1.866051   -1.337429
 H    4.350469    1.596848   -0.524675
 H    8.186506   -0.069889   -1.390506
 H    3.388146   -2.294690    1.815198
 H   -1.232117   -1.426232   -0.561848
 H   -1.985630   -1.020991    0.992834
 H   -2.364239    1.595942   -2.147936
 H   -2.485734    2.274293   -0.517165
 H   -0.886174    2.700432    3.485583
 H   -1.001041    0.722825    2.318167
