54 
5hdu_ligand_dft.xyz
 C    3.158132   -0.660281    0.398182
 C    2.038013    0.088226   -0.091534
 C    0.866882   -0.202382    0.541126
 C   -0.491185    0.422572    0.331566
 C   -0.284501    2.513198    1.655854
 C    0.883627    4.433611    0.705988
 C   -0.569794    1.304566   -0.916947
 C   -3.916533   -0.136226   -0.703961
 C   -5.553303   -1.626940   -0.186627
 C   -5.021476   -3.618729    0.937910
 C   -6.492940   -0.777430   -0.793807
 C   -6.023182    0.393255   -1.335801
 C    4.531291   -0.523008   -0.128633
 C    5.392189   -1.620880   -0.169323
 C    6.287847    0.847291   -1.095182
 C    4.996130    0.711043   -0.598820
 C    7.563375   -2.623904   -0.689908
 N    8.264495   -3.546536   -0.710993
 C    6.692521   -1.480267   -0.658949
 C    7.146928   -0.243530   -1.126962
 C    2.794802   -1.504697    1.410141
 S    1.114699   -1.406636    1.768295
 C   -1.617121   -0.592026    0.080341
 N   -2.595920    0.179062   -0.657982
 C   -2.082757    1.445316   -1.156313
 C    0.148563    2.626948   -0.768448
 O    0.625603    3.190303   -1.736473
 N    0.232260    3.141782    0.509435
 N   -0.199455    3.137024    2.765522
 N   -0.890715    1.282617    1.445421
 N   -4.730069    0.739320   -1.301141
 F   -7.788707   -1.110772   -0.836629
 N   -4.273053   -1.310902   -0.142337
 O   -5.993685   -2.766390    0.342112
 H    2.113716    0.805628   -0.901684
 H    1.275334    4.751516   -0.257746
 H    1.686346    4.332308    1.438030
 H    0.162597    5.160320    1.085025
 H   -0.114259    0.790763   -1.766224
 H   -4.264257   -3.915462    0.207571
 H   -4.530033   -3.120626    1.778296
 H   -5.578062   -4.488672    1.285272
 H   -6.713002    1.083029   -1.815890
 H    5.049249   -2.596868    0.158946
 H    6.628693    1.812732   -1.454686
 H    4.344101    1.578885   -0.561965
 H    8.156308   -0.147684   -1.511934
 H    3.431833   -2.163028    1.985326
 H   -1.240145   -1.442349   -0.502330
 H   -2.041790   -0.989184    1.008670
 H   -2.315162    1.584782   -2.214128
 H   -2.511468    2.287891   -0.601367
 H   -0.582701    2.584529    3.529955
 H   -1.087291    0.792402    2.307854
