47 
5hdv_ligand_dft.xyz
 N    1.072260    0.609082    1.277872
 C    4.725100   -0.686450   -1.155486
 C    4.619565   -1.828012   -0.406002
 C    1.702527    1.792696    1.637342
 C    1.453507    2.540713   -0.698333
 C    0.753129    1.234658   -1.000174
 C   -0.772525    1.307018   -0.812645
 C    0.024373   -0.925318   -0.293438
 C   -2.398900   -0.474333   -0.287075
 C   -3.852148   -2.130627    0.288072
 C   -4.589471    0.091687   -0.176732
 C   -5.264336    2.295778   -0.627994
 F   -6.159002   -1.599788    0.413770
 C   -4.889978   -1.228409    0.181451
 C   -4.111666   -3.559160    0.667246
 N   -2.584938   -1.753570    0.049764
 O   -5.596404    0.957022   -0.272639
 N   -3.346336    0.473952   -0.410561
 N   -1.121983   -0.076172   -0.539222
 O    1.619630    3.373018   -1.570640
 N    1.884717    2.723899    0.599696
 C    2.547232    3.978033    0.947821
 N    2.075500    2.127745    2.809872
 C    1.165991    0.081773   -0.081908
 C    2.537640   -0.476222   -0.388588
 C    3.533570    0.084704   -1.141309
 S    3.050118   -1.971100    0.320736
 C    5.614686   -2.822600   -0.210468
 N    6.425427   -3.636218   -0.048160
 H    1.101890   -0.090083    2.007974
 H    5.625333   -0.416047   -1.693127
 H    0.980744    0.985779   -2.039211
 H   -1.270206    1.681265   -1.710162
 H   -1.050619    1.957295    0.025655
 H    0.242796   -1.576117   -1.149868
 H   -0.143048   -1.569720    0.576225
 H   -4.593661    2.739477    0.112638
 H   -4.783248    2.330849   -1.608969
 H   -6.214584    2.828416   -0.650249
 H   -4.770590   -4.040120   -0.062781
 H   -3.165523   -4.100375    0.709165
 H   -4.608624   -3.620413    1.640625
 H    1.937957    4.537534    1.660260
 H    3.511805    3.766283    1.410873
 H    2.673552    4.543582    0.027186
 H    1.920110    1.375789    3.478207
 H    3.426932    1.025382   -1.669421
