47 
5hdz_ligand_dft.xyz
 F   -5.874482   -1.917374    0.435084
 C   -4.621188   -1.485951    0.209301
 C   -3.547646   -2.354605    0.305803
 C   -3.751165   -3.797448    0.662080
 N   -2.303491   -1.919095    0.076369
 C   -4.389444   -0.153833   -0.125764
 S   -5.758073    0.948149   -0.240843
 C   -4.899183    2.477338   -0.693761
 N   -3.156070    0.283647   -0.351509
 C   -2.171162   -0.623859   -0.240349
 N   -0.911277   -0.171130   -0.480923
 C   -0.619051    1.225910   -0.751316
 C    0.905001    1.212338   -0.964518
 O    1.682880    3.384464   -1.535378
 N    2.009634    2.732090    0.625614
 N    2.258896    2.129972    2.828441
 N    1.285737    0.584992    1.303553
 C    0.270077   -0.978059   -0.260193
 C    1.376369    0.070305   -0.061168
 C    2.761936   -0.435014   -0.395079
 C    3.723855    0.163905   -1.162558
 C    4.941625   -0.564658   -1.201123
 C    4.889713   -1.712227   -0.455099
 S    3.339356   -1.913439    0.297992
 C    5.921555   -2.672814   -0.280877
 N    6.762145   -3.458855   -0.135550
 C    1.562335    2.541528   -0.665901
 C    2.632691    4.007126    0.970975
 C    1.878590    1.788924    1.660141
 H   -4.246814   -3.892502    1.633433
 H   -2.784833   -4.302131    0.697495
 H   -4.390203   -4.291832   -0.076614
 H   -4.390383    2.367059   -1.652315
 H   -4.174967    2.757262    0.072174
 H   -5.674230    3.242986   -0.770727
 H   -0.907898    1.860073    0.095686
 H   -1.145984    1.585390   -1.638092
 H    1.124095    0.978400   -2.008842
 H    2.141317    1.369291    3.494633
 H    1.356553   -0.117214    2.027880
 H    0.498001   -1.614932   -1.124656
 H    0.145545   -1.633335    0.608514
 H    3.574990    1.102477   -1.684330
 H    5.822025   -0.260214   -1.753179
 H    2.724450    4.582269    0.052176
 H    2.015454    4.540701    1.696345
 H    3.611182    3.826756    1.417791
