49 
5he7_ligand_dft.xyz
 C   -5.516019    2.243473   -0.646953
 C    2.610130   -1.911635    0.416455
 C    3.719250   -2.711979    0.215469
 N   -1.168986    0.367247   -0.420598
 C    4.622643   -2.314468   -0.759295
 C   -0.570486    1.662764   -0.678276
 C    2.352091   -0.747411   -0.307217
 C    3.300155   -0.393188   -1.269001
 C    4.434261   -1.164222   -1.506485
 O    2.135617    3.221965   -1.558451
 N   -2.924844   -1.054662    0.000048
 C    0.902485    1.292631   -0.909660
 C    2.091824    1.662208    1.666912
 C    3.341133    3.618886    0.856959
 C    1.854528    2.440413   -0.669144
 C    1.124059    0.095660    0.021342
 C   -3.803765   -3.478277    0.617214
 C   -4.230367   -1.226434    0.106719
 C   -2.510639    0.190742   -0.306159
 C   -4.608469    1.070754   -0.414874
 C   -0.204304   -0.671252   -0.116719
 F    1.734123   -2.284237    1.371321
 F    5.705636   -3.068868   -0.974229
 N    2.392678    2.544442    0.603940
 N    2.547299    1.743797    2.855086
 N    1.189699    0.659831    1.365401
 N   -3.284029    1.260892   -0.516258
 C   -5.124871   -0.169727   -0.099726
 F   -6.449894   -0.364268    0.006754
 O   -4.735108   -2.421340    0.414318
 H   -6.063418    2.495007    0.267543
 H   -4.922526    3.104792   -0.956610
 H   -6.259238    2.015600   -1.417174
 H    3.874730   -3.610163    0.800062
 H   -1.013550    2.140891   -1.553896
 H   -0.694492    2.336515    0.178359
 H    3.168106    0.511573   -1.853126
 H    5.164644   -0.879513   -2.254377
 H    1.026205    0.993158   -1.953044
 H    4.290612    3.208006    1.212713
 H    3.499872    4.142843   -0.083143
 H    2.944386    4.321131    1.596979
 H   -3.228089   -3.669718   -0.292493
 H   -4.408927   -4.347477    0.874483
 H   -3.112978   -3.239119    1.430137
 H   -0.139101   -1.411172   -0.924855
 H   -0.468591   -1.204263    0.799367
 H    3.119573    2.568163    3.005293
 H    1.145354   -0.009349    2.123556
