23 
5hh6_ligand_dft.xyz
 C    2.370211    1.600505    0.042868
 C    2.191334    0.226103   -0.048933
 C    3.354784   -0.670630    0.248046
 O   -1.083672   -1.664842   -1.100592
 C   -1.283919   -0.276197   -0.987447
 P   -2.577668    0.002940    0.291378
 O   -3.199221    1.341354    0.323367
 O   -1.802058   -0.403144    1.653563
 O   -3.575757   -1.213970   -0.015775
 C   -0.004783    0.455876   -0.644258
 C    0.067432    1.849652   -0.576824
 C    1.279668    2.424351   -0.227543
 O    4.443482   -0.258308    0.575385
 O    3.069037   -1.971006    0.114769
 N    1.027307   -0.335778   -0.384585
 H    3.339695    1.996304    0.320808
 H   -0.182150   -1.826834   -0.757006
 H   -1.693592    0.111950   -1.929448
 H   -2.053838    0.196482    2.369133
 H   -3.048724   -1.975999   -0.317892
 H   -0.814489    2.450389   -0.775494
 H    1.377831    3.503073   -0.161506
 H    3.886301   -2.447661    0.331632
