67 
5hi7_ligand_dft.xyz
 C    5.005002    1.853737   -0.020864
 C    3.773688    0.935245    0.015299
 C    2.516787    1.806252   -0.115314
 C    0.072210    2.084408   -0.079829
 C   -2.264563    2.549055    0.853226
 C    1.058976   -0.115898   -0.894808
 C    1.084312   -2.683136   -0.942586
 C   -2.264529   -1.560182    2.072005
 C   -3.363951   -1.067884    0.323464
 C    6.580588    0.111258    0.876744
 N    6.308704    1.120772   -0.200151
 C    7.452092    2.096254   -0.318546
 N    1.202934    1.075668    0.036680
 C   -1.302961    1.490265    0.278918
 N   -3.560655    1.944179    1.307912
 C   -2.537958    3.684946   -0.141680
 O   -1.712412    4.047765   -0.935424
 O   -3.749042    4.195219    0.035758
 C    1.419499   -1.396511   -0.147959
 O    0.672189   -1.394918    1.064853
 C   -0.170323   -2.542062    1.160437
 C    0.340622   -3.551464    0.111411
 O    1.313626   -4.367563    0.715540
 O    2.225465   -3.279966   -1.454792
 N   -1.554447   -2.114187    1.030503
 N   -3.340429   -0.914860    1.701346
 C   -4.186207   -0.533942   -0.679442
 N   -5.241135    0.319901   -0.374361
 N   -3.867494   -0.724575   -1.953722
 C   -2.773236   -1.441331   -2.245194
 N   -1.907129   -1.982349   -1.385660
 C   -2.249782   -1.776081   -0.116784
 H    4.940429    2.560985   -0.852943
 H    5.101950    2.427438    0.905169
 H    3.746189    0.377067    0.956809
 H    3.824902    0.212355   -0.806905
 H    2.477633    2.289989   -1.095547
 H    2.521197    2.588852    0.648552
 H    0.333856    2.904700    0.593272
 H    0.088851    2.473403   -1.097441
 H   -1.818482    3.005220    1.744878
 H    0.017085   -0.169186   -1.214014
 H    1.679096    0.050640   -1.778287
 H    0.400612   -2.458794   -1.763203
 H   -1.929550   -1.665337    3.096868
 H    7.557923   -0.336982    0.695506
 H    5.817016   -0.665650    0.853178
 H    6.582426    0.624079    1.840013
 H    6.263372    0.612801   -1.089671
 H    8.363335    1.539694   -0.539214
 H    7.241869    2.799992   -1.124520
 H    7.557755    2.622622    0.631100
 H    1.148405    0.670807    0.981592
 H   -1.176363    0.702581    1.030858
 H   -1.757726    1.032921   -0.604510
 H   -4.097450    2.624638    1.856430
 H   -3.432289    1.078093    1.872737
 H   -4.194001    1.635068    0.522878
 H   -3.893995    4.946310   -0.570438
 H    2.483183   -1.431308    0.105433
 H   -0.056665   -2.960032    2.161497
 H   -0.471809   -4.125798   -0.339966
 H    0.977128   -5.262874    0.849103
 H    2.481811   -3.978678   -0.827452
 H   -5.835961   -0.013813    0.381895
 H   -5.797018    0.540636   -1.198731
 H   -2.567360   -1.586148   -3.301218
