41 
5hld_ligand_dft.xyz
 O   -3.715812    2.899332    0.058488
 C   -2.655121    2.115249   -0.094631
 O   -1.514796    2.437522    0.134858
 C   -3.062294    0.749556   -0.642825
 N   -1.833298   -0.090870   -0.735726
 C   -4.195947    0.042224    0.127412
 C   -4.792320   -1.110765   -0.685968
 C   -3.741618   -0.382870    1.530443
 S   -2.354733   -1.569047    1.503117
 C   -1.216364   -0.512313    0.574925
 C    0.135347   -1.219087    0.329602
 C    0.126199   -2.210601   -0.845885
 O   -0.862309   -2.510360   -1.469374
 N    1.257726   -0.311055    0.197474
 C    1.414129    0.504401   -0.875671
 O    0.548301    0.601442   -1.747826
 C    2.692345    1.322370   -0.935483
 C    3.828329    0.800548   -0.108787
 S    4.834652   -0.496703   -0.671518
 C    5.741621   -0.501655    0.794287
 C    5.298446    0.445129    1.667833
 C    4.197481    1.190909    1.150015
 H   -3.413590    3.771801    0.364966
 H   -3.390303    0.915284   -1.675090
 H   -1.061480    0.388541   -1.265816
 H   -2.022717   -0.961681   -1.253643
 H   -4.973620    0.801412    0.262093
 H   -5.155743   -0.755640   -1.655205
 H   -4.077958   -1.922931   -0.856638
 H   -5.644285   -1.540673   -0.152196
 H   -3.460116    0.482757    2.140594
 H   -4.557874   -0.894566    2.046293
 H   -1.021232    0.408451    1.124341
 H    0.339854   -1.822696    1.222546
 H    1.115066   -2.645421   -1.075068
 H    2.014692   -0.352245    0.869304
 H    2.426104    2.332691   -0.601099
 H    2.948642    1.412362   -1.995110
 H    6.563191   -1.193660    0.919481
 H    5.745073    0.616928    2.639359
 H    3.712126    2.002690    1.682291
