85 
5hmi_ligand_xtb.xyz
 C   -0.726129    0.409839    1.612831
 C    0.657694    0.854918    2.124746
 C    1.546387    1.230815   -0.212947
 C    2.707101    0.411974   -0.785463
 C    6.946594    1.320834   -2.416711
 C    7.464844    0.040842   -2.395817
 C    6.822761   -0.966604   -1.695004
 C    5.448333   -2.960844   -0.223094
 C    4.431053   -3.773696    0.578219
 C    4.020762    0.859857    1.140040
 C    2.881120    1.681391    1.737403
 C   -1.230904    2.558760    0.651486
 C   -0.770458    3.351843    1.665225
 C   -1.717021    4.656236   -0.182008
 C   -2.192909    5.741214   -1.079750
 C   -1.778998    3.316774   -0.418435
 C   -0.622520   -1.030140    1.041843
 C    0.073376   -3.435943    1.428409
 C    0.825876   -4.387896    2.348597
 C   -2.213040   -1.460174   -0.693753
 C   -3.638173   -1.717483   -1.099425
 C   -4.163633   -2.994270   -1.293765
 C   -6.162384   -1.982602   -2.094538
 C   -4.452064   -0.638680   -1.449080
 C   -3.098690   -0.084013    2.284071
 F   -3.290911   -4.334769    0.437686
 C   -3.363085   -4.210799   -0.907623
 F   -3.909543   -5.349751   -1.352108
 F   -2.103474   -4.190177   -1.348069
 C   -5.450177   -3.135779   -1.797257
 N   -5.674712   -0.768143   -1.919713
 O   -1.376410   -1.273596   -1.556353
 N   -1.949242   -1.449871    0.627855
 C   -2.953631   -1.474739    1.666487
 C   -1.745832    0.433283    2.764802
 C    0.046776   -2.018621    1.998836
 O   -1.213507    1.212289    0.534504
 F   -3.142882    6.508346   -0.515134
 F   -2.719628    5.256001   -2.211944
 F   -1.209784    6.583539   -1.446421
 S   -0.994427    5.023368    1.339784
 O    0.866370    0.871122    3.328653
 N    1.600824    1.209034    1.234694
 N    3.946915    0.980820   -0.302719
 C    5.124378    0.601367   -1.009230
 C    5.647330   -0.703532   -1.003208
 O    4.942989   -1.641556   -0.301786
 O    3.242110   -3.973744   -0.133597
 C    5.781297    1.591230   -1.720127
 H    0.605650    0.842175   -0.592004
 H    1.658220    2.270956   -0.542852
 H    2.586823   -0.643690   -0.486211
 H    2.687363    0.470772   -1.874881
 H    7.445749    2.103975   -2.965713
 H    8.376549   -0.186897   -2.927213
 H    7.248907   -1.957379   -1.695260
 H    5.550442   -3.394556   -1.225914
 H    6.422287   -2.970803    0.282180
 H    4.237987   -3.255817    1.529442
 H    4.834683   -4.765598    0.789727
 H    4.977397    1.261095    1.479409
 H    3.936060   -0.186330    1.477012
 H    3.003978    2.730129    1.447085
 H    2.867795    1.598912    2.824635
 H   -0.302458    3.072797    2.587104
 H   -2.182809    2.871534   -1.308608
 H   -0.037903   -1.000675    0.116627
 H    0.547086   -3.432360    0.445712
 H   -0.947487   -3.795814    1.299602
 H    0.845208   -5.385753    1.920325
 H    1.852724   -4.058165    2.483378
 H    0.349064   -4.437481    3.325378
 H   -7.166871   -2.034968   -2.489907
 H   -4.088971    0.373579   -1.336035
 H   -3.798595   -0.124479    3.118791
 H   -3.502026    0.598899    1.532699
 H   -5.877120   -4.113066   -1.955144
 H   -2.649708   -2.196844    2.429123
 H   -3.906311   -1.803666    1.248950
 H   -1.361645   -0.170173    3.585155
 H   -1.852369    1.453465    3.134445
 H   -0.455261   -2.028779    2.966416
 H    1.068748   -1.676969    2.174812
 H    2.929547   -3.115625   -0.445043
 H    5.358984    2.583868   -1.712592
