70 
5htl_ligand_dft.xyz
 P    0.485822   -1.664832    2.771161
 O    0.810731   -0.365732    3.376249
 O    0.196062   -2.854025    3.804002
 O   -0.783560   -1.601470    1.804750
 C   -1.392841   -2.817358    1.354481
 C   -2.512540   -2.503801    0.392914
 O   -3.541025   -1.792414    1.071660
 C   -2.174444   -1.624051   -0.809850
 O   -1.622596   -2.387157   -1.887482
 C   -3.556635   -1.061412   -1.149605
 O   -4.408494   -2.078482   -1.624703
 C   -4.029360   -0.734361    0.264899
 N   -3.519349    0.541079    0.760554
 C   -3.668600    0.963355    2.073815
 N   -3.087301    2.095545    2.332208
 C   -2.523170    2.466305    1.127351
 C   -1.689906    3.576279    0.790794
 O   -1.204957    4.441087    1.525005
 N   -1.355426    3.570229   -0.575266
 C   -1.547582    2.516577   -1.431471
 N   -0.946089    2.574713   -2.638410
 N   -2.289281    1.477219   -1.114235
 C   -2.762331    1.513335    0.146398
 P   -0.486930   -1.664841   -2.771073
 O   -0.197807   -2.854293   -3.803792
 O   -0.811159   -0.365630   -3.376286
 O    0.782483   -1.602046   -1.804679
 C    1.391092   -2.818221   -1.354271
 C    2.510978   -2.505206   -0.392755
 O    3.539907   -1.794525   -1.071562
 C    2.173400   -1.625150    0.809942
 O    1.621111   -2.387843    1.887651
 C    3.555935   -1.063323    1.149642
 O    4.407153   -2.080863    1.624887
 C    4.028914   -0.736714   -0.264883
 N    3.519781    0.539038   -0.760605
 C    3.669287    0.961149   -2.073892
 N    3.088674    2.093677   -2.332347
 C    2.524674    2.464781   -1.127530
 C    1.691985    3.575205   -0.791051
 O    1.207586    4.440275   -1.525321
 N    1.357548    3.569459    0.575025
 C    1.549249    2.515808    1.431337
 N    0.947923    2.574376    2.638340
 N    2.290416    1.476049    1.114175
 C    2.763419    1.511810   -0.146479
 H    0.105968   -2.501411    4.700031
 H   -0.648374   -3.452009    0.861114
 H   -1.794420   -3.356553    2.216472
 H   -2.910362   -3.458878    0.024428
 H   -1.497397   -0.815141   -0.523304
 H   -3.506321   -0.203378   -1.818853
 H   -4.021217   -2.411252   -2.444511
 H   -5.118266   -0.736323    0.341347
 H   -4.219650    0.361058    2.783151
 H   -0.704957    4.297989   -0.876914
 H   -0.902234    1.680870   -3.120462
 H   -0.146958    3.192379   -2.740591
 H   -0.107579   -2.501817   -4.699863
 H    1.792349   -3.357728   -2.216215
 H    0.646284   -3.452402   -0.860814
 H    2.908214   -3.460494   -0.024188
 H    1.496828   -0.815858    0.523326
 H    3.506146   -0.205204    1.818817
 H    4.019657   -2.413270    2.444739
 H    5.117817   -0.739396   -0.341323
 H    4.219952    0.358469   -2.783201
 H    0.707495    4.297604    0.876648
 H    0.149105    3.192437    2.740534
 H    0.903675    1.680603    3.120493
