70 
5htl_ligand_xtb.xyz
 P    0.504753   -1.520096    2.693233
 O    0.916494   -0.207928    3.168784
 O    0.168462   -2.595062    3.812027
 O   -0.773847   -1.494888    1.750928
 C   -1.360208   -2.744054    1.408269
 C   -2.506636   -2.529651    0.425045
 O   -3.602604   -1.901975    1.071187
 C   -2.175156   -1.633355   -0.777638
 O   -1.611593   -2.353410   -1.852446
 C   -3.560403   -1.052790   -1.106576
 O   -4.393695   -2.007162   -1.705643
 C   -4.051846   -0.793592    0.319460
 N   -3.503225    0.429133    0.862276
 C   -3.538020    0.773653    2.197749
 N   -2.912767    1.869614    2.468294
 C   -2.426005    2.316885    1.266310
 C   -1.606182    3.436786    0.933662
 O   -1.046340    4.243670    1.665428
 N   -1.395378    3.512732   -0.447317
 C   -1.701280    2.537093   -1.351963
 N   -1.271304    2.692563   -2.613629
 N   -2.417598    1.485500   -1.036412
 C   -2.779358    1.416114    0.255626
 P   -0.504678   -1.520140   -2.693214
 O   -0.168347   -2.595129   -3.812002
 O   -0.916465   -0.207986   -3.168779
 O    0.773931   -1.494894   -1.750899
 C    1.360325   -2.744041   -1.408230
 C    2.506730   -2.529581   -0.425024
 O    3.602685   -1.901858   -1.071157
 C    2.175209   -1.633299    0.777641
 O    1.611685   -2.353324    1.852494
 C    3.560467   -1.052630    1.106567
 O    4.393806   -2.006981    1.705661
 C    4.051867   -0.793395   -0.319485
 N    3.503180    0.429252   -0.862305
 C    3.537942    0.773731   -2.197765
 N    2.912637    1.869665   -2.468306
 C    2.425890    2.316950   -1.266329
 C    1.606032    3.436832   -0.933697
 O    1.046161    4.243696   -1.665461
 N    1.395233    3.512791    0.447282
 C    1.701185    2.537171    1.351937
 N    1.271221    2.692651    2.613615
 N    2.417549    1.485609    1.036378
 C    2.779296    1.416208   -0.255655
 H    0.463929   -2.280228    4.666165
 H   -0.603754   -3.401081    0.968329
 H   -1.757273   -3.213699    2.311673
 H   -2.834288   -3.514591    0.058889
 H   -1.508418   -0.820070   -0.475694
 H   -3.485333   -0.140142   -1.705288
 H   -3.903612   -2.407957   -2.434497
 H   -5.146453   -0.777740    0.387442
 H   -4.041930    0.159054    2.915470
 H   -0.797450    4.268845   -0.785384
 H   -1.280349    1.843064   -3.162422
 H   -0.492759    3.325359   -2.761009
 H   -0.463822   -2.280291   -4.666140
 H    1.757398   -3.213675   -2.311616
 H    0.603895   -3.401066   -0.968281
 H    2.834434   -3.514477   -0.058845
 H    1.508457   -0.820019    0.475703
 H    3.485340   -0.139967    1.705292
 H    3.903731   -2.407772    2.434533
 H    5.146475   -0.777531   -0.387446
 H    4.041844    0.159156   -2.915485
 H    0.797277    4.268887    0.785349
 H    0.492635    3.325419    2.760988
 H    1.280305    1.843147    3.162417
