45 
5hu1_ligand_dft.xyz
 C    1.174017    1.338831    0.349601
 C    2.450900    0.531225    0.636962
 C    3.185313    1.117313    1.858554
 C    3.287438    0.587757   -0.654554
 S    4.633530   -0.577564   -0.683493
 N    3.729083   -1.979345   -0.389858
 C    2.838901   -2.000233    0.709838
 N    2.078748   -0.855704    0.910575
 N    2.583422   -3.012810    1.442533
 C    4.386571   -3.226957   -0.770728
 O    5.152234   -0.693003   -2.034684
 O    5.551455   -0.316941    0.415078
 C   -0.076889    0.732877    0.290605
 C   -1.244220    1.461788    0.040164
 C   -1.167630    2.840304   -0.170430
 C    0.077047    3.456645   -0.137412
 C    1.214787    2.713609    0.113583
 F    2.403993    3.359849    0.099899
 N   -2.449615    0.744013    0.012848
 C   -7.048928   -0.535312   -0.308304
 C   -6.611099   -1.823707   -0.049110
 C   -5.260432   -2.087619    0.149445
 N   -4.348796   -1.122203    0.097621
 C   -4.756464    0.126150   -0.151571
 C   -6.090070    0.467148   -0.360652
 C   -3.708713    1.210767   -0.208164
 O   -4.015964    2.371650   -0.431522
 F   -7.485524   -2.829787    0.012653
 H    4.068854    0.521621    2.094418
 H    2.506848    1.104348    2.717880
 H    3.493144    2.148735    1.683997
 H    2.676337    0.343739   -1.526310
 H    3.729623    1.576924   -0.784646
 H    1.586344   -0.963293    1.789741
 H    3.153630   -3.819487    1.211689
 H    3.618273   -3.979512   -0.961144
 H    5.079747   -3.584670   -0.000254
 H    4.934821   -3.050553   -1.696191
 H   -0.137311   -0.342430    0.425852
 H   -2.065764    3.409337   -0.364582
 H    0.175903    4.522345   -0.311636
 H   -2.404716   -0.255599    0.179225
 H   -8.103771   -0.337060   -0.463045
 H   -4.923541   -3.100305    0.351559
 H   -6.345991    1.501483   -0.557599
