44 
5hva_ligand_dft.xyz
 O   -7.013437   -0.473725   -2.170800
 C   -6.093145   -0.256152   -1.409287
 C   -5.017907    0.706390   -1.594699
 C   -4.053104    0.828994   -0.663780
 N   -5.990588   -0.956787   -0.195131
 C   -5.020914   -0.843849    0.776580
 O   -5.032708   -1.485078    1.810970
 N   -4.010144    0.063536    0.475572
 C   -2.950038    0.204286    1.509265
 C   -2.037111   -1.013713    1.571797
 C   -0.905903   -0.642394    0.613580
 O    0.271677   -1.370964    0.877370
 O   -2.127356    1.295090    1.185278
 C   -0.803615    0.878090    0.835862
 C   -0.398547    1.732569   -0.358777
 O    0.985304    1.545795   -0.669181
 P    2.063812    2.664875   -0.277231
 O    2.498815    3.411090   -1.636222
 O    1.639997    3.585562    0.789363
 N    3.416204    1.684403   -0.091952
 P    3.359472    0.160160    0.553261
 O    4.882511   -0.148658    0.845368
 O    2.381597    0.017952    1.656283
 O    2.988043   -0.787838   -0.723603
 P    3.184696   -2.411474   -0.683153
 O    1.739275   -2.981732   -0.564354
 O    3.567919   -2.791440   -2.179772
 O    4.230019   -2.738637    0.319351
 H   -5.028227    1.322800   -2.482753
 H   -3.257280    1.556428   -0.744298
 H   -6.725746   -1.623613    0.004231
 H   -3.459716    0.403246    2.453113
 H   -2.544360   -1.945390    1.325558
 H   -1.621419   -1.107103    2.580047
 H   -1.195330   -0.845296   -0.424998
 H    0.943445   -0.822375    1.343782
 H   -0.126025    1.095432    1.672548
 H   -0.955701    1.440629   -1.253568
 H   -0.607826    2.779236   -0.123292
 H    2.258395    4.347038   -1.585463
 H    4.263198    1.973753   -0.566496
 H    4.999451   -1.130107    0.881351
 H    1.100848   -2.410091   -0.038226
 H    4.516739   -2.960723   -2.257768
