63 
5hvy_ligand_xtb.xyz
 C    4.730915   -1.670354   -0.086221
 C    0.504211   -2.048588    0.631391
 C    1.865095   -2.166136    0.543809
 C    5.868584    0.289740    0.512440
 C    2.624900   -1.074587    1.018441
 C    4.733567    0.053913    1.524473
 C    5.352789   -0.426212   -0.737812
 N    0.072475    1.093008    2.086357
 C    0.686320   -0.013372    1.599165
 C    0.785883    2.137516    2.781164
 N   -0.118706   -0.982246    1.143261
 N    2.013885   -0.011928    1.549123
 N    3.978431   -1.082040    1.004270
 N    4.320145    0.417502   -1.334036
 C    3.110063   -0.018524   -1.761719
 O    2.874867   -1.136180   -2.152857
 N    2.128929    0.984903   -1.699272
 C    0.775111    0.753331   -1.623800
 C    0.174977   -0.420354   -2.084394
 C   -1.173921   -0.622389   -1.897419
 C   -1.990201    0.316674   -1.272983
 C   -3.458338    0.018111   -1.123842
 N   -3.873707   -0.329237    0.272915
 C   -3.077561   -1.414905    0.913096
 C   -3.437133   -2.771564    0.312479
 O   -4.814194   -3.033311    0.453528
 C   -5.591967   -2.068461   -0.201977
 C   -5.321358   -0.665990    0.356604
 C   -1.391720    1.516509   -0.865925
 C   -0.035748    1.728068   -1.036447
 C   -2.191646    2.605115   -0.207568
 F   -3.266812    2.978347   -0.924044
 F   -2.715594    2.184860    0.987943
 F   -1.500543    3.699923    0.065439
 H    4.099506   -2.232538   -0.767610
 H    5.524431   -2.314938    0.300819
 H   -0.148320   -2.841867    0.288412
 H    2.324815   -3.051958    0.147085
 H    6.792306   -0.179987    0.846256
 H    6.066940    1.347647    0.348543
 H    4.065677    0.912421    1.618098
 H    5.117739   -0.189789    2.517573
 H    6.127223   -0.664670   -1.471048
 H   -0.898214    0.975823    2.329490
 H    1.804117    2.158319    2.403328
 H    0.299308    3.093478    2.587895
 H    0.817980    1.965103    3.860134
 H    4.419096    1.397354   -1.116455
 H    2.421087    1.887076   -1.347990
 H    0.779975   -1.173006   -2.560336
 H   -1.607318   -1.542836   -2.256888
 H   -4.063962    0.872656   -1.436154
 H   -3.702649   -0.823817   -1.771169
 H   -3.718924    0.509883    0.838865
 H   -1.996121   -1.200485    0.836933
 H   -3.348893   -1.430860    1.971357
 H   -2.920458   -3.557856    0.863593
 H   -3.140645   -2.831165   -0.743234
 H   -5.416030   -2.099290   -1.287026
 H   -6.633798   -2.334977   -0.016222
 H   -5.905589    0.079869   -0.183678
 H   -5.608489   -0.650296    1.410355
 H    0.403282    2.653483   -0.696405
