96 
5i12_ligand_xtb.xyz
 C   -2.248642   -2.386288    0.990410
 C   -0.948434   -2.207755    1.427514
 C   -1.682593   -0.427724    2.868120
 C    0.747536   -0.941068    2.739388
 C    2.511292    0.626912    3.236596
 C    3.393848   -0.419556    3.451739
 C    2.950686   -1.725462    3.316659
 C    1.641311   -1.986235    2.956286
 C   -4.570301   -0.609461   -1.796493
 O    3.514300    4.019894   -1.636067
 C    3.952284    3.823978   -0.532022
 C    4.601678    4.854837    0.343009
 O    3.902200    2.634320    0.083917
 C    3.350876    1.533309   -0.636817
 C    1.836878    1.449726   -0.434493
 N    1.147087    2.577905   -1.017576
 C   -0.025998    3.016727   -0.533824
 O   -0.523073    2.524799    0.478915
 C   -0.691698    4.118468   -1.298751
 C    4.039375    0.262507   -0.120753
 O    5.395562    0.308114   -0.535008
 C    6.343912   -0.016291    0.364347
 O    6.106798   -0.339011    1.495714
 C    7.706039    0.075899   -0.258512
 C    3.344120   -0.984780   -0.696061
 C    3.896340   -2.295486   -0.126794
 O    3.149857   -3.380538   -0.645179
 C    3.344883   -3.677300   -1.944891
 O    4.217216   -3.180571   -2.607227
 C    2.329963   -4.667429   -2.427853
 O    1.974300   -0.949920   -0.385740
 C    1.322673    0.121249   -1.031836
 N   -0.079428    0.024034   -0.844789
 C   -0.892579   -0.686980   -1.680959
 S   -0.324621   -1.465587   -3.015763
 N   -2.192279   -0.648904   -1.355787
 C   -3.250605   -1.342264   -2.043576
 N   -4.765889   -0.323969   -0.389882
 C   -5.085875    1.022094    0.045162
 C   -6.330271    1.632805   -0.619835
 C   -6.631739    2.979557    0.034707
 C   -7.517462    0.686101   -0.477028
 C   -3.822553    1.858537   -0.179039
 O   -3.539490    2.416843   -1.210464
 O   -3.028547    1.812724    0.875279
 S   -4.882813   -1.572520    0.719871
 O   -5.836326   -1.198307    1.722594
 O   -5.076058   -2.785356   -0.017124
 C   -3.251094   -1.556984    1.463219
 C   -0.644579   -1.200280    2.345106
 C   -2.981282   -0.604972    2.429118
 C    1.196263    0.370106    2.891464
 H   -2.496915   -3.156864    0.278103
 H   -0.154203   -2.815669    1.022004
 H   -1.470589    0.315237    3.621119
 H    2.850357    1.648209    3.337723
 H    4.422405   -0.222251    3.711688
 H    3.632564   -2.543451    3.498562
 H    1.301321   -3.006601    2.863705
 H   -5.387818   -1.230622   -2.175521
 H   -4.560050    0.343017   -2.328503
 H    3.820860    5.440450    0.825592
 H    5.200773    5.525790   -0.266175
 H    5.208092    4.374971    1.104237
 H    3.581151    1.665048   -1.703764
 H    1.618044    1.434607    0.641236
 H    1.560643    3.011665   -1.831820
 H   -1.648298    3.742106   -1.666396
 H   -0.086964    4.464697   -2.130052
 H   -0.906408    4.948357   -0.628265
 H    3.993584    0.239245    0.976212
 H    8.468056    0.018485    0.512312
 H    7.795893    1.001001   -0.820345
 H    7.828366   -0.753036   -0.952692
 H    3.484633   -0.987404   -1.789493
 H    3.761585   -2.321630    0.954636
 H    4.952294   -2.401332   -0.395246
 H    1.458256   -4.101934   -2.759122
 H    2.723287   -5.226975   -3.270714
 H    2.029918   -5.328492   -1.621419
 H    1.523076    0.076517   -2.117524
 H   -0.432489    0.294424    0.063508
 H   -2.461546   -0.202501   -0.490636
 H   -3.339542   -2.374125   -1.686712
 H   -3.016575   -1.363460   -3.111047
 H   -5.264546    0.939437    1.119845
 H   -6.117882    1.802587   -1.680027
 H   -6.845102    2.847464    1.093152
 H   -5.786709    3.656201   -0.069640
 H   -7.497169    3.438678   -0.436495
 H   -8.412998    1.142595   -0.891838
 H   -7.690069    0.457760    0.571963
 H   -7.334614   -0.251723   -0.994459
 H   -2.135038    2.246040    0.729796
 H   -3.789353   -0.013603    2.826044
 H    0.512777    1.190418    2.720266
