96 
5i12_ligand_dft.xyz
 C   -2.049668   -2.149473    1.072756
 C   -0.748655   -1.883020    1.484387
 C   -1.576552   -0.212354    3.014032
 C    0.892347   -0.521693    2.813806
 C    2.547422    1.189399    3.281622
 C    3.510351    0.210419    3.507473
 C    3.164186   -1.133930    3.388210
 C    1.868083   -1.497306    3.039443
 C   -4.641970   -0.750108   -1.699906
 O    3.739644    3.821455   -1.904029
 C    4.150945    3.641501   -0.779274
 C    4.942479    4.632407    0.027077
 O    3.956779    2.507884   -0.082905
 C    3.355616    1.400307   -0.763741
 C    1.839681    1.394498   -0.576198
 N    1.224106    2.553006   -1.198850
 C    0.057924    3.061089   -0.762815
 O   -0.529023    2.576489    0.218661
 C   -0.523709    4.230069   -1.510174
 C    3.982591    0.138568   -0.178667
 O    5.349506    0.143263   -0.595685
 C    6.281978   -0.235978    0.304932
 O    6.025313   -0.608655    1.423459
 C    7.657269   -0.148675   -0.298097
 C    3.263667   -1.111323   -0.703991
 C    3.747007   -2.394655   -0.041049
 O    2.883302   -3.477487   -0.368702
 C    2.978745   -3.959592   -1.626858
 O    3.825782   -3.598925   -2.409150
 C    1.887823   -4.953716   -1.902649
 O    1.889689   -0.986688   -0.415741
 C    1.298600    0.068204   -1.143997
 N   -0.110011    0.014020   -1.018174
 C   -0.921597   -0.731698   -1.820797
 S   -0.355475   -1.752217   -3.028234
 N   -2.229388   -0.548712   -1.551535
 C   -3.297937   -1.365570   -2.083259
 N   -4.748184   -0.358996   -0.287800
 C   -5.153328    1.013063    0.054397
 C   -6.471527    1.474384   -0.587084
 C   -6.873241    2.832805   -0.002170
 C   -7.579920    0.442446   -0.374869
 C   -3.970487    1.932084   -0.282913
 O   -3.873877    2.610981   -1.281864
 O   -3.021477    1.828193    0.645397
 S   -4.739019   -1.532736    0.909094
 O   -5.676046   -1.119926    1.941871
 O   -4.863756   -2.807284    0.222592
 C   -3.103101   -1.414481    1.612619
 C   -0.495469   -0.889034    2.438546
 C   -2.877113   -0.466137    2.604970
 C    1.246735    0.826134    2.942523
 H   -2.240626   -2.899852    0.312790
 H    0.081425   -2.396557    1.008249
 H   -1.395484    0.529206    3.785863
 H    2.808992    2.240760    3.357569
 H    4.531155    0.484820    3.751530
 H    3.915293   -1.899425    3.557459
 H    1.606833   -2.547711    2.946929
 H   -5.440770   -1.444169   -1.975592
 H   -4.778303    0.172744   -2.268245
 H    4.466146    4.789101    0.998667
 H    5.013392    5.574282   -0.515711
 H    5.944140    4.233501    0.212614
 H    3.604092    1.468540   -1.828884
 H    1.616465    1.416845    0.494571
 H    1.729457    3.016092   -1.944125
 H   -1.545821    3.965773   -1.800626
 H    0.051257    4.510708   -2.395325
 H   -0.585115    5.085759   -0.831612
 H    3.924207    0.167539    0.912300
 H    8.405220   -0.333166    0.472482
 H    7.812004    0.832075   -0.754960
 H    7.752649   -0.898990   -1.089211
 H    3.414485   -1.190839   -1.790485
 H    3.697263   -2.299899    1.042844
 H    4.771548   -2.615862   -0.349524
 H    0.955291   -4.398829   -2.056866
 H    2.125259   -5.514376   -2.806672
 H    1.748398   -5.628132   -1.054539
 H    1.553056   -0.035843   -2.208397
 H   -0.514007    0.544543   -0.254336
 H   -2.460885   -0.042915   -0.704189
 H   -3.221572   -2.395114   -1.716613
 H   -3.217156   -1.403230   -3.172420
 H   -5.280240    1.032450    1.139668
 H   -6.304986    1.613604   -1.661895
 H   -7.053442    2.752381    1.076951
 H   -6.103523    3.591437   -0.172449
 H   -7.797747    3.187442   -0.468224
 H   -8.518859    0.809371   -0.802133
 H   -7.737598    0.250856    0.691670
 H   -7.348422   -0.515747   -0.849037
 H   -2.207224    2.338771    0.397869
 H   -3.709160    0.075243    3.039822
 H    0.507419    1.594640    2.732031
