28 
5i24_ligand_xtb.xyz
 C    0.122037    0.586286    1.213831
 C   -1.014743   -0.258236    0.622841
 C   -0.494394   -1.162130   -0.499408
 C    0.268585   -0.386719   -1.564057
 C    1.446868    0.390368   -0.973486
 C    0.954571    1.336402    0.150517
 C   -2.212936    0.571471    0.144557
 O   -3.155829   -0.340708   -0.372608
 O    0.938885   -0.310546    1.955035
 O    0.150950    2.362347   -0.364628
 O    2.404041   -0.538250   -0.494640
 N    0.425263   -2.165361    0.122397
 H   -0.312740    1.344901    1.875957
 H   -1.385586   -0.901656    1.428310
 H   -1.345245   -1.674822   -0.955769
 H   -0.409366    0.321279   -2.037081
 H    0.639355   -1.065554   -2.333292
 H    1.885035    1.008585   -1.769512
 H    1.839872    1.752928    0.662334
 H   -2.622575    1.122904    0.998632
 H   -1.904036    1.297483   -0.614298
 H   -3.977543    0.123041   -0.562560
 H    1.576509    0.177986    2.487020
 H    0.686170    3.000829   -0.849684
 H    3.259079   -0.109574   -0.391445
 H    0.997009   -1.621576    0.820218
 H    1.062038   -2.561555   -0.575255
 H   -0.089120   -2.905072    0.605599
