43 
5i2f_ligand_dft.xyz
 S    1.486896   -2.387539   -0.148991
 N   -4.119083    0.937468    0.519337
 C   -3.222443    1.830130    0.952161
 N   -1.966441    2.007785    0.544325
 C   -1.637871    1.149302   -0.435846
 C   -2.456686    0.168407   -0.980680
 C   -3.756098    0.083640   -0.448951
 N   -4.633168   -0.862478   -0.849576
 N   -1.785735   -0.560480   -1.941860
 C   -0.595617   -0.006177   -1.980959
 N   -0.441023    1.023557   -1.088725
 C    0.745692    1.841711   -0.841438
 C    1.094069    1.899168    0.662075
 O    0.594511    3.031101    1.312782
 C    2.622722    1.963998    0.606918
 O    3.035188    3.288703    0.384938
 C    2.955966    1.137617   -0.637404
 O    1.824761    1.267774   -1.509094
 C    3.245712   -0.341245   -0.397164
 N    2.186780   -0.983552    0.379066
 C   -1.966572   -1.700417    1.847624
 C   -0.484687   -1.813059    1.586358
 N   -0.129782   -2.167642    0.299132
 O    0.355541   -1.599770    2.441381
 O    1.476623   -2.365252   -1.596885
 O    1.992257   -3.523802    0.583848
 H   -3.564841    2.494063    1.741267
 H   -5.588866   -0.780164   -0.538632
 H   -4.442054   -1.376846   -1.695407
 H    0.227179   -0.330898   -2.599812
 H    0.549870    2.852781   -1.218568
 H    0.770439    0.969054    1.143423
 H   -0.380591    2.959679    1.274372
 H    3.083955    1.548960    1.515319
 H    2.404955    3.846763    0.867175
 H    3.817659    1.584647   -1.142946
 H    3.315670   -0.833842   -1.369066
 H    4.211252   -0.453360    0.109415
 H    2.300976   -1.021010    1.387507
 H   -2.586514   -2.070657    1.028592
 H   -2.211240   -0.651194    2.037827
 H   -2.191827   -2.261018    2.757923
 H   -0.783363   -2.107420   -0.478353
