81 
5i3m_ligand_xtb.xyz
 O   -6.550706   -2.669139   -0.284043
 C   -5.549565   -2.833621   -0.962925
 C   -5.466326   -3.840324   -2.082391
 N   -4.419457   -2.122195   -0.794918
 C   -4.166870   -1.191225    0.290984
 C   -5.056727    0.066216    0.207506
 O   -6.371718   -0.156524    0.634640
 C   -4.508759    1.182314    1.115331
 O   -5.216190    2.378842    0.902490
 C   -3.019457    1.417642    0.856297
 C   -2.442894    2.508878    1.768333
 O   -2.740495    3.787195    1.283854
 O   -2.317410    0.215201    1.086527
 C   -2.681943   -0.794281    0.183539
 N   -1.806251   -1.906290    0.451762
 C   -1.032154   -2.458674   -0.521625
 S   -1.471530   -2.359014   -2.118778
 N    0.029484   -3.181352   -0.105177
 C    1.179607   -3.338689   -0.962721
 C    2.081531   -2.091444   -0.914501
 N    2.841928   -1.997532    0.319690
 C    4.289831   -1.990043    0.248464
 C    4.841526   -3.332998   -0.279503
 C    4.535920   -4.427122    0.739384
 C    6.343403   -3.240095   -0.535365
 C    4.802614   -0.803297   -0.553882
 O    5.863033   -0.239618    0.027206
 O    4.326279   -0.375327   -1.572781
 S    2.204258   -1.038709    1.544762
 O    3.176026   -1.010619    2.595089
 O    0.905434   -1.577086    1.867324
 C    1.983121    0.598598    0.877954
 C    0.775374    0.950093    0.305698
 C    0.610349    2.225519   -0.200915
 C    3.028243    1.499842    0.953145
 C    2.858554    2.775458    0.448359
 C    1.646877    3.155425   -0.131679
 C    1.447947    4.520581   -0.638150
 C    2.455270    5.165218   -1.353045
 C    2.265877    6.448972   -1.829289
 C    1.072758    7.110180   -1.589184
 C    0.067708    6.478298   -0.875732
 C    0.247310    5.190236   -0.405595
 H   -6.419075   -4.351815   -2.180974
 H   -4.683518   -4.565077   -1.871093
 H   -5.223439   -3.337517   -3.015445
 H   -3.627203   -2.314609   -1.406134
 H   -4.354653   -1.681401    1.256491
 H   -5.048888    0.425764   -0.838417
 H   -6.639330   -1.066357    0.371825
 H   -4.632726    0.850171    2.159245
 H   -6.153100    2.140874    0.884723
 H   -2.887034    1.736409   -0.191448
 H   -2.824157    2.368755    2.788482
 H   -1.354343    2.414672    1.788150
 H   -3.700241    3.832259    1.162462
 H   -2.510690   -0.451474   -0.857164
 H   -1.396940   -1.867456    1.379722
 H    0.286276   -3.016724    0.866889
 H    1.733533   -4.222234   -0.643751
 H    0.822134   -3.478918   -1.985970
 H    1.452775   -1.201741   -1.027623
 H    2.768431   -2.107632   -1.759763
 H    4.635560   -1.857934    1.277673
 H    4.338501   -3.567447   -1.222528
 H    3.486006   -4.404106    1.018296
 H    5.128605   -4.277617    1.638503
 H    4.770997   -5.405228    0.326664
 H    6.560536   -2.568602   -1.363016
 H    6.734359   -4.223090   -0.786263
 H    6.859789   -2.877582    0.350142
 H    6.187612    0.511975   -0.496803
 H   -0.036135    0.241897    0.302989
 H   -0.325845    2.506637   -0.656996
 H    3.944535    1.199676    1.437504
 H    3.658603    3.495849    0.529724
 H    3.379812    4.645474   -1.558643
 H    3.050812    6.934994   -2.390152
 H    0.927634    8.114684   -1.958027
 H   -0.863127    6.989811   -0.682180
 H   -0.538424    4.716490    0.164273
