42 
5i83_ligand_xtb.xyz
 C   -0.559309   -1.321063    0.070183
 C   -1.724215   -0.557503    0.177330
 N   -2.789869   -1.140898    0.812699
 C   -4.150525   -0.659704    0.841100
 C   -5.078000   -1.828608    1.157392
 C   -4.527071    0.001360   -0.498128
 C   -4.097822    1.447399   -0.481983
 O   -4.872240    2.379900   -0.568667
 N   -2.772678    1.658525   -0.297595
 C   -1.689507    0.760652   -0.315776
 C   -0.494985    1.247040   -0.835094
 C    0.655691    0.488861   -0.915226
 C    0.622548   -0.825422   -0.460350
 O    1.666589   -1.699550   -0.485113
 C    2.918129   -1.262208   -0.988901
 C    3.828936   -2.491276   -0.992685
 C    3.535428   -0.167563   -0.146412
 C    3.317300   -0.132679    1.223704
 C    3.892528    0.858917    1.997635
 C    4.697755    1.819394    1.410175
 C    4.926666    1.784342    0.044968
 C    4.347034    0.796161   -0.730151
 H   -0.561755   -2.338756    0.431209
 H   -2.681161   -2.129468    0.974586
 H   -4.250992    0.092210    1.639099
 H   -5.040637   -2.568581    0.360034
 H   -4.784761   -2.300830    2.092611
 H   -6.101376   -1.478521    1.258157
 H   -4.034873   -0.527897   -1.316627
 H   -5.605548   -0.026506   -0.650409
 H   -2.505693    2.634989   -0.342901
 H   -0.470946    2.266551   -1.193578
 H    1.551440    0.929307   -1.318380
 H    2.791892   -0.904905   -2.023597
 H    3.950118   -2.856783    0.023510
 H    3.385599   -3.277794   -1.597483
 H    4.802910   -2.229402   -1.396257
 H    2.684778   -0.881343    1.677642
 H    3.711266    0.881458    3.062188
 H    5.144955    2.595253    2.013828
 H    5.553616    2.532030   -0.418396
 H    4.520714    0.774201   -1.797410
