38 
5icp_ligand_xtb.xyz
 C   -1.296525    2.445371    0.035591
 C   -0.160835    2.472401   -0.758043
 C    0.942259    1.722183   -0.393692
 C    0.925686    0.945691    0.758694
 C   -0.211754    0.958513    1.557871
 C   -1.324447    1.696884    1.202278
 C    2.098667    0.068549    1.132113
 C    4.276547    1.009174    0.600056
 C    4.100026   -0.293958   -0.169374
 N    2.683600   -0.579287   -0.033745
 C    0.553175   -1.388206   -0.755481
 C   -1.853212   -1.282888   -0.954889
 C   -2.194374   -2.606182    2.420710
Cl   -2.693914    3.339620   -0.438348
 C    3.270685    0.864450    1.741730
 C    2.021715   -1.254698   -0.987261
 O    2.548539   -1.697559   -1.988901
 N    0.011882   -1.825078    0.318273
 N   -1.319070   -1.777632    0.227181
 C   -3.207316   -1.286718   -0.780928
 N   -3.488605   -1.765304    0.458550
 C   -2.359067   -2.056503    1.055787
 S   -0.551331   -0.897124   -2.036361
 H   -0.147277    3.060944   -1.661535
 H    1.811968    1.721845   -1.033294
 H   -0.233589    0.364432    2.459623
 H   -2.213288    1.678796    1.812622
 H    1.747513   -0.695200    1.835523
 H    5.294333    1.140200    0.960061
 H    4.018933    1.861213   -0.028767
 H    4.358473   -0.230389   -1.227447
 H    4.683912   -1.103648    0.282664
 H   -1.564443   -3.493853    2.396650
 H   -3.172506   -2.861221    2.815289
 H   -1.724338   -1.872799    3.075407
 H    3.714021    0.297216    2.559863
 H    2.936906    1.825793    2.127912
 H   -3.983115   -0.985675   -1.452449
