37 
5ief_ligand_dft.xyz
 O    0.035117    2.909753   -0.483136
 C    1.017045    2.278244    0.316908
 C    0.448901    0.890675    0.625090
 C    1.438370   -0.056764    1.309395
 O    0.675090   -1.039273    1.971816
 C    2.460647   -0.682453    0.342171
 O    3.371765    0.341550    0.002993
 C    1.807835   -1.247415   -0.935160
 O    0.999281   -2.371719   -0.708443
 N   -0.127553    0.324857   -0.654728
 C    0.932631   -0.190970   -1.584347
 C   -1.292584   -0.618531   -0.420006
 C   -2.583016    0.158622   -0.206563
 C   -3.746385   -0.785646    0.111092
 C   -5.069501   -0.039487    0.268009
 H    0.340798    3.781986   -0.758264
 H    1.983794    2.210488   -0.193014
 H    1.165101    2.798526    1.270737
 H   -0.404000    1.010066    1.295714
 H    2.009589    0.553440    2.022625
 H    1.206453   -1.442413    2.669061
 H    2.963907   -1.500310    0.880099
 H    4.182698   -0.044933   -0.349671
 H    2.612215   -1.470652   -1.654253
 H    1.509767   -3.060662   -0.265926
 H   -0.512994    1.164844   -1.111871
 H    0.428664   -0.595037   -2.463455
 H    1.544385    0.662311   -1.883042
 H   -1.361759   -1.257213   -1.302098
 H   -1.027135   -1.247608    0.428433
 H   -2.474234    0.881834    0.611892
 H   -2.818866    0.738551   -1.109826
 H   -3.519247   -1.336794    1.031823
 H   -3.837214   -1.533367   -0.686788
 H   -5.879315   -0.733469    0.507994
 H   -5.013774    0.701684    1.072537
 H   -5.339645    0.484596   -0.654980
