46 
5im3_ligand_dft.xyz
 P    4.180731   -0.819157   -0.253513
 O    3.764072   -1.311893    1.081958
 O    5.672155   -0.287993   -0.339194
 O    4.117879   -1.802528   -1.473759
 P    2.040964    1.150061    0.033943
 O    2.269587    1.467517    1.445441
 O    1.718041    2.317094   -0.960821
 O    3.271145    0.440118   -0.746719
 P    0.746134   -1.479366    0.008734
 O    1.493605   -2.248511   -1.016438
 O    1.152556   -1.750445    1.508412
 O    0.813301    0.108209   -0.251754
 O   -0.828662   -1.663106    0.001551
 C   -1.427245   -2.833336    0.574384
 C   -2.938137   -2.715979    0.456015
 O   -3.440080   -1.626719    1.220650
 C   -3.471979   -2.488925   -0.968629
 O   -4.793070   -2.970532   -1.106705
 C   -3.527407   -0.969330   -1.063955
 C   -3.714340   -0.520971    0.396496
 N   -2.796251    0.565767    0.751639
 C   -1.884324    0.590812    1.782592
 N   -1.108342    1.641077    1.786262
 C   -1.525932    2.352385    0.683956
 C   -1.049454    3.504037    0.059417
 N    0.145131    4.099714    0.460677
 N   -1.664690    3.984377   -1.016801
 C   -2.712406    3.295609   -1.499431
 N   -3.218425    2.148116   -1.057606
 C   -2.585116    1.714259    0.035066
 H    5.991035   -0.018644    0.533521
 H    3.188357   -2.139415   -1.541961
 H    1.258264    3.069035   -0.488398
 H    2.139450   -1.685083    1.606432
 H   -1.076015   -3.725477    0.043241
 H   -1.141619   -2.902717    1.627685
 H   -3.362904   -3.630141    0.887477
 H   -2.805137   -2.922016   -1.726154
 H   -4.774989   -3.934726   -1.084156
 H   -2.591885   -0.575662   -1.461637
 H   -4.347113   -0.643600   -1.703885
 H   -4.733071   -0.185366    0.606003
 H   -1.845184   -0.212625    2.502505
 H    0.395608    3.913113    1.427446
 H    0.211788    5.077700    0.201714
 H   -3.192156    3.728149   -2.372935
