72 
5iq6_ligand_xtb.xyz
 O   -6.088253   -1.563414   -0.646114
 C   -0.184969   -1.431953    0.110362
 C   -2.168698   -2.785395   -0.314453
 O   -2.307906    1.383323    0.106408
 C   -3.185470   -3.697741   -0.548418
 N   -1.305028   -0.666305    0.044415
 C   -4.479719   -3.242019   -0.649136
 C   -4.779625   -1.876850   -0.519151
 C   -6.526451   -0.218321   -0.482607
 O    6.269697    3.297759   -1.799518
 C   -7.917403   -0.130608   -1.109480
 C   -8.478210    1.280273   -0.961770
 C   -8.535867    1.683806    0.508510
 C   -7.151164    1.585355    1.141174
 C   -6.594299    0.172701    0.995765
 C   -3.759480   -0.960328   -0.289640
 C   -1.274630    0.744700    0.187969
 C   -2.455091   -1.424523   -0.190225
 S   -0.450938   -3.116604   -0.141688
 C    0.042599    1.302387    0.405727
 C    0.175219    2.764701    0.495823
 C    1.255149    3.399687   -0.117407
 C    1.404213    4.770863   -0.039444
 C    0.476389    5.532646    0.651324
 C   -0.599928    4.912094    1.262301
 C   -0.752320    3.539943    1.187355
 C    1.149598    0.503202    0.503935
 C    1.063467   -0.892972    0.366517
 C    2.165524   -1.855273    0.414718
 O    1.968469   -3.039113    0.147311
 N    3.384376   -1.390430    0.753620
 C    4.566859   -2.206645    0.707593
 C    5.542933   -1.693345    1.746571
 O    5.431735   -0.642012    2.318316
 O    6.562027   -2.528510    1.940627
 C    5.229182   -2.145287   -0.695203
 C    5.545015   -0.719927   -1.048080
 C    6.787258   -0.172394   -0.760948
 C    7.050217    1.161976   -1.008989
 C    6.063337    1.978537   -1.547788
 C    4.817670    1.436304   -1.849282
 C    4.567923    0.102173   -1.600535
 H   -2.956078   -4.746437   -0.646439
 H   -5.295046   -3.923494   -0.830650
 H   -5.850881    0.461898   -1.019081
 H    7.167008    3.545134   -1.545824
 H   -8.569258   -0.849068   -0.609519
 H   -7.855092   -0.410480   -2.162291
 H   -9.476043    1.325039   -1.401839
 H   -7.840353    1.981601   -1.504487
 H   -8.914277    2.703714    0.599070
 H   -9.224309    1.022149    1.038891
 H   -6.475099    2.290475    0.652427
 H   -7.203466    1.850497    2.198697
 H   -7.241959   -0.540352    1.511039
 H   -5.602430    0.111115    1.446533
 H   -3.942305    0.094202   -0.190175
 H    1.971839    2.815692   -0.676883
 H    2.244684    5.246568   -0.523755
 H    0.590707    6.605174    0.709456
 H   -1.326531    5.501218    1.802739
 H   -1.591807    3.064401    1.668020
 H    2.106412    0.967705    0.690718
 H    3.525372   -0.430696    1.028733
 H    4.292876   -3.244405    0.926172
 H    7.179291   -2.168059    2.597835
 H    6.131505   -2.756722   -0.680709
 H    4.521636   -2.570359   -1.408077
 H    7.564392   -0.796052   -0.342413
 H    8.024182    1.574469   -0.780525
 H    4.064478    2.076898   -2.279913
 H    3.598613   -0.309875   -1.841746
