120 
5iql_ligand_xtb.xyz
 N    0.622161   -1.148465    0.210845
 C    0.214249   -1.867771    1.441707
 C    1.224482   -1.524641    2.551843
 O    0.861738   -1.085407    3.618771
 C    0.110776   -3.361237    1.174566
 N    2.509557   -1.738659    2.211083
 C    3.573993   -1.032296    2.889316
 C    4.038097    0.075574    1.932388
 O    3.890647   -0.078798    0.726060
 C    4.742351   -1.954768    3.226894
 N    4.594934    1.137985    2.524808
 C    4.988414    2.430255    1.958459
 C    3.842417    3.113000    1.172780
 O    3.380459    4.166742    1.551049
 C    6.305514    2.428788    1.147114
 C    6.625157    1.160451    0.354696
 C    7.654068    1.453620   -0.747801
 N    8.102869    0.264128   -1.438301
 C    7.287024   -0.500558   -2.227376
 N    6.132238   -0.189789   -2.679500
 N    7.781327   -1.755811   -2.513051
 N    3.489127    2.496656    0.030956
 C    2.321771    2.918958   -0.708167
 C    2.393437    2.359054   -2.136775
 C    2.159519    0.847533   -2.149780
 C    2.615792    0.174384   -3.440773
 C    2.727210   -1.337588   -3.243999
 N    3.828024   -1.683998   -2.373844
 C    3.716635   -2.338183   -1.221860
 O    2.625642   -2.605066   -0.678420
 C    4.988433   -2.814614   -0.657816
 C    5.035474   -3.806726    0.228677
 C    6.286168   -4.428362    0.735503
 C    1.052957    2.401320   -0.023453
 O    1.076399    1.447503    0.748234
 N   -0.068148    3.022504   -0.387072
 C   -1.375525    2.704933    0.143745
 C   -1.692855    1.214591    0.061057
 O   -1.244710    0.486826   -0.814816
 C   -2.428301    3.435653   -0.703438
 O   -2.118140    4.809370   -0.672856
 N   -2.520581    0.784475    1.022568
 C   -3.343238   -0.401074    0.856186
 C   -4.567910    0.028845    0.025199
 O   -4.878490    1.207294   -0.034704
 C   -3.791782   -0.903898    2.223845
 N   -5.233586   -0.928788   -0.627377
 C   -6.524729   -0.615074   -1.216366
 C   -7.530267   -0.303199   -0.084667
 O   -7.292696   -0.572474    1.069107
 C   -6.909629   -1.898415   -1.882917
 C   -6.039211   -2.852921   -1.600919
 C   -4.929243   -2.342648   -0.732115
 N   -8.664604    0.271307   -0.524305
 C   -9.841096    0.389006    0.308038
 C  -10.884098   -0.606683   -0.190494
 O  -10.769023   -1.234582   -1.209328
 C  -10.408334    1.808264    0.278115
 O  -11.933050   -0.688168    0.617526
 H   -0.178737   -0.968643   -0.417444
 H    0.966150   -0.189232    0.457928
 H    1.392614   -1.685941   -0.290814
 H   -0.746461   -1.471290    1.781903
 H   -0.108118   -3.889925    2.097504
 H    1.044604   -3.737314    0.766505
 H   -0.686087   -3.567246    0.463591
 H    2.739204   -2.069104    1.276927
 H    3.140209   -0.603249    3.798219
 H    4.391556   -2.782841    3.836637
 H    5.175428   -2.345427    2.309505
 H    5.507126   -1.414252    3.778184
 H    4.613832    1.109660    3.532943
 H    5.141316    3.089417    2.818311
 H    7.134599    2.620570    1.831291
 H    6.252237    3.277830    0.462061
 H    7.024724    0.395885    1.025696
 H    5.731961    0.749956   -0.110125
 H    8.535657    1.937490   -0.323263
 H    7.219449    2.141274   -1.481002
 H    8.886778   -0.213446   -1.022105
 H    5.811060    0.727807   -2.397617
 H    7.328220   -2.201612   -3.296325
 H    8.784272   -1.855592   -2.516695
 H    3.737566    1.513890   -0.053090
 H    2.311534    4.013843   -0.710308
 H    1.652823    2.857444   -2.762605
 H    3.381774    2.588878   -2.539233
 H    2.713175    0.392860   -1.327516
 H    1.096793    0.650205   -1.996355
 H    1.915268    0.382408   -4.249399
 H    3.596007    0.551184   -3.736307
 H    1.804668   -1.742570   -2.820322
 H    2.902675   -1.817653   -4.212714
 H    4.750605   -1.292334   -2.637331
 H    5.889830   -2.381933   -1.060750
 H    4.109229   -4.240073    0.586363
 H    6.271571   -4.505718    1.821582
 H    7.161538   -3.865486    0.421562
 H    6.366192   -5.442915    0.344729
 H   -0.030139    3.881186   -0.917151
 H   -1.442462    3.046084    1.184825
 H   -3.425751    3.226398   -0.300867
 H   -2.381204    3.051136   -1.733007
 H   -2.863821    5.314346   -1.011073
 H   -2.939664    1.476207    1.628905
 H   -2.759424   -1.150190    0.315020
 H   -2.933191   -1.059863    2.873604
 H   -4.453607   -0.173501    2.683098
 H   -4.341080   -1.835358    2.134417
 H   -6.449404    0.243706   -1.891676
 H   -7.809545   -1.987725   -2.461927
 H   -6.074046   -3.877404   -1.920993
 H   -4.941385   -2.842171    0.243643
 H   -3.946628   -2.498540   -1.194101
 H   -8.828317    0.343031   -1.517872
 H   -9.548803    0.118231    1.328016
 H  -10.698396    2.079366   -0.734828
 H  -11.279478    1.869099    0.923366
 H   -9.655879    2.509031    0.628514
 H  -12.590369   -1.318037    0.278862
