48 
5ism_ligand_dft.xyz
 C    5.565347    1.423080    0.288782
 C    4.197386   -0.839070   -0.612225
 C   -1.642043   -2.026478   -0.423289
 C   -0.247635    0.508251    0.608467
 C   -6.508140    1.208673   -0.891734
 C   -5.594710    0.534888   -1.645557
 F    3.529868    2.609178    0.338125
 C    4.198082    1.429296    0.089698
 C    3.473272    0.325426   -0.344758
 C    5.570044   -0.861286   -0.410068
 F    6.227914   -1.985279   -0.660199
 C    6.268901    0.252226    0.039203
 C    1.973841    0.350538   -0.625389
 C    1.118457    1.166786    0.399587
 N    0.933072    2.572092   -0.112979
 O    1.440482   -0.955709   -0.709527
 C    1.216917   -1.533691    0.558309
 C   -0.025992   -0.891431    1.208787
 N   -1.246373   -1.772386    1.042839
 C   -2.485648   -1.239367    1.804366
 C   -2.849775   -1.159589   -0.546157
 N   -3.570830   -0.773072   -1.587670
 N   -4.556581   -0.057840   -0.991638
 C   -4.449650    0.020828    0.399124
 C   -3.301608   -0.713898    0.686017
 N   -5.331242    0.693513    1.153898
 C   -6.330655    1.264807    0.517869
 H    6.064354    2.322261    0.631813
 H    3.705185   -1.725850   -0.993263
 H   -0.800889   -1.775425   -1.072567
 H   -1.871531   -3.090029   -0.529804
 H   -0.878374    1.114144    1.266324
 H   -0.755829    0.429447   -0.357626
 H   -7.357242    1.688188   -1.361787
 H   -5.617908    0.412768   -2.721405
 H    7.341890    0.197313    0.182095
 H    1.802445    0.766164   -1.627769
 H    1.645993    1.283258    1.349684
 H    1.871504    2.990717   -0.229307
 H    0.411061    3.159739    0.546311
 H    0.441937    2.599486   -1.013170
 H    1.095788   -2.608139    0.397019
 H    2.088241   -1.398581    1.211364
 H    0.119666   -0.819498    2.290904
 H   -0.994644   -2.670961    1.461356
 H   -2.935223   -2.089339    2.327473
 H   -2.147359   -0.515543    2.549710
 H   -7.047634    1.804386    1.130187
