24 
5j32_ligand_xtb.xyz
 C   -1.938940   -0.558870   -0.195971
 C   -0.570205   -1.037609    0.283245
 C    0.472726   -0.062567   -0.341470
 C    0.066828    1.322072    0.113951
 C    1.908266   -0.372640    0.122031
 C    2.335458   -1.775729   -0.296834
 C    2.863348    0.668064   -0.459776
 O   -0.493416   -1.095914    1.668142
 O   -2.670139    0.161508    0.425829
 O   -2.213310   -0.997972   -1.427119
 O   -0.301573    2.108555   -0.898853
 O    0.036390    1.680385    1.262613
 H   -0.401434   -2.049117   -0.094890
 H    0.403111   -0.116321   -1.430459
 H    1.927772   -0.305032    1.213805
 H    1.767064   -2.532630    0.235162
 H    3.387257   -1.922181   -0.064413
 H    2.198040   -1.915666   -1.367090
 H    2.835995    0.644518   -1.547428
 H    2.598244    1.669631   -0.129034
 H    3.881011    0.463861   -0.136617
 H   -0.614499   -0.200794    2.024305
 H   -3.071656   -0.657845   -1.729052
 H   -0.599393    2.972754   -0.570238
