24 
5j32_ligand_dft.xyz
 C   -1.999734   -0.514676   -0.232183
 C   -0.627971   -0.989305    0.243470
 C    0.461814   -0.040420   -0.329940
 C    0.155179    1.363584    0.146851
 C    1.886568   -0.437028    0.123176
 C    2.199872   -1.897317   -0.207695
 C    2.922686    0.497082   -0.510038
 O   -0.578779   -1.101039    1.629750
 O   -2.767401    0.145329    0.421244
 O   -2.233077   -0.877535   -1.507476
 O   -0.034476    2.239179   -0.849726
 O    0.072285    1.680818    1.314773
 H   -0.462359   -1.986704   -0.170851
 H    0.402557   -0.066701   -1.423344
 H    1.920811   -0.314764    1.211109
 H    1.590916   -2.585751    0.384804
 H    3.249875   -2.114434    0.013482
 H    2.033688   -2.107819   -1.271792
 H    2.915910    0.404429   -1.602920
 H    2.739082    1.547807   -0.261323
 H    3.928344    0.246420   -0.157747
 H   -0.637477   -0.201735    1.992452
 H   -3.092287   -0.496953   -1.752004
 H   -0.247977    3.090676   -0.432232
