52 
5ja0_ligand_xtb.xyz
 C    2.386617   -1.521061   -2.098337
 O    1.142528   -2.092562   -1.642588
 C    2.285318   -0.032233   -2.191594
 C    2.875569    0.861657   -1.402441
 C    3.788534    0.513203   -0.264512
 C    2.630175    2.332565   -1.604774
 C    1.767030    2.930629   -0.485018
 C    0.374879    2.371285   -0.499157
 C   -0.631362    2.820256    0.250072
 C   -0.460888    3.987626    1.188005
 C   -2.028034    2.256111    0.205616
 C   -2.289776    1.193280   -0.863934
 C   -3.731940    0.784561   -0.839352
 C   -4.240283   -0.440612   -0.882528
 C   -5.726550   -0.657903   -0.839954
 C   -3.454510   -1.711049   -0.991717
 P    0.804016   -2.168231   -0.122770
 O   -0.476040   -2.798050    0.192442
 O    2.087905   -2.755477    0.580407
 O    0.784105   -0.612910    0.380178
 P    0.388386   -0.516338    1.959011
 O   -1.165763   -0.777028    1.967407
 O    0.561680    0.997220    2.270070
 O    1.215256   -1.426411    2.751944
 H    3.186524   -1.839694   -1.430693
 H    2.534201   -1.960763   -3.089162
 H    1.623735    0.309243   -2.977015
 H    4.410786   -0.346986   -0.497009
 H    4.436873    1.353162   -0.025226
 H    3.201820    0.272474    0.622574
 H    2.133009    2.501229   -2.561455
 H    3.589777    2.855445   -1.626907
 H    2.238225    2.731729    0.482224
 H    1.730300    4.016861   -0.609632
 H    0.224674    1.541765   -1.170709
 H   -0.485947    4.923648    0.628677
 H   -1.263328    4.013822    1.920886
 H    0.489854    3.943169    1.714804
 H   -2.265971    1.826848    1.185187
 H   -2.720515    3.090651    0.051160
 H   -2.056781    1.613806   -1.848159
 H   -1.641012    0.333702   -0.698630
 H   -4.419933    1.620886   -0.783812
 H   -6.267031    0.284478   -0.803720
 H   -5.993294   -1.245371    0.038170
 H   -6.052523   -1.213686   -1.718507
 H   -2.382497   -1.561860   -0.927986
 H   -3.671577   -2.193743   -1.944765
 H   -3.750243   -2.401777   -0.203375
 H    2.023580   -2.564612    1.534210
 H   -1.358778   -1.615174    1.520264
 H    0.153987    1.571146    1.593844
