61 
5jau_ligand_dft.xyz
 C   -5.912458   -2.535173   -1.220231
 C   -4.191733   -1.327327   -0.089852
 C   -2.841022   -1.782209    0.479943
 C   -2.577177   -0.701310    2.743185
 C   -1.035264    0.748730    2.134908
 C    0.973673    1.644609    1.122549
 C    1.780840    0.507366    1.095166
 C    2.754417    0.321621    0.120264
 C    2.983519    1.332815   -0.832626
 C    4.051546    1.171875   -1.883062
 C   -1.568701    2.737384   -1.055878
 C    3.492604   -0.973859    0.067776
 C    4.769194   -1.086376    0.617700
 C    5.455637   -2.295744    0.576094
 C    4.861770   -3.400664   -0.023185
 C    3.588955   -3.291322   -0.575772
 C    2.886719   -2.087009   -0.540103
 O   -4.522531   -2.296097   -1.064156
 C   -4.147884    0.043239   -0.764375
 O   -3.353902   -0.020795   -1.942320
 N   -2.279221   -0.855407    1.437798
 C   -1.801340    0.322982    3.241270
 N   -0.103975    1.760956    2.046138
 C    2.197219    2.483538   -0.787699
 C    1.181133    2.628891    0.157018
 O    0.349802    3.724254    0.136218
 C   -0.483967    3.809455   -0.996364
 N   -1.063675    1.359760   -1.374919
 C    1.508949   -1.980349   -1.151530
 N   -1.338561    0.042128    1.043751
 H   -6.013019   -3.287289   -2.003282
 H   -6.453498   -1.628804   -1.521366
 H   -6.347780   -2.921408   -0.290348
 H   -4.937823   -1.305931    0.717897
 H   -2.967146   -2.759001    0.952734
 H   -2.116641   -1.893952   -0.329321
 H   -3.294834   -1.344601    3.232872
 H    1.608015   -0.275212    1.828529
 H    5.047043    1.159536   -1.427834
 H    4.022556    1.986203   -2.611654
 H    3.940387    0.221357   -2.415186
 H   -2.076985    2.667750   -0.091619
 H   -2.295113    3.005690   -1.826087
 H    5.222743   -0.217293    1.086737
 H    6.446522   -2.373745    1.011873
 H    5.387322   -4.349595   -0.062883
 H    3.132416   -4.159197   -1.044559
 H   -3.705418    0.791643   -0.100867
 H   -5.163545    0.371749   -1.016986
 H   -3.588458   -0.857899   -2.375481
 H   -1.765467    0.688608    4.255946
 H    0.050531    2.311721    2.877221
 H    2.370154    3.285688   -1.500822
 H   -0.982673    4.778462   -0.925970
 H    0.102538    3.803979   -1.926868
 H   -0.176945    1.368916   -1.883424
 H   -1.788062    0.827754   -1.896536
 H   -0.954094    0.792340   -0.488032
 H    1.483054   -1.207564   -1.930597
 H    0.754563   -1.711005   -0.401700
 H    1.210959   -2.926839   -1.610870
