30 
5jf2_ligand_xtb.xyz
 O   -2.158964   -2.491073    0.447798
 C   -2.051907   -1.275102    0.440024
 N   -2.572439   -0.533137   -0.546452
 O   -3.090696   -1.209136   -1.656566
 C   -1.396900   -0.472640    1.553453
 C   -0.009072    0.077704    1.174287
 C    0.792004   -0.944152    0.342531
 C    2.273639   -0.594333    0.237614
 C    3.039768   -1.646282   -0.562120
 C    4.519485   -1.301957   -0.674556
 C   -0.094383    1.362759    0.435483
 O    0.852830    2.285830    0.608036
 N    0.546276    3.333925   -0.199855
 C   -0.549812    2.984111   -0.795887
 N   -0.991320    1.754180   -0.428039
 H   -2.289398    0.426985   -0.735938
 H   -3.053839   -2.148982   -1.382582
 H   -1.279661   -1.152484    2.398118
 H   -2.057175    0.344263    1.846853
 H    0.550894    0.284859    2.092906
 H    0.359781   -1.013542   -0.658101
 H    0.681470   -1.920415    0.817623
 H    2.702301   -0.521825    1.240020
 H    2.397359    0.378619   -0.243103
 H    2.927506   -2.618344   -0.077388
 H    2.607830   -1.724000   -1.562260
 H    4.652383   -0.345390   -1.175151
 H    5.045345   -2.063628   -1.244761
 H    4.972871   -1.237228    0.312020
 H   -1.057573    3.600718   -1.506956
