30 
5jf3_ligand_xtb.xyz
 N   -2.570291   -0.528898   -0.548709
 O   -3.090821   -1.206906   -1.656466
 C   -2.055988   -1.269829    0.441728
 O   -2.170276   -2.485110    0.454048
 C   -1.397920   -0.467526    1.553558
 C   -0.008360    0.077326    1.173081
 C    0.789139   -0.947980    0.342245
 C    2.271534   -0.601139    0.238590
 C    3.035785   -1.648270   -0.569164
 C    4.517692   -1.309747   -0.669705
 C   -0.090222    1.362139    0.433386
 O    0.851420    2.288897    0.616172
 N   -0.979764    1.750457   -0.439129
 N    0.548889    3.336254   -0.194168
 C   -0.539614    2.982340   -0.801726
 H   -2.281229    0.428616   -0.742617
 H   -3.060084   -2.145612   -1.377913
 H   -2.055114    0.352249    1.846064
 H   -1.282954   -1.146425    2.399305
 H    0.552834    0.283928    2.091030
 H    0.357286   -1.016859   -0.658524
 H    0.675816   -1.923608    0.817881
 H    2.396973    0.375130   -0.235003
 H    2.700684   -0.537072    1.241314
 H    2.608487   -1.712505   -1.572200
 H    2.916420   -2.625094   -0.095756
 H    4.966479   -1.261461    0.319980
 H    5.042981   -2.065423   -1.248378
 H    4.657453   -0.346615   -1.155551
 H   -1.042720    3.597143   -1.517581
