33 
5jf8_ligand_dft.xyz
 C   -1.117243   -2.016479   -0.490139
 O   -1.016318   -1.906173   -1.699522
 N   -1.945682   -1.272567    0.287747
 O   -1.811137   -1.384249    1.659706
 C   -2.732085   -0.167556   -0.195186
 C   -2.086761    1.203554    0.086852
 C   -2.928063    2.329562   -0.504441
 N   -0.729941    1.270428   -0.426933
 C    0.325040    0.769528    0.266448
 O    0.263911    0.378279    1.430288
 O    1.426959    0.803857   -0.483842
 C    2.648500    0.114135   -0.072963
 C    3.565925    0.325001   -1.274045
 C    3.233420    0.768489    1.176263
 C    2.358918   -1.372584    0.126568
 H   -0.552528   -2.742642    0.117978
 H   -1.070194   -0.769722    1.867314
 H   -2.841672   -0.317977   -1.272957
 H   -3.721515   -0.211429    0.271742
 H   -2.010572    1.337414    1.169418
 H   -2.479273    3.301466   -0.283971
 H   -3.013729    2.225987   -1.592869
 H   -3.939119    2.310081   -0.086750
 H   -0.601653    1.336952   -1.427127
 H    3.127478   -0.115379   -2.174324
 H    4.535090   -0.148438   -1.090031
 H    3.728128    1.392614   -1.450300
 H    4.206244    0.317375    1.397835
 H    2.576021    0.632207    2.035548
 H    3.382831    1.839784    1.008042
 H    3.302174   -1.910318    0.265429
 H    1.733956   -1.539440    1.006272
 H    1.854473   -1.779177   -0.756133
