91 
5jfp_ligand_dft.xyz
 C   -6.908735   -0.744045   -0.194668
 C   -6.071464   -0.366501   -1.247704
 C   -4.852859   -1.016037   -1.424647
 C   -4.476307   -2.035019   -0.558872
 C   -5.316461   -2.423844    0.488925
 C   -6.525458   -1.781024    0.668798
 S   -2.881821   -2.796211   -0.716525
 O   -2.985148   -4.166874   -0.250338
 O   -2.391068   -2.484344   -2.057719
 N   -1.876475   -1.997545    0.326595
 C   -1.874001   -2.353951    1.746573
 C   -0.454420   -2.497436    2.312243
 C   -0.534455   -2.695102    3.827259
 C    0.293882   -3.646485    1.637658
 C   -1.467366   -0.634809   -0.022581
 C   -0.081623   -0.593676   -0.683681
 O   -0.133255   -0.770129   -2.078835
 C    0.651400    0.722453   -0.415634
 N    2.041432    0.579907   -0.822577
 C    2.974828    0.181102    0.077852
 O    2.832289    0.171415    1.287473
 O    4.116807   -0.177854   -0.553069
 C    5.187716   -0.575288    0.296218
 C    5.015423   -1.968401    0.909872
 O    6.339871   -2.334904    1.251608
 C    7.189410   -1.902904    0.229001
 O    7.391200   -2.922112   -0.724830
 C    7.369511   -2.345335   -2.017101
 C    6.298870   -1.259091   -1.941720
 C    6.480605   -0.731090   -0.510560
 C    0.002374    1.933557   -1.098060
 C    0.164459    3.277246   -0.370137
 C    1.635785    3.588694   -0.024601
 C    1.751714    4.961905    0.656113
 C    0.929375    4.953946    1.954421
 C   -0.545103    4.669395    1.626904
 C   -1.080197    5.762503    0.688535
 C   -0.258331    5.769261   -0.609656
 C   -0.369665    4.396695   -1.288343
 C   -0.659149    3.300674    0.935697
 C    1.215941    6.053785   -0.282651
 O   -8.105400   -0.179904    0.070734
 C   -8.556456    0.864659   -0.767293
 H   -6.355510    0.418268   -1.938458
 H   -4.203734   -0.744540   -2.250485
 H   -5.027441   -3.240863    1.141743
 H   -7.202294   -2.066854    1.466451
 H   -2.393329   -3.309313    1.857061
 H   -2.434272   -1.594423    2.313453
 H    0.095425   -1.563875    2.125097
 H   -1.086623   -3.610914    4.072698
 H   -1.037188   -1.853680    4.317583
 H    0.467234   -2.784975    4.258704
 H    0.321479   -3.523433    0.550884
 H    1.324183   -3.704602    2.003771
 H   -0.198405   -4.603676    1.847159
 H   -1.459489   -0.053194    0.906594
 H   -2.205533   -0.166068   -0.683198
 H    0.516305   -1.390408   -0.215116
 H   -0.729005   -1.515454   -2.264888
 H    0.682372    0.863897    0.667919
 H    2.208837    0.343919   -1.791155
 H    5.303953    0.161973    1.094199
 H    4.579481   -2.659516    0.173320
 H    4.410257   -1.970186    1.815925
 H    8.144111   -1.642716    0.698443
 H    8.352783   -1.916320   -2.267167
 H    7.146630   -3.138309   -2.734728
 H    5.307687   -1.702877   -2.068568
 H    6.416996   -0.480506   -2.698828
 H    7.082883    0.180262   -0.496487
 H   -1.071528    1.747011   -1.226894
 H    0.406638    2.015092   -2.114499
 H    2.241735    3.564485   -0.940307
 H    2.037666    2.816464    0.642851
 H    2.804767    5.160163    0.889038
 H    1.317083    4.189023    2.639847
 H    1.020139    5.922022    2.464471
 H   -1.132570    4.658171    2.553143
 H   -1.017381    6.742529    1.179414
 H   -2.139678    5.580704    0.463495
 H   -0.642563    6.542016   -1.286636
 H    0.197367    4.397428   -2.229646
 H   -1.418014    4.189512   -1.547450
 H   -0.308768    2.518219    1.622617
 H   -1.713217    3.082353    0.709037
 H    1.314154    7.040005    0.190048
 H    1.807067    6.078121   -1.207736
 H   -7.866910    1.717546   -0.748920
 H   -9.521923    1.172743   -0.366031
 H   -8.685245    0.520228   -1.800640
