91 
5jfp_ligand_xtb.xyz
 C   -6.903033   -0.353355   -0.684044
 C   -5.940532   -0.250485   -1.687128
 C   -4.765358   -0.977901   -1.589506
 C   -4.549675   -1.801153   -0.503483
 C   -5.497361   -1.911480    0.500522
 C   -6.669244   -1.194053    0.411882
 S   -3.015980   -2.700471   -0.338620
 O   -3.271438   -3.975209    0.256755
 O   -2.340536   -2.661869   -1.611835
 N   -2.127576   -1.804670    0.727075
 C   -2.123686   -2.127981    2.132280
 C   -0.705592   -2.356869    2.677253
 C   -0.755432   -2.517314    4.194147
 C   -0.086585   -3.587419    2.021856
 C   -1.705106   -0.495435    0.293996
 C   -0.359536   -0.550513   -0.464887
 O   -0.541196   -0.650418   -1.852828
 C    0.530425    0.679622   -0.184573
 N    1.854944    0.402726   -0.699907
 C    2.831202   -0.059809    0.104867
 O    2.809634   -0.043321    1.311813
 O    3.885287   -0.502477   -0.630504
 C    5.004690   -0.938489    0.118813
 C    4.850872   -2.369456    0.667831
 O    6.178607   -2.809281    0.862836
 C    6.943299   -2.342029   -0.202023
 O    6.971679   -3.272330   -1.259869
 C    6.913609   -2.565947   -2.480043
 C    5.998028   -1.366439   -2.222665
 C    6.268130   -1.050410   -0.747784
 C   -0.040950    1.954137   -0.807628
 C    0.432596    3.280302   -0.185145
 C    1.959442    3.388882   -0.158195
 C    2.381007    4.743459    0.412335
 C    1.852312    4.876576    1.839127
 C    0.327654    4.787735    1.820564
 C   -0.239302    5.916439    0.962080
 C    0.293843    5.778914   -0.462250
 C   -0.127761    4.427985   -1.037022
 C   -0.097300    3.436422    1.244592
 C    1.817993    5.871408   -0.449442
 O   -8.083852    0.305771   -0.673348
 C   -8.405927    1.151020   -1.754937
 H   -6.095546    0.383780   -2.544865
 H   -4.016607   -0.924890   -2.364390
 H   -5.307693   -2.574848    1.328867
 H   -7.430539   -1.263740    1.172082
 H   -2.697175   -3.050579    2.229651
 H   -2.624129   -1.331991    2.701232
 H   -0.093527   -1.481182    2.436308
 H   -1.375631   -3.368919    4.464816
 H   -1.165848   -1.627058    4.665868
 H    0.245115   -2.681030    4.585261
 H   -0.169563   -3.521693    0.939466
 H    0.963477   -3.675279    2.290181
 H   -0.607875   -4.486711    2.341536
 H   -1.616770    0.150206    1.170228
 H   -2.467694   -0.076155   -0.372198
 H    0.184566   -1.434336   -0.093239
 H   -1.117888   -1.422582   -2.010167
 H    0.644010    0.781421    0.897793
 H    1.915950    0.204476   -1.687004
 H    5.164986   -0.246569    0.954309
 H    4.329804   -2.994123   -0.069720
 H    4.333850   -2.411046    1.624909
 H    7.962941   -2.183451    0.179444
 H    7.922206   -2.229382   -2.763940
 H    6.537974   -3.251723   -3.239589
 H    4.955270   -1.648129   -2.357548
 H    6.223556   -0.527154   -2.875538
 H    6.912251   -0.179981   -0.632280
 H   -1.128296    1.912660   -0.731596
 H    0.207774    1.942403   -1.869901
 H    2.355587    3.269981   -1.168929
 H    2.376996    2.597124    0.463213
 H    3.475181    4.803800    0.422431
 H    2.263374    4.078972    2.461479
 H    2.164343    5.832351    2.266366
 H   -0.055992    4.879961    2.843371
 H    0.052669    6.883359    1.377883
 H   -1.330995    5.869851    0.957493
 H   -0.116736    6.581851   -1.085659
 H    0.238738    4.336106   -2.061983
 H   -1.218371    4.364346   -1.066471
 H    0.295813    2.640651    1.879552
 H   -1.188104    3.361626    1.244526
 H    2.129576    6.838574   -0.048463
 H    2.204203    5.790660   -1.468104
 H   -7.692876    1.975884   -1.845524
 H   -9.392517    1.551439   -1.528588
 H   -8.447548    0.597086   -2.697316
