92 
5jfu_ligand_dft.xyz
 C   -4.977211    2.180027   -0.501231
 C   -2.942900    0.914853   -0.712124
 C   -2.909690    3.312309   -1.031349
 C   -4.270532    3.358029   -0.790380
 O   -0.185005    0.621687   -1.567318
 N    0.197605    2.352461    0.240860
 C   -0.228752    1.602557    1.423653
 C    0.863620    0.807491    2.160324
 O    0.336796    0.428279    3.413872
 C   -0.596300   -1.825489    1.273591
 O   -5.410194   -2.049697   -0.590628
 C   -4.833769   -2.317666   -1.857937
 C   -3.417756   -2.825980   -1.564474
 C   -3.561285   -3.480998   -0.179194
 C    2.546748   -0.019895    0.409660
 O   -6.296726    2.321606   -0.274678
 C   -7.038351    1.161060    0.064918
 C   -4.309650    0.952768   -0.465913
 C   -2.245989    2.083858   -0.989657
 S   -0.492910    2.010935   -1.229975
 O   -0.091684    3.077701   -2.135287
 C    0.854695    3.648551    0.447709
 C    3.079535    3.649450    1.654614
 C    4.463890    3.488703    1.668037
 C    5.143584    3.229703    0.482461
 C    4.435818    3.138803   -0.715290
 C    3.055002    3.293202   -0.724681
 C    2.364590    3.541769    0.463606
 C    1.420226   -0.409562    1.374830
 N    0.369408   -1.128058    0.654958
 O   -0.685763   -2.023536    2.480330
 O   -1.499740   -2.299230    0.381781
 C   -2.635916   -2.953669    0.940353
 C   -3.536411   -2.002681    1.743901
 O   -4.844531   -2.528000    1.594027
 C   -4.968492   -3.047439    0.314205
 C    3.481617   -1.127037   -0.109521
 C    2.762064   -2.175451   -0.984541
 C    3.765247   -3.198119   -1.542553
 C    4.460485   -3.915156   -0.373970
 C    5.204530   -2.885026    0.490886
 C    6.257752   -2.167283   -0.367091
 C    5.562309   -1.452423   -1.535720
 C    4.557508   -0.436759   -0.977686
 C    4.197793   -1.861750    1.041655
 C    4.818539   -2.481416   -2.400019
 H   -2.415484   -0.033023   -0.684691
 H   -2.362412    4.218720   -1.269505
 H   -4.814529    4.295681   -0.823110
 H   -0.658125    2.303748    2.149208
 H   -1.033738    0.916596    1.146666
 H    1.703537    1.474898    2.374879
 H   -0.086122   -0.442408    3.311099
 H   -4.853484   -1.387776   -2.431692
 H   -5.428930   -3.072568   -2.392504
 H   -3.066968   -3.531808   -2.320537
 H   -2.706058   -2.000135   -1.538322
 H   -3.489567   -4.568003   -0.247750
 H    2.112869    0.506491   -0.447629
 H    3.172567    0.718051    0.926368
 H   -7.009624    0.415407   -0.737292
 H   -8.062985    1.500053    0.216742
 H   -6.659844    0.703098    0.985996
 H   -4.832469    0.024107   -0.262813
 H    0.541444    4.327818   -0.347607
 H    0.491043    4.055402    1.398887
 H    2.550887    3.848115    2.584467
 H    5.007318    3.566193    2.604990
 H    6.221947    3.100716    0.488997
 H    4.961868    2.938413   -1.643871
 H    2.499824    3.208779   -1.655332
 H    1.812133   -1.088018    2.140100
 H    0.213800   -0.868355   -0.313596
 H   -2.290736   -3.770661    1.577240
 H   -3.461284   -0.984767    1.337026
 H   -3.301247   -1.979656    2.806695
 H   -5.709333   -3.853140    0.358386
 H    2.238551   -1.669020   -1.808110
 H    2.000909   -2.698962   -0.395322
 H    3.227207   -3.930957   -2.156168
 H    3.719293   -4.451036    0.233688
 H    5.166585   -4.664086   -0.756643
 H    5.696347   -3.394044    1.328816
 H    6.990406   -2.891701   -0.747053
 H    6.809340   -1.440516    0.244028
 H    6.308782   -0.928096   -2.145033
 H    4.068138    0.102525   -1.800804
 H    5.081292    0.316872   -0.374850
 H    3.467615   -2.383433    1.674604
 H    4.713320   -1.131006    1.680976
 H    4.335233   -1.980452   -3.249147
 H    5.527648   -3.210320   -2.814844
