57 
5jic_ligand_dft.xyz
 O    0.812567   -1.517957   -2.554965
 P   -0.396326   -0.969342   -1.691771
 O   -1.313583   -2.256673   -1.607440
 O   -1.055546    0.284879   -2.131499
 O    0.216949   -0.718363   -0.222132
 C    0.564129   -1.811496    0.634171
 C    1.581403   -1.337103    1.669078
 C    1.082465   -0.072208    2.375673
 C    1.754766   -2.459486    2.703332
 C    2.970802   -1.117779    0.993046
 O    3.470556   -2.330001    0.498474
 C    2.969051   -0.116283   -0.173386
 O    3.038536   -0.554977   -1.334029
 N    2.969578    1.187102    0.105301
 C    2.866764    2.208773   -0.927162
 C    1.425486    2.442289   -1.358826
 C    0.552878    2.847354   -0.177565
 O    1.037610    3.323071    0.848497
 N   -0.774829    2.690858   -0.374828
 C   -1.747501    3.120004    0.614458
 C   -1.997727    2.099959    1.731936
 C   -2.453553    0.735993    1.211605
 C   -3.876374    0.722694    0.632576
 C   -4.037167   -0.265661   -0.519490
 O   -3.506313   -1.558147   -0.243105
 C   -4.175452   -2.284518    0.761885
 H    1.671830   -1.134498   -2.258439
 H   -2.182821   -2.057605   -1.177697
 H   -0.349376   -2.160117    1.129547
 H    0.983874   -2.638409    0.051443
 H    0.848229    0.736583    1.680670
 H    1.822924    0.287509    3.100965
 H    0.164550   -0.295089    2.931319
 H    0.805449   -2.657140    3.213508
 H    2.104784   -3.380924    2.232411
 H    2.488681   -2.167413    3.462377
 H    3.653381   -0.739628    1.768954
 H    3.493983   -2.222856   -0.469024
 H    2.807476    1.492481    1.054928
 H    3.473197    1.889699   -1.776707
 H    3.288893    3.125692   -0.513011
 H    1.396840    3.253958   -2.096280
 H    1.012153    1.560430   -1.853825
 H   -1.062875    2.061536   -1.121004
 H   -2.675915    3.349678    0.080362
 H   -1.381477    4.052256    1.051988
 H   -1.065088    1.986477    2.294077
 H   -2.740709    2.517368    2.425300
 H   -1.740101    0.411341    0.450648
 H   -2.382339   -0.005477    2.017214
 H   -4.141256    1.707236    0.226494
 H   -4.609200    0.525379    1.425045
 H   -5.093221   -0.367039   -0.810082
 H   -3.465143    0.081656   -1.383810
 H   -5.244685   -2.382413    0.529389
 H   -3.722141   -3.276984    0.793444
 H   -4.064275   -1.809130    1.744652
