43 
5jmp_ligand_xtb.xyz
 O   -2.603407    1.870461   -1.847583
 C   -2.487427    1.728226   -0.641295
 N   -3.371632    2.281494    0.211023
 O   -3.334433    2.011493    1.571625
 C   -4.573819    2.937860   -0.237159
 C   -1.332753    0.973077   -0.009296
 C   -0.899378   -0.202061   -0.886664
 C   -2.102618   -1.080275   -1.228240
 P   -3.181055   -1.568572    0.155300
 O   -2.270492   -2.535340    1.039898
 O   -4.215229   -2.596343   -0.530576
 O   -3.917971   -0.573864    0.962861
 C    0.206933   -1.019832   -0.217060
 C    1.540948   -0.280839   -0.137541
 C    2.637646   -1.178717    0.449091
 C    3.954594   -0.459731    0.470468
 C    4.811035   -0.539261   -0.619674
 C    4.320401    0.327988    1.555536
 C    5.519107    1.019243    1.560570
 C    6.378872    0.940100    0.478874
 C    6.003773    0.157090   -0.596583
 F    6.831021    0.065696   -1.661378
 H   -3.683438    1.099140    1.682109
 H   -4.481940    3.093618   -1.309057
 H   -4.678094    3.893887    0.275739
 H   -5.446326    2.314980   -0.023584
 H   -1.602270    0.616454    0.983822
 H   -0.509869    1.683350    0.096575
 H   -0.521329    0.199420   -1.833738
 H   -2.751662   -0.548921   -1.927532
 H   -1.785673   -2.009522   -1.700886
 H   -2.697081   -2.736930    1.874307
 H   -5.072394   -2.186554   -0.640857
 H   -0.111861   -1.307457    0.786221
 H    0.355287   -1.938980   -0.788613
 H    1.446866    0.609505    0.485625
 H    1.839764    0.042343   -1.137064
 H    2.720551   -2.083487   -0.155836
 H    2.355769   -1.470019    1.462628
 H    4.561433   -1.139523   -1.481044
 H    3.659929    0.396173    2.407356
 H    5.789522    1.623790    2.413051
 H    7.319255    1.467128    0.460560
