46 
5jnl_ligand_dft.xyz
 O    2.881241    2.475572    1.663949
 C    2.984478    2.132220    0.490185
 N    4.111341    2.390261   -0.228692
 O    4.168631    2.108452   -1.584349
 C    5.180997    3.234554    0.243331
 C    1.896797    1.319870   -0.191637
 C    1.499808    0.101967    0.659540
 C    2.718817   -0.744979    1.083976
 P    3.755163   -1.472013   -0.192978
 O    2.814862   -2.628813   -0.805585
 O    4.381364   -0.590631   -1.218339
 O    4.879716   -2.283707    0.641105
 C    0.389432   -0.685208   -0.047698
 C   -0.142374   -1.884457    0.735433
 C   -1.361287   -2.543022    0.067530
 C   -2.565270   -1.633860    0.002288
 C   -2.957223   -1.029960   -1.193510
 C   -4.044921   -0.164976   -1.238114
 C   -3.294495   -1.346587    1.159871
 C   -4.381899   -0.484936    1.126976
 C   -4.758539    0.109539   -0.075849
 C   -5.972005    0.994880   -0.126967
 F   -5.881189    1.914973   -1.102697
 F   -6.161901    1.651635    1.030293
 F   -7.092923    0.286825   -0.361448
 H    4.405266    1.156114   -1.613931
 H    6.141301    2.724954    0.116678
 H    5.199396    4.173329   -0.320428
 H    5.000866    3.438586    1.298380
 H    1.023117    1.974899   -0.284788
 H    2.184147    1.019858   -1.199535
 H    1.096485    0.491609    1.601769
 H    2.410755   -1.569405    1.736007
 H    3.391307   -0.120587    1.683362
 H    3.190816   -2.997709   -1.617573
 H    5.761294   -1.965256    0.403257
 H   -0.434470    0.013655   -0.239977
 H    0.740239   -1.027098   -1.030541
 H   -0.411691   -1.570532    1.753552
 H    0.640191   -2.645625    0.830025
 H   -1.084688   -2.862641   -0.944470
 H   -1.622323   -3.451197    0.623985
 H   -2.401369   -1.236730   -2.104314
 H   -4.333187    0.300700   -2.174499
 H   -3.005523   -1.806555    2.101663
 H   -4.935059   -0.270157    2.035176
