46 
5jo0_ligand_dft.xyz
 O   -2.969989    1.686543   -0.883100
 P   -1.868927    1.703924    0.121527
 O   -0.506209    2.281205   -0.541618
 O   -2.119001    2.670181    1.383832
 C   -1.425932    0.182043    0.973582
 C   -1.167969   -1.074086    0.113164
 C   -2.422647   -1.536561   -0.651091
 C   -3.616223   -1.638651    0.281400
 N   -4.697315   -0.858560   -0.010043
 C   -5.942755   -0.943477    0.714746
 O   -4.824712   -0.280669   -1.265510
 O   -3.568566   -2.309594    1.306628
 C    0.010346   -0.938888   -0.860057
 C    1.344785   -0.568125   -0.216543
 C    2.483928   -0.497948   -1.242239
 C    3.798164   -0.104157   -0.612187
 C    4.051466    1.228055   -0.279494
 C    5.243453    1.582260    0.342709
 C    6.195452    0.611214    0.637539
 C    5.966984   -0.727328    0.313834
 C    4.762751   -1.064237   -0.306779
 C    7.009259   -1.780101    0.598674
 H   -0.627384    2.383839   -1.495547
 H   -2.484698    3.525222    1.116693
 H   -2.238164   -0.024210    1.678865
 H   -0.546854    0.418439    1.582403
 H   -0.928428   -1.859661    0.839237
 H   -2.236517   -2.541169   -1.046146
 H   -2.628447   -0.882861   -1.498528
 H   -5.745325   -1.444499    1.661767
 H   -6.680938   -1.514111    0.140288
 H   -6.330882    0.063132    0.893546
 H   -4.327493    0.562644   -1.188298
 H   -0.235011   -0.201297   -1.637485
 H    0.120965   -1.896843   -1.385829
 H    1.269610    0.407232    0.277121
 H    1.601233   -1.299780    0.560968
 H    2.585794   -1.468407   -1.743571
 H    2.214380    0.230026   -2.018914
 H    3.306944    1.988101   -0.506280
 H    5.433063    2.621028    0.597955
 H    7.125874    0.894299    1.123914
 H    4.570701   -2.105892   -0.559532
 H    7.760964   -1.813466   -0.198971
 H    6.561284   -2.775773    0.671863
 H    7.535876   -1.576334    1.536475
