67 
5jr6_ligand_dft.xyz
 C    1.929047   -1.778112   -0.214361
 C    1.281880   -3.164057   -0.407555
 N    1.527843   -0.940245   -1.382388
 O    1.699038   -3.664770   -1.643261
 C   -0.256869   -3.041232   -0.436570
 C    3.455548   -1.849373   -0.117365
 C    4.088414   -0.485317    0.041440
 C    4.035602    0.175984    1.271478
 C    4.602550    1.435346    1.425342
 C    5.223921    2.058058    0.342072
 C    5.265066    1.416538   -0.892701
 C    4.702713    0.150086   -1.038887
 O   -0.823879   -3.269287   -1.499086
 N   -0.896197   -2.593562    0.663538
 C   -2.235934   -2.022168    0.556764
 C   -2.157545   -0.736576   -0.293971
 O   -1.088541   -0.419258   -0.838578
 C   -2.646857   -1.775028    2.033455
 C   -1.631232   -2.569957    2.862282
 C   -0.364086   -2.478450    2.019685
 N   -3.242225    0.035455   -0.414319
 C   -3.204051    1.255413   -1.256099
 C   -2.516925    2.408457   -0.482791
 O   -3.147806    3.287953    0.081190
 C   -4.677090    1.536689   -1.541533
 C   -5.394985    0.997747   -0.302413
 C   -4.606918   -0.264012    0.057296
 N   -1.165967    2.328040   -0.502987
 C   -0.291560    3.151136    0.297779
 C    1.136871    2.735338   -0.066364
 O    1.367084    1.618736   -0.532062
 C   -0.509840    2.945003    1.806371
 N    2.108799    3.619135    0.200307
 H    1.522185   -1.265523    0.658766
 H    1.612156   -3.817363    0.411586
 H    1.804230   -1.417191   -2.245058
 H    0.495019   -0.802943   -1.364024
 H    1.931762    0.007808   -1.308970
 H    0.873686   -3.882373   -2.122098
 H    3.844443   -2.363011   -1.003225
 H    3.698214   -2.482183    0.743711
 H    3.568188   -0.310266    2.125007
 H    4.576137    1.925412    2.393713
 H    5.696543    3.028252    0.468114
 H    5.755315    1.889465   -1.737801
 H    4.769509   -0.358217   -1.998302
 H   -2.903917   -2.729729    0.054309
 H   -2.573544   -0.708086    2.270539
 H   -3.671112   -2.093980    2.229377
 H   -1.939818   -3.615519    2.952175
 H   -1.498378   -2.161335    3.866038
 H    0.127059   -1.507182    2.176160
 H    0.354111   -3.274098    2.229017
 H   -2.631672    1.032596   -2.160717
 H   -4.856121    2.601414   -1.693915
 H   -4.985777    0.992286   -2.439557
 H   -6.450048    0.779140   -0.477493
 H   -5.319129    1.730027    0.505457
 H   -4.621647   -0.457391    1.129836
 H   -4.989795   -1.147844   -0.466620
 H   -0.751188    1.473050   -0.858553
 H   -0.454525    4.206350    0.050713
 H   -0.321668    1.898104    2.067836
 H   -1.542995    3.197789    2.051951
 H    0.157215    3.579707    2.397316
 H    3.070026    3.333668    0.060880
 H    1.916294    4.541335    0.559034
