69 
5js3_ligand_dft.xyz
 C    2.990313   -0.982806   -0.161597
 C    2.937454    0.515792   -0.521992
 C   -0.390454    4.171063   -0.229562
 C   -1.049756    3.663826   -1.523602
 C    0.573981    5.318116   -0.569296
 C   -1.501029    4.716749    0.682710
 C    0.692523    3.257740    1.946313
 O    3.662792    1.004335   -1.378671
 C    5.517209   -0.941242    0.359358
 C    5.250762   -0.883202    1.866582
 C    6.818573   -1.692929    0.069585
 N    1.964131   -1.694119   -0.942045
 N    1.988028    1.210161    0.146897
 C    1.605559    2.547467   -0.277332
 C    0.344312    2.991216    0.475706
 C    4.364140   -1.591711   -0.419577
 P    0.384903   -1.758225   -0.429532
 O   -0.398807   -1.397445   -1.779400
 C   -0.033729   -3.524414   -0.107968
 C   -4.617315   -2.501234    0.504884
 C   -4.410815   -1.008983    0.367784
 C   -3.342530   -0.354316    0.978100
 C   -3.194994    1.023306    0.840840
 C   -4.117776    1.760001    0.106031
 C   -5.188301    1.109479   -0.503344
 C   -5.329908   -0.267583   -0.376157
 O    0.110431   -0.965340    0.805496
 N   -1.287714   -3.661936    0.611733
 C   -2.442704   -3.236209    0.040685
 O   -3.437724   -3.188697    0.936528
 O   -2.565024   -2.941193   -1.141144
 H    2.720712   -1.106728    0.890886
 H   -1.588776    4.478856   -2.021130
 H   -1.767666    2.863088   -1.311197
 H   -0.317780    3.274585   -2.238299
 H    1.325559    5.012028   -1.304666
 H    1.098761    5.683623    0.320698
 H    0.021652    6.163229   -0.996163
 H   -2.120562    5.436825    0.135752
 H   -2.157145    3.913072    1.038719
 H   -1.094628    5.230144    1.559950
 H   -0.201775    3.346162    2.569512
 H    1.296119    2.438707    2.350206
 H    1.275752    4.179438    2.057188
 H    5.625011    0.083817   -0.012583
 H    4.406508   -0.229122    2.111146
 H    6.126264   -0.493403    2.397039
 H    5.036098   -1.882469    2.268102
 H    6.767541   -2.721733    0.448940
 H    7.672525   -1.202143    0.549030
 H    7.017829   -1.740839   -1.006683
 H    2.085729   -1.613080   -1.945593
 H    1.293866    0.662056    0.651486
 H    2.434711    3.236326   -0.077574
 H    1.453400    2.545605   -1.362399
 H   -0.354688    2.141693    0.448039
 H    4.303732   -2.660472   -0.173632
 H    4.580513   -1.513148   -1.491854
 H   -1.292560   -1.809959   -1.775209
 H   -0.078670   -4.083831   -1.046397
 H    0.762293   -3.956560    0.502042
 H   -4.962998   -2.930004   -0.439564
 H   -5.348810   -2.727912    1.284251
 H   -2.601425   -0.910801    1.542600
 H   -2.349716    1.514457    1.313390
 H   -3.999805    2.834138   -0.002055
 H   -5.907252    1.674454   -1.089071
 H   -6.158762   -0.771795   -0.868121
 H   -1.252657   -3.597711    1.618716
