48 
5jt9_ligand_xtb.xyz
 C    0.531218    3.177203   -0.540835
 C   -0.489687    3.478923    0.343524
 C   -0.415757    3.053933    1.660570
 C    2.769587    2.164506   -1.065529
 C    2.593936   -0.159953   -1.056859
 C    2.370455   -2.490108   -0.749869
 C   -3.648135    0.264943   -0.750441
 C   -5.042996   -0.086497   -1.266687
 C   -3.169921    1.565031   -1.392728
 C   -1.568657   -1.054364    1.191254
 O    0.656441   -3.530592    0.895019
 P    0.860217   -2.078398    0.249947
 C    1.641997    2.463608   -0.111149
 C    0.687086    2.332204    2.090226
 C    1.713778    2.043481    1.210175
 N   -0.491221   -1.893388   -0.741649
 C   -1.350266   -0.808380   -0.294710
 C   -2.684309   -0.888578   -1.046435
 O   -1.637940   -2.179648    1.649238
 N   -1.768344    0.045791    1.941998
 O    1.087290   -1.017234    1.244855
 N    3.223482   -1.331079   -0.807203
 O    1.476421   -0.100320   -1.518275
 O    3.379461    0.899544   -0.817655
 H    0.465847    3.499075   -1.570132
 H   -1.345032    4.045465    0.005246
 H   -1.211408    3.297259    2.351038
 H    2.406024    2.197303   -2.098606
 H    3.581361    2.887849   -0.941605
 H    2.095416   -2.804978   -1.759094
 H    2.879361   -3.308420   -0.244285
 H   -3.705632    0.404098    0.333820
 H   -5.015429   -0.270368   -2.338638
 H   -5.421165   -0.978914   -0.774347
 H   -5.736234    0.729693   -1.076937
 H   -3.150817    1.464120   -2.475914
 H   -2.170420    1.826063   -1.055955
 H   -3.841583    2.382008   -1.138058
 H   -0.177168   -3.510171    1.382756
 H    0.751096    1.993026    3.112893
 H    2.568342    1.477883    1.546144
 H   -0.250054   -1.788586   -1.717592
 H   -0.869108    0.166894   -0.441869
 H   -2.471947   -0.912373   -2.117882
 H   -3.151513   -1.837947   -0.776789
 H   -1.790365   -0.091278    2.941315
 H   -1.446629    0.943052    1.613038
 H    4.033015   -1.293776   -0.208285
