49 
5jv1_ligand_dft.xyz
 C   -4.468015   -0.543894    0.409286
 C   -5.517730    0.344863    0.596010
Cl   -7.077089   -0.309841    1.052081
 C   -5.367630    1.726600    0.440961
 C   -6.509322    2.684315    0.642053
 C   -4.097805    2.180372    0.075750
 C   -3.034405    1.312114   -0.126220
 C   -3.206505   -0.064391    0.048009
 C   -2.067040   -0.973947   -0.144513
 S   -2.270144   -2.528148   -0.936329
 C   -0.773308   -0.736491    0.202513
 C    0.103661   -1.805466   -0.171266
 C   -0.561918   -2.854802   -0.810238
 N    0.018996   -3.951828   -1.308775
 C    1.336311   -3.956165   -1.172187
 N    2.112363   -3.025714   -0.598348
 C    1.507162   -1.962983   -0.068841
 N    2.270749   -1.023322    0.559230
 C    3.678526   -0.870213    0.260778
 P    4.473569    0.082270    1.600243
 O    3.388900    1.228589    1.983421
 O    5.823154    0.593837    1.280673
 O    4.342961   -0.914504    2.849330
 C    3.928737   -0.207616   -1.121346
 C    3.280825    1.151490   -1.237263
 C    1.915383    1.257966   -1.516937
 C    1.314025    2.506633   -1.502676
 F   -0.004432    2.589491   -1.753926
 C    2.017151    3.669462   -1.230871
 C    3.382045    3.562479   -0.976662
 C    4.011258    2.318724   -0.978784
 H   -4.633134   -1.605290    0.564434
 H   -6.177665    3.716105    0.500398
 H   -6.931823    2.591951    1.648078
 H   -7.320665    2.484178   -0.066117
 H   -3.947016    3.246521   -0.068920
 H   -2.073403    1.697592   -0.451786
 H   -0.470078    0.169730    0.715528
 H    1.859421   -4.817306   -1.580071
 H    1.799455   -0.182800    0.862102
 H    4.133138   -1.864333    0.253217
 H    3.532223    2.014489    1.430935
 H    4.930372   -0.651023    3.571660
 H    5.007886   -0.132996   -1.282054
 H    3.523903   -0.892836   -1.873308
 H    1.313968    0.384061   -1.748838
 H    1.505384    4.625148   -1.233128
 H    3.960217    4.459694   -0.777852
 H    5.073672    2.243664   -0.764194
