49 
5jv1_ligand_xtb.xyz
 C   -4.645323   -0.311274    0.178612
 C   -5.686681    0.578560    0.347564
Cl   -7.257984   -0.047230    0.717620
 C   -5.506959    1.955881    0.229486
 C   -6.647067    2.903134    0.413805
 C   -4.226281    2.402998   -0.071611
 C   -3.172205    1.529448   -0.245540
 C   -3.363014    0.151520   -0.120135
 C   -2.268814   -0.782761   -0.293737
 S   -2.587486   -2.510318   -0.385686
 C   -0.937338   -0.505273   -0.401802
 C   -0.139219   -1.662698   -0.560167
 C   -0.899863   -2.843751   -0.571819
 N   -0.387490   -4.061682   -0.702782
 C    0.920327   -4.098877   -0.821134
 N    1.761899   -3.075052   -0.818149
 C    1.257355   -1.850242   -0.689254
 N    2.099978   -0.790106   -0.746753
 C    3.510727   -0.966697   -0.564690
 P    3.869573   -0.876417    1.248737
 O    2.953186    0.349903    1.718164
 O    5.261796   -0.814043    1.702918
 O    3.049437   -2.105989    1.877289
 C    4.340678    0.058311   -1.339862
 C    4.061809    1.449300   -0.852035
 C    2.942372    2.136695   -1.306644
 C    2.663016    3.387960   -0.791046
 F    1.559164    4.034576   -1.226189
 C    3.468442    3.990854    0.156402
 C    4.591807    3.307450    0.589401
 C    4.886003    2.048489    0.093347
 H   -4.823602   -1.370785    0.280960
 H   -6.313290    3.932724    0.319238
 H   -7.098464    2.764287    1.395352
 H   -7.419087    2.711579   -0.330660
 H   -4.054786    3.464447   -0.174614
 H   -2.198715    1.923095   -0.489853
 H   -0.534534    0.490477   -0.357208
 H    1.366817   -5.078204   -0.929631
 H    1.736193    0.089314   -0.407629
 H    3.753568   -1.980644   -0.900016
 H    3.355395    0.767651    2.480934
 H    3.593418   -2.889632    1.951481
 H    5.392310   -0.184521   -1.184566
 H    4.104286   -0.030436   -2.402240
 H    2.296614    1.715685   -2.062633
 H    3.217566    4.969352    0.532850
 H    5.241814    3.761826    1.321332
 H    5.759243    1.521618    0.444940
