63 
5jxn_ligand_dft.xyz
 C    3.835239    1.980836   -0.880768
 C    2.967661    3.006468   -1.243626
 C    1.801737    2.720677   -1.950760
 C    4.545271   -0.435722   -0.893539
 C    3.157224   -1.949056    0.227827
 C    1.128936   -3.178785    0.813984
 C    1.090352    1.714785    2.249430
 C    1.734062    3.086787    2.460117
 C    0.562086    1.143008    3.565766
 C   -1.708873    0.654297   -0.293789
 C   -5.917941    0.150159   -1.931610
 O   -1.548711   -2.368227    1.089857
 P   -0.282252   -2.102667    0.362943
 C    3.559856    0.660829   -1.238885
 C    1.507466    1.403821   -2.291873
 C    2.388401    0.381128   -1.946255
 N    0.251345   -0.537322    0.612816
 C   -0.723035    0.498345    0.877853
 C   -0.012136    1.825810    1.186031
 O   -1.492319    0.180766   -1.412765
 N   -2.834243    1.340381   -0.014842
 C   -3.974500    1.355131   -0.920766
 C   -4.665810   -0.011363   -1.066254
 C   -4.954563   -0.685665    0.285540
 C   -5.810855    0.131223    1.255321
 O   -0.281304   -2.313156   -1.243745
 N    2.284699   -2.962746   -0.031793
 O    3.252990   -1.339288    1.270651
 O    3.921500   -1.715607   -0.872136
 H    4.734308    2.208757   -0.313387
 H    3.196919    4.030621   -0.963768
 H    1.118189    3.519287   -2.222898
 H    5.022820   -0.237886    0.069482
 H    5.316516   -0.517502   -1.663854
 H    1.399520   -2.965788    1.849684
 H    0.811377   -4.222895    0.746844
 H    1.859204    1.029936    1.872337
 H    1.004207    3.809849    2.847319
 H    2.556534    3.025004    3.180874
 H    2.136400    3.482142    1.520625
 H    1.349818    1.135323    4.326242
 H    0.214798    0.112347    3.442985
 H   -0.269863    1.747159    3.952469
 H   -5.668723    0.566021   -2.914498
 H   -6.405786   -0.816828   -2.091816
 H   -6.649720    0.821486   -1.466244
 H    0.582793    1.165123   -2.806641
 H    2.156719   -0.643889   -2.221134
 H    1.010423   -0.224140    0.015735
 H   -1.307065    0.181171    1.749228
 H   -0.762875    2.558730    1.512680
 H    0.423331    2.215551    0.257830
 H   -3.005201    1.568438    0.953561
 H   -3.626739    1.696378   -1.900158
 H   -4.677007    2.105612   -0.543416
 H   -3.965970   -0.662687   -1.601952
 H   -4.004688   -0.953434    0.763309
 H   -5.456899   -1.639724    0.084539
 H   -6.788545    0.380226    0.828834
 H   -5.328949    1.075318    1.539740
 H   -5.986681   -0.429474    2.178470
 H   -0.731320   -1.524943   -1.621808
 H    2.182604   -3.209677   -1.006002
