57 
5jyy_ligand_dft.xyz
 N    2.815503    2.539640    0.310934
 C   -4.838083    1.389774    1.584067
 C   -4.830214   -0.592210   -1.465851
 C   -2.502879   -1.258608   -1.341688
 C   -1.941946    2.912302    0.237813
 C    1.000436   -0.613758   -0.824898
 C    1.145539    0.704857   -0.025575
 C    2.461915    1.372814   -0.476273
 C    3.567469    0.359220   -0.430581
 C    3.308445   -0.951247   -0.435307
 O    2.080277   -1.498546   -0.534254
 C   -0.252558   -1.477172   -0.629894
 C   -0.492670   -2.053890    0.786670
 C    0.069117   -3.467941    0.922062
 O   -0.157071   -3.949848    2.225301
 O   -1.325375   -0.649927   -1.086135
 O    0.082661   -1.309822    1.839977
 C    2.374748    3.802355   -0.017466
 N    2.876892    4.771658    0.839215
 N    1.569751    3.990302   -1.005409
 O   -4.935114    1.079745    0.211883
 C   -5.184530   -0.289926   -0.017586
 N   -3.426192   -0.323705   -1.719938
 O   -2.694635   -2.453818   -1.258552
 N    0.066575    1.649763   -0.228169
 O   -1.284298    0.998486    1.497969
 C   -1.015545    1.762935    0.567626
 C    4.414789   -1.945730   -0.314626
 O    3.974768   -3.209766   -0.328057
 O    5.581334   -1.645165   -0.209877
 H    3.011904    2.374615    1.288551
 H   -4.772831    2.477521    1.664735
 H   -3.935334    0.946115    2.025735
 H   -5.726189    1.047314    2.135245
 H   -5.022146   -1.642865   -1.691143
 H   -5.433438    0.025755   -2.137116
 H   -2.145273    3.467777    1.156999
 H   -2.895755    2.500214   -0.108330
 H   -1.538252    3.591583   -0.516982
 H    1.045576   -0.357917   -1.894557
 H    1.218763    0.450747    1.033369
 H    2.335438    1.743222   -1.501310
 H    4.596859    0.691164   -0.372272
 H   -0.160892   -2.321665   -1.323030
 H   -1.578066   -2.119762    0.929888
 H    1.140393   -3.462344    0.673770
 H   -0.450611   -4.133029    0.226149
 H    0.079134   -3.207813    2.801226
 H   -0.439449   -0.485244    1.920255
 H    3.836734    4.643217    1.130159
 H    2.668084    5.725468    0.582965
 H    1.456130    4.978711   -1.213375
 H   -6.240652   -0.528257    0.185767
 H   -4.561874   -0.913672    0.642740
 H   -3.141609    0.629301   -1.540514
 H    0.291540    2.443988   -0.828359
 H    4.759532   -3.771124   -0.223982
