156 
5jzi_ligand_dft.xyz
 N   -0.918581    1.126971   -1.219956
 C   -0.174932    0.346671   -2.257709
 C   -1.101014   -0.663468   -2.932908
 O   -1.119861   -0.759277   -4.144250
 C    1.078895   -0.269752   -1.642240
 C    1.997591   -0.899917   -2.694571
 C    3.407583   -1.045473   -2.127221
 C    4.434957   -1.557129   -3.124466
 N    5.805706   -1.295901   -2.574652
 N   -1.887390   -1.412274   -2.097983
 C   -3.232619   -1.741533   -2.541328
 C   -4.141631   -0.578864   -2.098922
 O   -3.677518    0.424623   -1.549216
 C   -3.714917   -3.098596   -2.008705
 C   -2.736975   -4.256215   -2.254677
 C   -2.275778   -4.333834   -3.712663
 C   -3.391123   -5.573326   -1.827487
 N   -5.468055   -0.708820   -2.292123
 C   -6.369398    0.119174   -1.507243
 C   -6.039378   -0.138633   -0.026801
 O   -5.729942   -1.273404    0.343327
 C   -7.844932   -0.185164   -1.848985
 C   -8.275579   -1.614279   -1.499764
 C   -8.772895    0.834251   -1.182365
 N   -6.084682    0.923368    0.798950
 C   -5.872045    0.899043    2.248497
 C   -4.420284    0.645150    2.685473
 O   -3.968888    1.240863    3.661705
 C   -6.806489   -0.078916    2.970945
 N   -3.722790   -0.292842    2.006575
 C   -2.468142   -0.819755    2.520124
 C   -1.319769    0.145267    2.182892
 O   -0.517557   -0.066012    1.257224
 C   -2.195853   -2.218641    1.977827
 C   -3.307145   -3.251074    2.227063
 C   -2.805179   -4.628775    1.789151
 C   -3.772145   -3.276741    3.684834
 N   -1.245409    1.209922    2.990821
 C   -0.274383    2.251302    2.805202
 C   -0.535900    3.104121    1.560852
 O   -1.487153    2.921345    0.816357
 N    0.399313    4.075331    1.373155
 C    0.509502    4.795087    0.108693
 C    1.488640    3.954464   -0.715131
 O    1.092046    3.029214   -1.421186
 C    0.845272    6.279503    0.301694
 C   -0.180383    6.958542    1.229743
 C    0.963203    6.972459   -1.059820
 C   -1.639905    6.852985    0.784547
 N    2.819124    4.180168   -0.523466
 C    3.742562    3.079663   -0.690503
 C    3.636814    2.162235    0.559311
 O    2.966638    2.488503    1.534276
 C    5.163011    3.597648   -0.971504
 C    6.006488    2.660822   -1.826971
 O    5.666282    1.493030   -2.055803
 N    7.141020    3.182209   -2.309410
 N    4.290919    0.994858    0.455700
 C    4.257022   -0.042899    1.466272
 C    5.300890   -1.082169    1.031184
 O    6.120533   -0.831616    0.144983
 C    2.855485   -0.648411    1.635318
 N    5.264439   -2.263277    1.666706
 C    6.229473   -3.320646    1.442111
 C    5.984265   -4.000733    0.093785
 O    6.634660   -5.155389   -0.000253
 C    6.266661   -4.300408    2.635626
 C    4.933755   -5.029674    2.837668
 C    6.720513   -3.585165    3.910879
 O    5.329838   -3.537395   -0.819786
 H   -0.783621    0.738978   -0.263104
 H   -1.942323    1.138920   -1.388321
 H   -0.537892    2.085920   -1.188321
 H    0.108399    1.054293   -3.037808
 H    1.609802    0.539351   -1.126526
 H    0.797543   -1.001978   -0.876423
 H    2.030144   -0.256008   -3.582474
 H    1.597452   -1.864911   -3.025504
 H    3.409621   -1.709154   -1.255031
 H    3.728940   -0.057776   -1.787331
 H    4.368900   -1.037499   -4.083476
 H    4.350496   -2.632232   -3.289610
 H    6.535887   -1.702884   -3.161205
 H    5.891790   -1.690013   -1.620193
 H    5.970598   -0.276351   -2.480581
 H   -1.828635   -1.191083   -1.110548
 H   -3.198512   -1.765213   -3.634396
 H   -3.940944   -3.015659   -0.937327
 H   -4.664903   -3.346489   -2.501438
 H   -1.853037   -4.082118   -1.625338
 H   -1.642588   -5.213845   -3.864641
 H   -1.702564   -3.452956   -4.019620
 H   -3.135590   -4.430809   -4.387752
 H   -4.212622   -5.832763   -2.505909
 H   -3.801886   -5.515723   -0.814337
 H   -2.668497   -6.394887   -1.853871
 H   -5.817980   -1.609872   -2.582400
 H   -6.161788    1.165351   -1.753127
 H   -7.921911   -0.051987   -2.935818
 H   -8.228466   -1.793996   -0.421755
 H   -9.306565   -1.774504   -1.827299
 H   -7.664009   -2.383121   -1.985326
 H   -9.800729    0.685439   -1.523924
 H   -8.769745    0.724401   -0.092068
 H   -8.489086    1.864049   -1.427476
 H   -6.233885    1.829266    0.380080
 H   -6.088508    1.909860    2.598365
 H   -6.653953    0.010647    4.049641
 H   -7.847735    0.167519    2.746054
 H   -6.613134   -1.108414    2.664193
 H   -4.229469   -0.837461    1.311665
 H   -2.545727   -0.860131    3.613112
 H   -1.990150   -2.160002    0.901198
 H   -1.265358   -2.572979    2.439445
 H   -4.173308   -2.993411    1.602593
 H   -2.004118   -4.977429    2.452470
 H   -2.406174   -4.603702    0.768500
 H   -3.608708   -5.371017    1.820106
 H   -2.930169   -3.457509    4.364807
 H   -4.252984   -2.337509    3.979459
 H   -4.501141   -4.077970    3.839877
 H   -2.072236    1.384795    3.567127
 H    0.727964    1.818795    2.712423
 H   -0.276240    2.890511    3.692431
 H    1.259056    3.974974    1.901975
 H   -0.457067    4.702375   -0.388736
 H    1.818245    6.364249    0.812903
 H    0.100533    8.014637    1.312901
 H   -0.082058    6.532977    2.234410
 H    0.033477    6.885321   -1.631421
 H    1.768602    6.544247   -1.666286
 H    1.174300    8.037259   -0.927564
 H   -2.000569    5.818520    0.801041
 H   -1.792216    7.253197   -0.223188
 H   -2.276873    7.429884    1.460747
 H    3.052706    4.843519    0.203704
 H    3.397340    2.508111   -1.555351
 H    5.076409    4.556935   -1.493314
 H    5.707902    3.792536   -0.038974
 H    7.755473    2.610451   -2.871013
 H    7.410767    4.140299   -2.142813
 H    4.930703    0.854803   -0.321925
 H    4.581728    0.380299    2.426376
 H    2.104546    0.141278    1.673077
 H    2.774135   -1.210254    2.571547
 H    2.604434   -1.314325    0.805777
 H    4.541963   -2.430805    2.350507
 H    7.218935   -2.853400    1.343489
 H    6.477337   -5.528933   -0.883494
 H    7.022673   -5.047753    2.379093
 H    5.039191   -5.782246    3.623626
 H    4.604111   -5.545901    1.930166
 H    4.129682   -4.354465    3.159057
 H    6.836293   -4.309029    4.722130
 H    7.683178   -3.083565    3.769354
 H    5.993762   -2.834984    4.243442
