63 
5jzy_ligand_xtb.xyz
 C    4.808100    0.474904    1.136195
 C    5.945424   -0.488802    0.815937
 C    5.839654   -0.966170   -0.628321
 N   -1.015361   -2.015825   -0.133369
 C    4.484167   -1.620823   -0.878409
 C   -0.577747   -1.060239   -0.950289
 N   -3.854731   -0.668990   -0.797768
 C   -0.340579   -2.628038    0.998604
 C   -1.456891   -3.333462    1.765040
 C   -2.423406   -3.738561    0.654913
 C   -2.383443   -2.532656   -0.277959
 N    0.632620    4.305125    1.421679
 C   -3.332308   -1.415616    0.198766
 C   -4.463347    0.616717   -0.481111
 C   -3.326022    1.562898   -0.202594
 N    1.405249    2.925003   -0.266152
 O   -1.265761   -0.629839   -1.874844
 C    0.792779   -0.400145   -0.692229
 C    1.993953   -1.335094   -0.856389
 C    3.340074   -0.652148   -0.565912
 C    3.455803   -0.189695    0.888041
 N    0.905770    0.744350   -1.609707
 O   -3.561537   -1.218711    1.372520
 C   -2.860281    1.736652    1.096505
 C   -1.665469    2.390085    1.331796
 C   -0.906756    2.857456    0.260385
 C    0.443244    3.395056    0.475579
 C   -1.403680    2.742956   -1.038427
 C   -2.608802    2.111301   -1.261865
 H    4.874314    0.797067    2.177057
 H    4.900142    1.361719    0.503088
 H    6.905430    0.003149    0.976773
 H    5.892548   -1.347227    1.488135
 H    6.635255   -1.680259   -0.842687
 H    5.964714   -0.116141   -1.303304
 H    4.419615   -1.947252   -1.918360
 H    4.388850   -2.505280   -0.245076
 H   -3.422841   -0.744823   -1.709743
 H    0.382545   -3.367544    0.637756
 H    0.177207   -1.879341    1.600725
 H   -1.087955   -4.183020    2.334016
 H   -1.954249   -2.637260    2.438238
 H   -2.071578   -4.630170    0.135739
 H   -3.428103   -3.915698    1.030094
 H   -2.579309   -2.778535   -1.324674
 H    1.545022    4.691717    1.611350
 H   -0.150917    4.675984    1.934462
 H   -5.070825    0.936273   -1.327582
 H   -5.089265    0.481336    0.402447
 H    2.347514    3.269235   -0.146736
 H    0.755537   -0.013777    0.335354
 H    1.898464   -2.190459   -0.191706
 H    1.998722   -1.714207   -1.882211
 H    3.452896    0.224789   -1.213774
 H    3.353650   -1.052810    1.549131
 H    2.657791    0.516882    1.131519
 H    1.220668    2.032983   -0.904556
 H   -0.000646    0.807349   -2.090493
 H    1.595187    0.540220   -2.328432
 H   -3.417602    1.320784    1.920820
 H   -1.292014    2.479028    2.341298
 H   -0.843850    3.157271   -1.862513
 H   -2.980171    2.009321   -2.269875
