63 
5k0i_ligand_xtb.xyz
 O    1.685235   -2.876234    0.028543
 C    4.668767    1.318240    0.773471
 O    1.170032   -5.580297   -0.088861
 C    5.017502    1.786369   -0.500531
 C    2.342959    1.687090    0.301310
 N   -1.186419    1.844458    0.367992
 C    4.048602    2.209557   -1.368132
 C    0.351589    2.532281   -1.390671
 C    1.641863    2.605803   -1.817256
 C    2.697751    2.170362   -0.984235
 O   -3.409678   -1.610211   -0.937464
 C   -2.684449   -0.893711   -0.273764
 N   -1.342578   -0.950327   -0.369534
 C   -0.684831   -1.861142   -1.287657
 C    0.720631   -1.359975   -1.619263
 C    1.648553   -1.541944   -0.416696
 C    0.409566   -3.339428    0.446614
 C    0.625518   -4.781620    0.924715
 C   -0.600236   -3.276620   -0.699604
 C   -3.263654    0.111370    0.728323
 C   -3.630410    1.447803    0.042291
 C   -4.536580    1.202020   -1.169035
 C   -4.416390    2.339955    1.011821
 C   -2.343136    2.142432   -0.447000
 C   -2.364032    0.349241    1.950193
 C   -1.413654    1.543786    1.762491
 C    0.086083    1.999078   -0.095525
 C    3.363026    1.260640    1.190467
 C    2.991997    0.747708    2.546468
 N    1.060945    1.606116    0.704785
 H    5.452976    0.994681    1.443518
 H    1.927281   -5.096753   -0.443987
 H    6.058200    1.812767   -0.787964
 H    4.302535    2.577395   -2.352322
 H   -0.448181    2.893426   -2.015163
 H    1.875639    3.007399   -2.793986
 H   -0.763524   -0.335032    0.176206
 H   -1.305406   -1.900750   -2.192068
 H    0.699253   -0.306978   -1.904012
 H    1.108573   -1.938512   -2.458851
 H    1.332511   -0.886409    0.407867
 H    2.676872   -1.285403   -0.681538
 H    0.056819   -2.724482    1.292433
 H    1.289913   -4.766844    1.801068
 H   -0.328012   -5.231828    1.206795
 H   -1.585292   -3.578234   -0.344493
 H   -0.285079   -3.973021   -1.478139
 H   -4.200058   -0.349858    1.059372
 H   -4.081618    0.517130   -1.878206
 H   -5.479489    0.766455   -0.848930
 H   -4.745017    2.141992   -1.676401
 H   -5.298077    1.813197    1.369439
 H   -4.748346    3.238023    0.494396
 H   -3.831623    2.645757    1.872298
 H   -2.515419    3.228312   -0.493719
 H   -2.140446    1.786569   -1.461207
 H   -2.990476    0.536490    2.823185
 H   -1.798131   -0.560808    2.158515
 H   -0.438292    1.338948    2.205510
 H   -1.821921    2.435776    2.254007
 H    2.614835   -0.272212    2.469752
 H    2.204479    1.362985    2.974686
 H    3.853971    0.746253    3.208724
