36 
5k1f_ligand_dft.xyz
 P   -0.255322    2.322844   -0.637698
 O    0.465114    3.654948   -1.171450
 O   -1.289341    1.695868   -1.472174
 O   -0.706765    2.783168    0.824981
 O    1.006046    1.353554   -0.475277
 C    2.197718    1.638777    0.253249
 C    2.899990    0.321989    0.562367
 O    2.183015   -0.426414    1.553184
 C    3.034945   -0.639304   -0.620848
 O    4.109640   -1.507043   -0.363419
 C    1.704772   -1.397431   -0.573842
 O    1.852620   -2.690614   -1.092450
 C    1.371096   -1.383633    0.940681
 N   -0.033051   -1.014286    1.164704
 C   -0.477385   -0.032267    2.000221
 N   -1.741763    0.273245    1.818794
 C   -2.154269   -0.571517    0.816300
 C   -3.428091   -0.656796    0.142586
 O   -4.460000   -0.051989    0.324118
 N   -3.342187   -1.649828   -0.879618
 C   -2.248620   -2.384101   -1.204366
 N   -1.101054   -2.308046   -0.600477
 C   -1.108099   -1.373777    0.397940
 H   -0.159717    4.384786   -1.276811
 H   -1.338095    2.141685    1.221286
 H    1.956737    2.153022    1.189409
 H    2.843820    2.280732   -0.354808
 H    3.884022    0.541247    0.985386
 H    3.162492   -0.108243   -1.573893
 H    3.882537   -2.351664   -0.779972
 H    0.951637   -0.831308   -1.123545
 H    0.949098   -3.034880   -1.186439
 H    1.558652   -2.362241    1.390810
 H    0.190756    0.454745    2.693501
 H   -4.189958   -1.759789   -1.421965
 H   -2.370734   -3.081801   -2.027154
