51 
5k4j_ligand_dft.xyz
 C   -3.489831    2.359947   -0.265252
 C   -3.623604    3.655277    0.269655
 C   -4.563185   -0.639014   -0.515631
 C   -4.666891   -2.810541   -1.104293
 C   -0.553524   -0.733220    0.287465
 C   -0.374779   -3.067648   -0.482763
 C    3.102237   -1.842902    0.508819
 C    3.848945   -0.310061   -1.325407
 C    4.928030    1.801614   -0.919544
 C   -6.844083    2.560236    1.066113
 N   -5.479350    2.700813    0.618513
 C   -4.718172    1.776394   -0.024092
 N   -4.823310    3.868589    0.791873
 N   -5.258309    0.528260   -0.317240
 N   -5.323450   -1.672203   -0.923730
 C   -3.298308   -2.949414   -0.892804
 C   -2.612094   -1.810295   -0.470180
 N   -3.255546   -0.648434   -0.288848
 C   -1.155576   -1.817341   -0.202461
 C    0.901442   -0.641685    0.577548
 N    1.660044   -1.839546    0.234617
 C    1.116222   -3.013111   -0.198318
 O    1.792816   -4.018850   -0.377056
 C    3.405042   -2.272770    1.941478
 O    2.814603   -1.376795    2.869527
 C    3.750705   -0.548752    0.048696
 C    4.428744    0.854440   -1.809061
 C    4.830798    1.562897    0.446214
 C    4.244864    0.404802    0.935518
 F    5.299702    2.465130    1.310674
Cl    5.660921    3.266489   -1.496548
 H   -2.640993    1.903708   -0.746115
 H   -2.885640    4.445627    0.292661
 H   -5.264052   -3.657879   -1.435322
 H   -1.142374    0.154549    0.499390
 H   -0.758861   -3.913624    0.100744
 H   -0.471816   -3.369465   -1.533439
 H    3.501537   -2.649220   -0.113624
 H    3.463916   -1.046527   -2.025122
 H   -7.552975    2.626287    0.232368
 H   -6.973829    1.602519    1.578486
 H   -7.040203    3.374752    1.762412
 H   -6.232911    0.467797   -0.574413
 H   -2.807380   -3.900553   -1.052992
 H    1.315727    0.211962    0.024256
 H    1.055532   -0.420233    1.640692
 H    4.497095   -2.316341    2.071260
 H    3.002992   -3.286251    2.065804
 H    2.892591   -1.760455    3.749877
 H    4.507462    1.035558   -2.875497
 H    4.159403    0.271003    2.007574
