31 
5k5c_ligand_xtb.xyz
 C    3.923905    0.861285   -0.062520
 C    2.457303    1.316625   -0.002253
 C    1.513299    0.109600    0.030828
 C    2.116536   -1.072974   -0.717151
 N    0.190194    0.453020   -0.577711
 C   -0.635413    1.423829    0.177687
 C   -2.085872    1.367287   -0.267106
 S   -2.711887   -0.287889    0.153260
 O   -4.077683   -0.311783   -0.628125
 O   -1.780836   -1.203558   -0.467680
 O   -2.917740   -0.406946    1.551171
 C    3.348143   -1.582826    0.047531
 C    4.107994   -0.432589    0.721291
 H    4.560695    1.644298    0.345980
 H    4.228933    0.698608   -1.096253
 H    2.244123    1.933375   -0.878445
 H    2.304481    1.931699    0.884881
 H    1.312807   -0.194726    1.061388
 H    2.405734   -0.760398   -1.721646
 H    1.384502   -1.876495   -0.809578
 H   -0.408240   -0.428773   -0.638868
 H    0.352381    0.786221   -1.533780
 H   -0.225442    2.430508    0.057407
 H   -0.591333    1.152905    1.236713
 H   -2.216033    1.494534   -1.337570
 H   -2.688951    2.091236    0.270470
 H   -4.826828   -0.658800   -0.135229
 H    4.000648   -2.102128   -0.652945
 H    3.039758   -2.305255    0.802545
 H    3.749951   -0.285105    1.741228
 H    5.166344   -0.679733    0.782760
