31 
5k6a_ligand_xtb.xyz
 C   -0.154634    1.364524    0.654027
 C    1.300253    1.715892    0.403503
 O    1.734400    2.839418    0.524346
 C    2.124833    0.549229    0.063999
 C    3.516345    0.673621    0.030114
 C    4.319825   -0.427590   -0.191725
 O    5.676736   -0.349233   -0.230112
 C    3.725626   -1.679218   -0.377176
 C    2.355651   -1.812000   -0.362619
 C    1.535805   -0.702276   -0.153833
 O    0.197681   -0.901664   -0.178129
 C   -0.609220    0.262642   -0.306092
 C   -2.042092   -0.117266   -0.031124
 C   -3.063241    0.440140   -0.781233
 C   -4.388639    0.121763   -0.504329
 O   -5.355464    0.694347   -1.268102
 C   -4.684752   -0.761707    0.526701
 C   -3.660127   -1.317908    1.270996
 C   -2.343010   -0.997020    1.001256
 H   -0.781277    2.249561    0.544226
 H   -0.240879    1.007851    1.685265
 H    3.937491    1.655585    0.197627
 H    5.955010    0.562802   -0.083247
 H    4.363287   -2.533150   -0.540309
 H    1.890011   -2.772099   -0.517107
 H   -0.513428    0.634670   -1.339858
 H   -2.854557    1.124063   -1.588925
 H   -6.224598    0.387724   -0.982607
 H   -5.715039   -1.013559    0.740526
 H   -3.894485   -2.005811    2.069428
 H   -1.544090   -1.437548    1.576164
