59 
5k76_ligand_xtb.xyz
 C   -4.919263    1.521802    0.644538
 C   -3.292864    2.796464    0.119611
 N   -0.703725    2.366132   -0.588563
 C   -1.470241    1.302091   -0.341310
 C   -2.798704    1.428954    0.014037
 C   -3.905084    0.620021    0.371495
 C   -3.953065   -0.878075    0.389857
 C   -3.851903   -1.454894   -1.031294
 C   -3.905335   -2.979950   -0.977333
 C   -5.207056   -2.961182    0.964552
 C   -5.233961   -1.434362    1.014844
 C    2.746851    0.605139    0.651652
 C    3.302358   -0.726350    0.165731
 C    2.684022   -1.135935   -1.167965
 C    1.166721   -1.256869   -1.008266
 N    4.814840   -0.730514    0.052191
 C    5.505313   -0.851406    1.357535
 C    6.893521    0.207420   -0.853318
 N   -4.567208    2.817894    0.506435
 N   -2.510479    3.856122   -0.138431
 C   -1.286178    3.567537   -0.483311
 O   -5.073920   -3.458823   -0.349645
 N   -0.840462    0.040174   -0.482734
 C    0.591655    0.076653   -0.531517
 C    1.234169    0.466726    0.812259
 C    7.010597   -1.012017    1.119426
 O    7.526738    0.071419    0.392977
 C    5.387595    0.424911   -0.679679
 H   -5.925432    1.292302    0.958123
 H   -3.102058   -1.266444    0.978219
 H   -2.927055   -1.130257   -1.510340
 H   -4.693171   -1.083669   -1.619185
 H   -3.017867   -3.360863   -0.438573
 H   -3.914821   -3.413062   -1.981412
 H   -6.140507   -3.385427    1.343392
 H   -4.372937   -3.336417    1.584520
 H   -6.094885   -1.074054    0.450787
 H   -5.333012   -1.103333    2.049870
 H    2.927926    1.392523   -0.079317
 H    3.195563    0.892059    1.604808
 H    3.063511   -1.497690    0.906782
 H    3.100506   -2.092288   -1.501252
 H    2.884296   -0.382913   -1.931359
 H    0.926891   -2.043170   -0.288501
 H    0.713882   -1.526795   -1.961214
 H    5.046599   -1.570846   -0.494675
 H    5.114805   -1.711448    1.903048
 H    5.316400    0.056456    1.932496
 H    7.078202   -0.681299   -1.478397
 H    7.345297    1.075914   -1.333866
 H   -0.628255    4.406665   -0.699294
 H   -1.224148   -0.646837    0.152543
 H    0.825345    0.868445   -1.252866
 H    0.806696    1.423383    1.110925
 H    0.993824   -0.278108    1.575036
 H    7.204938   -1.958730    0.589314
 H    7.542720   -1.026319    2.071374
 H    5.217499    1.326371   -0.090065
 H    4.901066    0.526363   -1.649116
