18 
5k8o_ligand_xtb.xyz
 O   -3.333792   -0.552330    0.014679
 C   -2.225162   -1.002290    0.003154
 O   -2.042121   -2.331306   -0.007152
 C   -0.987021   -0.149121    0.000215
 C    0.294022   -0.680104    0.002336
 C    1.410727    0.144434    0.001384
 N    2.720838   -0.447987    0.000958
 O    3.675095    0.298468    0.008459
 O    2.786817   -1.660035   -0.007650
 C    1.275544    1.529114   -0.000046
 C    0.013389    2.072087   -0.002234
 C   -1.128778    1.260070   -0.003010
 O   -2.344515    1.794093   -0.007540
 H   -1.118251   -2.611109   -0.017655
 H    0.487208   -1.744685    0.006218
 H    2.159275    2.148160    0.000260
 H   -0.111083    3.146127   -0.003700
 H   -2.311205    2.761170   -0.008989
