34 
5k8s_ligand_xtb.xyz
 P    3.383724    0.952860   -0.092508
 O    4.876543    0.730015   -0.529778
 O    2.860967    2.310418   -0.200154
 O    3.375232    0.324419    1.391906
 C    2.112374   -0.037612    1.929748
 C    1.505438   -1.040360    0.961547
 O    0.220316   -1.518898    1.267708
 C    1.345892   -0.368418   -0.402484
 O    2.609914   -0.150046   -0.996816
 C    0.462332   -1.386589   -1.123243
 O    1.198931   -2.457368   -1.640182
 C   -0.417659   -1.894369    0.049678
 N   -1.742291   -1.356497    0.032265
 C   -2.911852   -2.035900    0.272014
 N   -3.966360   -1.288140    0.286302
 C   -3.501431   -0.015308    0.060266
 C   -4.121210    1.244322   -0.034772
 N   -5.446781    1.415999    0.084415
 N   -3.351434    2.312328   -0.263570
 C   -2.047044    2.149892   -0.395968
 N   -1.348161    1.030489   -0.330920
 C   -2.105996   -0.040434   -0.094368
 H    5.280622    1.578014   -0.714674
 H    2.301886   -0.470355    2.914573
 H    1.463625    0.839721    2.024749
 H    2.208888   -1.884331    0.854993
 H    0.790946    0.574917   -0.296920
 H   -0.156061   -0.923328   -1.902932
 H    2.020211   -2.099399   -2.004432
 H   -0.492332   -2.989760   -0.004498
 H   -2.922687   -3.097634    0.420566
 H   -6.027195    0.625985    0.298822
 H   -5.823683    2.345661    0.043761
 H   -1.475167    3.048707   -0.581816
