29 
5k9w_ligand_xtb.xyz
 N    4.107857   -1.405746    0.295617
 C    2.820794   -2.079130   -0.033709
 C    1.711719   -1.078819    0.018497
 C    1.880203    0.274745    0.010082
 C    3.258106    0.880284   -0.048780
 C    4.273058   -0.163782   -0.507771
 S    0.045761   -1.584295    0.041936
 C   -0.427996    0.073557    0.015965
 C    0.630433    0.966095    0.028835
 C    0.332936    2.418162    0.022152
 O   -0.770843    2.828537   -0.228622
 O    1.320232    3.268309    0.313779
 N   -1.755653    0.380856   -0.007034
 C   -2.665737   -0.610434    0.008810
 C   -4.136857   -0.159931   -0.027635
 O   -4.976080   -1.173617   -0.011426
 O   -4.427237    0.998411   -0.062984
 O   -2.348999   -1.792182    0.052795
 H    4.891036   -2.047987    0.134398
 H    4.101825   -1.151346    1.291263
 H    2.636259   -2.894184    0.670507
 H    2.902502   -2.512699   -1.036141
 H    3.554182    1.262088    0.935379
 H    3.282845    1.708525   -0.759882
 H    4.109284   -0.416410   -1.556760
 H    5.289588    0.214544   -0.389155
 H    2.121337    2.855641    0.652425
 H   -2.018104    1.372761   -0.079103
 H   -4.504886   -2.028129    0.019007
