28 
5ka1_ligand_dft.xyz
 N   45.444310   10.467736   -0.266509
 C   45.691591   10.675247    1.154693
 C   45.270591   12.072875    1.511505
 C   44.459436   12.853084    0.752065
 C   43.900016   12.343206   -0.549519
 C   44.077641   10.826400   -0.632774
 S   45.785001   12.853359    2.973393
 C   44.894345   14.279970    2.558238
 C   44.238563   14.148424    1.345934
 C   43.422337   15.179703    0.697369
 O   43.295814   16.316373    1.436331
 O   42.890519   15.088678   -0.385925
 N   44.883837   15.391269    3.383760
 C   45.543201   15.495542    4.567594
 C   45.299567   16.871928    5.202678
 O   45.932890   17.000089    6.360973
 O   44.609348   17.721966    4.690819
 O   46.234123   14.638068    5.076411
 H   45.622136    9.495498   -0.495196
 H   45.145076    9.957759    1.797233
 H   46.761058   10.534541    1.350023
 H   42.843169   12.605894   -0.641811
 H   44.416199   12.829933   -1.384433
 H   43.893481   10.490049   -1.657266
 H   43.326701   10.338884    0.017804
 H   42.752458   16.923709    0.910394
 H   44.335301   16.188879    3.072386
 H   45.732290   17.888937    6.696831
