29 
5ka3_ligand_xtb.xyz
 N   -4.109831   -1.407570   -0.282351
 C   -2.818265   -2.080977    0.028873
 C   -1.710819   -1.078814   -0.025830
 C   -1.880236    0.274542   -0.014251
 C   -3.258566    0.878061    0.052784
 C   -4.265525   -0.167335    0.525631
 S   -0.044453   -1.582690   -0.052635
 C    0.428233    0.075538   -0.022679
 C   -0.631073    0.966963   -0.033492
 C   -0.336021    2.419493   -0.025758
 O    0.766591    2.831653    0.227152
 O   -1.324530    3.267940   -0.318870
 N    1.755985    0.383016    0.003221
 C    2.665743   -0.608574   -0.012182
 C    4.137170   -0.160506    0.034946
 O    4.429433    0.997328    0.073041
 O    4.974471   -1.175826    0.025492
 O    2.348437   -1.790089   -0.061526
 H   -4.890270   -2.050826   -0.112723
 H   -4.116808   -1.150966   -1.277428
 H   -2.639452   -2.890427   -0.683371
 H   -2.888889   -2.522493    1.028696
 H   -3.564271    1.254118   -0.930628
 H   -3.279307    1.709834    0.759780
 H   -4.084982   -0.421300    1.571611
 H   -5.284398    0.209303    0.422950
 H   -2.122986    2.854292   -0.662735
 H    2.018677    1.374367    0.079143
 H    4.501794   -2.029379   -0.009798
