29 
5ka7_ligand_xtb.xyz
 N    4.051283   -1.391370    0.441381
 C    2.835694   -2.085355   -0.068424
 C    1.704377   -1.109132   -0.083752
 C    1.871443    0.241314   -0.050922
 C    3.221671    0.884128    0.020742
 C    4.307488   -0.130814   -0.313461
 S    0.036163   -1.597804   -0.109929
 C   -0.436447    0.071365   -0.079051
 C    0.631147    0.941079   -0.064947
 C    0.578144    2.423447    0.038764
 O   -0.463463    3.036678   -0.538571
 O    1.427246    3.038162    0.619025
 N   -1.779685    0.360685   -0.020909
 C   -2.693821   -0.634217   -0.001544
 C   -4.141811   -0.127935    0.115393
 O   -5.031641   -1.090415    0.134725
 O   -4.360029    1.049094    0.175248
 O   -2.407766   -1.816016   -0.081210
 H    4.862087   -2.016637    0.388637
 H    3.897415   -1.141407    1.426507
 H    2.599623   -2.940017    0.570387
 H    3.047251   -2.462655   -1.074615
 H    3.364338    1.305962    1.019084
 H    3.276380    1.726362   -0.669130
 H    4.297243   -0.368950   -1.378359
 H    5.290973    0.257684   -0.047098
 H   -0.954104    2.501509   -1.175074
 H   -2.128836    1.305241    0.134664
 H   -4.614235   -1.970750    0.070040
