24 
5kab_ligand_dft.xyz
 N    4.324015   -1.431254   -0.057935
 C    3.107334   -1.953483    0.022910
 C    1.958634   -1.163392    0.022976
 C    2.054721    0.236623   -0.048273
 C    3.346386    0.775056   -0.169227
 C    4.422654   -0.096318   -0.163495
 S    0.304031   -1.727597    0.069599
 C   -0.256642   -0.080457   -0.006838
 C    0.750997    0.860505   -0.024357
 C    0.434156    2.302308    0.029436
 O   -0.654155    2.756347   -0.254059
 O    1.408400    3.129952    0.445507
 N   -1.597492    0.231645   -0.041030
 C   -2.607723   -0.665035    0.030059
 C   -4.005584   -0.029909   -0.055020
 O   -4.963892   -0.940683    0.021202
 O   -4.176511    1.152697   -0.176039
 O   -2.485209   -1.874603    0.146844
 H    3.042127   -3.037835    0.084032
 H    3.523763    1.834949   -0.322411
 H    5.432581    0.294022   -0.258293
 H    2.137571    2.627100    0.833755
 H   -1.816415    1.226069   -0.167499
 H   -4.528437   -1.810572    0.112922
