29 
5kad_ligand_xtb.xyz
 N   -4.162764   -1.275939    0.269714
 C   -2.886273   -2.007452    0.035982
 C   -1.745522   -1.043219    0.078774
 C   -1.863975    0.312044   -0.005548
 C   -3.216459    0.959482   -0.153285
 C   -4.246390   -0.074419   -0.603390
 S   -0.097921   -1.610655    0.181947
 C    0.432163    0.021464    0.088912
 C   -0.588211    0.958183    0.027480
 C   -0.227328    2.389473   -0.006858
 O    0.920954    2.743517   -0.147074
 O   -1.186789    3.301001    0.143101
 N    1.771576    0.292299    0.065397
 C    2.645150   -0.754339    0.068366
 C    4.119565   -0.381430   -0.181823
 O    4.650143    0.484337    0.678070
 O    4.705852   -0.831223   -1.112637
 O    2.236373   -1.891589    0.195332
 H   -4.193196   -0.969872    1.250159
 H   -4.959753   -1.899817    0.104431
 H   -2.939845   -2.496713   -0.942239
 H   -2.759050   -2.785035    0.793254
 H   -3.186957    1.745753   -0.910585
 H   -3.539079    1.403122    0.796039
 H   -5.253142    0.343515   -0.554682
 H   -4.042312   -0.388329   -1.628590
 H   -2.053140    2.944381    0.364874
 H    1.996070    1.284637   -0.094302
 H    4.086877    0.747261    1.418716
