31 
5kap_ligand_dft.xyz
 C   -0.257326    0.788075   -0.754942
 C   -2.205808    1.991501    0.413857
 C   -3.299764    1.282621   -0.404805
 C   -0.888065    1.224040    0.568377
 O    5.080650   -1.647091    0.505992
 C    4.345423   -0.716193    0.263928
 N    4.849620    0.623406    0.247708
 C    4.095530    1.627476   -0.003863
 N    2.747533    1.581829   -0.283805
 C    2.190826    0.329751   -0.288685
 C    2.916130   -0.809147   -0.028801
 N    2.085361   -1.908593   -0.102064
 C    0.912616   -1.426754   -0.397557
 N    0.908627   -0.048073   -0.541997
 P   -3.589077   -0.444010    0.033296
 O   -4.990358   -0.759632   -0.708618
 O   -3.937966   -0.325259    1.604817
 O   -2.535180   -1.439404   -0.285925
 H    0.029401    1.650775   -1.369287
 H   -0.961879    0.190043   -1.335628
 H   -2.597193    2.199668    1.414239
 H   -2.018456    2.964274   -0.057118
 H   -3.066915    1.281876   -1.475686
 H   -4.251364    1.813215   -0.296333
 H   -0.176966    1.846288    1.125242
 H   -1.047479    0.323433    1.170638
 H    4.515328    2.632876   -0.006357
 H    2.223969    2.421680   -0.474049
 H   -0.008688   -1.982199   -0.519861
 H   -4.959611   -1.637652   -1.114236
 H   -3.776504   -1.161250    2.064915
