65 
5kax_ligand_xtb.xyz
 C    1.339620    0.875979    0.196572
 C    1.414762   -0.207660   -0.680229
 C    2.638425   -0.457168   -1.288558
 C    3.775959    0.262049   -0.980627
 C    3.708464    1.287263   -0.017449
 C    2.470687    1.599958    0.537966
 O    0.148982    1.296408    0.727911
 C   -0.969232    1.004363   -0.011541
 C   -1.002544   -0.071173   -0.897903
 C    0.166872   -0.991224   -0.859341
 C   -2.060945    1.844820    0.135293
 C   -3.220196    1.636759   -0.607642
 C   -3.245701    0.585512   -1.545021
 C   -2.145976   -0.239906   -1.668011
 N   -4.346701    2.407070   -0.420197
 C    0.065056   -2.380064   -1.408637
 C    1.194716   -3.178415   -1.885748
 C    2.208741   -3.526789   -1.079543
 C    2.192595   -3.213901    0.322010
 C    1.114189   -2.661735    0.902047
 C   -0.023894   -2.206275    0.115884
 C   -4.467123    0.342941   -2.385094
 C    5.075707   -0.056863   -1.663462
 C   -4.331387    3.639846    0.332284
 C   -5.713732    4.275748    0.304478
 N    4.840754    2.010816    0.284597
 C    4.903810    2.922837    1.403295
 C    6.304739    3.506942    1.512784
 C   -1.370107   -2.282865    0.741325
 O   -2.393835   -2.485921    0.133743
 O   -1.323590   -2.065793    2.063676
 C   -2.571128   -2.062599    2.753111
 C   -3.045056   -3.475342    3.064797
 H    2.702751   -1.232457   -2.034147
 H    2.355984    2.413034    1.234706
 H   -0.874073   -2.597041   -1.905365
 H   -1.981687    2.654499    0.840970
 H   -2.189479   -1.047499   -2.381842
 H   -4.984795    2.413315   -1.200808
 H    1.147394   -3.526571   -2.908085
 H    3.032664   -4.115711   -1.455891
 H    3.029866   -3.535015    0.923439
 H    1.035460   -2.566727    1.973942
 H   -5.338837    0.167896   -1.754818
 H   -4.676393    1.195695   -3.034539
 H   -4.321540   -0.531352   -3.013193
 H    4.921011   -0.812740   -2.428638
 H    5.494222    0.832005   -2.135317
 H    5.808336   -0.444548   -0.952496
 H   -3.588606    4.349247   -0.067321
 H   -4.057155    3.410963    1.367134
 H   -5.992843    4.542491   -0.713240
 H   -6.453268    3.582569    0.697848
 H   -5.724519    5.177661    0.910451
 H    5.707023    1.528203    0.101953
 H    4.633605    2.423804    2.347653
 H    4.186230    3.731425    1.231198
 H    7.032053    2.724696    1.722328
 H    6.579863    3.998050    0.582491
 H    6.345083    4.236808    2.316784
 H   -3.312053   -1.541376    2.137223
 H   -2.384329   -1.497389    3.668813
 H   -3.239297   -4.010719    2.138887
 H   -2.286368   -4.011004    3.630842
 H   -3.961057   -3.433180    3.647359
