13 
5kbh_ligand_xtb.xyz
 C   -0.559802    1.407851   -0.002562
 C    0.762697    1.821324   -0.000087
 C   -0.833060    0.051307   -0.000925
 C    1.793502    0.903151    0.002685
 C    0.184168   -0.887795   -0.000401
 C    1.506911   -0.459778    0.000530
 O    2.541674   -1.335313   -0.000662
Cl   -2.474495   -0.492087    0.001032
 H   -1.365028    2.124384   -0.006044
 H    0.988067    2.876509   -0.000266
 H    2.825206    1.214886    0.005794
 H   -0.051810   -1.942408   -0.001005
 H    2.210098   -2.241750   -0.006168
