63 
5kbq_ligand_xtb.xyz
 C   -4.983439   -1.048499    1.357249
 C   -6.370148   -0.988547    1.437541
 C   -7.110692   -0.185753    0.592496
 C   -2.241193    0.964725    0.415342
 C   -2.250462   -1.394596   -0.110496
 C   -2.887814   -2.594926   -0.480739
 C   -2.064114   -3.655460   -0.776069
 C   -0.227482   -2.387486   -0.415015
 C    2.066343   -1.381853   -0.219770
 C    1.712938   -0.043282   -0.071679
 C    2.677556    0.952465    0.111441
 C    4.025904    0.569214    0.145898
 C    4.355122   -0.758894    0.010935
 C    2.984689    3.157723    1.158336
 C    3.011308    4.588323    0.617214
 C    1.087695    4.199807   -0.609586
 C    1.007469    2.748980   -0.116618
 O    6.835459   -0.211123    0.738558
 S    6.087502   -1.207754    0.017674
 O    6.227618   -2.580792    0.423549
 C    6.553388   -1.093293   -1.738754
 N    2.346749    2.292972    0.184004
 O    1.708220    5.042453    0.330487
 C    3.415847   -1.746040   -0.180903
 N    1.138072   -2.384353   -0.413480
 N   -0.740795   -3.579055   -0.730785
 N   -0.915745   -1.293772   -0.111613
 N   -2.943790   -0.286821    0.241540
 C   -4.351615   -0.285558    0.371350
 C   -4.206537   -1.893740    2.319072
 C   -5.096395    0.534599   -0.468948
 C   -6.474295    0.593614   -0.365873
 C   -7.281162    1.469412   -1.288598
 O   -6.443311    2.382771   -1.959822
 H   -6.874691   -1.574967    2.191809
 H   -8.186670   -0.154891    0.682851
 H   -1.834051    1.321871   -0.533871
 H   -2.931439    1.704976    0.813114
 H   -1.415275    0.820125    1.113551
 H   -3.959387   -2.663526   -0.551052
 H   -2.464497   -4.618417   -1.066971
 H    0.662671    0.186236   -0.079410
 H    4.825811    1.278334    0.276237
 H    2.409002    3.149539    2.097972
 H    3.996438    2.820042    1.368754
 H    3.628415    4.624550   -0.293353
 H    3.418966    5.275327    1.360232
 H    0.086800    4.604417   -0.769811
 H    1.647194    4.224756   -1.557517
 H    0.581653    2.136101   -0.910015
 H    0.357049    2.706015    0.770555
 H    6.405091   -0.070314   -2.057590
 H    7.595410   -1.374582   -1.823560
 H    5.926278   -1.776323   -2.295870
 H    3.734117   -2.772095   -0.268787
 H    1.514208   -3.308278   -0.582642
 H   -4.743875   -1.985120    3.260136
 H   -4.053671   -2.896148    1.917589
 H   -3.226280   -1.462593    2.510529
 H   -4.598949    1.133966   -1.214383
 H   -8.044282    2.002742   -0.701269
 H   -7.807471    0.826495   -2.013820
 H   -6.981360    2.930922   -2.538981
