47 
5kby_ligand_xtb.xyz
 C    1.067350    2.203011   -0.692351
 C    0.996149    1.092270    0.076673
 C    2.524865    0.084311    1.681416
 C    4.562261   -1.113708    0.933207
 C   -1.646040   -1.200770    0.489550
 C   -3.669331   -2.384007   -1.066570
 C   -2.365000   -2.423483   -1.507107
 C   -0.017127   -1.923852   -1.108049
 C   -1.272296    1.678264    0.692724
 C   -2.293086    3.697416   -0.087683
 N   -1.162724    2.783419   -0.094059
 C   -0.055535    3.089322   -0.891704
 O   -0.056418    4.042899   -1.633968
 N    2.084457    0.232532    0.294184
 C    3.308139   -1.218182    1.795376
 C    4.229536   -0.714953   -0.503129
 N    3.678272   -1.879120   -1.259767
 C    3.236328    0.451161   -0.568728
 N   -0.207514    0.764608    0.665301
 C   -0.535320   -0.529300    1.264861
 C   -2.954724   -1.189474    0.931767
 C   -3.943774   -1.774876    0.151847
 F   -5.198755   -1.753572    0.589286
 C   -1.355437   -1.840752   -0.732631
 N    1.113378   -1.995485   -1.314350
 O   -2.245432    1.452796    1.374053
 H    1.979582    2.532577   -1.154264
 H    3.171905    0.927733    1.963030
 H    1.672020    0.090539    2.355761
 H    5.124589   -2.049041    0.945450
 H    5.211433   -0.344684    1.354175
 H   -4.470722   -2.819338   -1.641331
 H   -2.114532   -2.903096   -2.440686
 H   -2.078753    4.486052   -0.805034
 H   -2.423608    4.116490    0.909397
 H   -3.201644    3.164938   -0.365355
 H    3.589769   -1.389998    2.832960
 H    2.682536   -2.052375    1.471930
 H    5.152070   -0.400300   -1.001447
 H    2.575829   -1.915429   -1.211176
 H    3.908226   -1.809419   -2.252987
 H    4.055529   -2.758415   -0.899210
 H    3.779865    1.363893   -0.283433
 H    2.885881    0.567298   -1.596117
 H   -0.868360   -0.362674    2.293436
 H    0.351668   -1.159198    1.247844
 H   -3.222530   -0.705020    1.856825
