45 
5kcb_ligand_dft.xyz
 C    3.094054    1.604582    0.006569
 C    4.285510    0.897234    0.019290
 C    4.245229   -0.497941   -0.011665
 C    3.008673   -1.144718   -0.085483
 N    0.571486   -1.082897   -0.191924
 C   -0.584188   -0.367382   -0.750110
 C   -1.811739    1.795907   -0.325771
 C   -1.866668    3.144984    0.028452
 C   -0.678259    3.778557    0.408257
 C    0.516637    3.080086    0.402853
 C   -0.608352    1.094854   -0.324624
 C    0.586932    1.736648    0.012961
 C    1.847414    0.982788   -0.038224
 C    1.803470   -0.429187   -0.115640
 C   -1.872436   -1.060549   -0.329757
 C   -2.150127   -1.251217    1.026103
 C   -3.334097   -1.858474    1.423454
 C   -4.261922   -2.277320    0.469619
 C   -3.995455   -2.085403   -0.881020
 C   -2.802661   -1.480624   -1.276581
 C    0.579782   -2.521107   -0.453625
 C    0.710595   -3.354876    0.819107
 N    5.420102   -1.249031    0.069126
 N   -3.086957    3.823688    0.074535
 H    3.142764    2.689125    0.016571
 H    5.236859    1.420178    0.060584
 H    3.012223   -2.227653   -0.103984
 H   -0.534950   -0.398215   -1.856031
 H   -2.732749    1.283305   -0.589574
 H   -0.697264    4.818403    0.725263
 H    1.414494    3.595660    0.728395
 H   -1.425664   -0.915118    1.762363
 H   -3.538828   -2.001999    2.480380
 H   -5.188164   -2.750902    0.781349
 H   -4.711483   -2.409422   -1.630688
 H   -2.592073   -1.335884   -2.333914
 H    1.372994   -2.770145   -1.171952
 H   -0.359766   -2.780946   -0.944587
 H    1.585049   -3.060421    1.406429
 H   -0.175952   -3.220119    1.445397
 H    0.801264   -4.418390    0.571801
 H    6.248326   -0.761342   -0.243049
 H    5.361250   -2.169833   -0.343230
 H   -3.808968    3.427280   -0.511026
 H   -3.016139    4.823065   -0.057639
