68 
5kdr_ligand_xtb.xyz
 C    4.249407   -1.600171   -1.520829
 C    4.243039   -0.804876   -0.220997
 C    4.287236   -1.696175    1.001178
 O    4.989962   -2.640370    1.218988
 N    3.340492   -1.206260    1.887518
 C    2.557966   -0.195586    1.406508
 O    1.681058    0.349037    2.026070
 C    3.008018    0.078954   -0.023980
 C    3.307688    1.567660   -0.210445
 O    4.425563    1.992060   -0.085495
 C    2.113473    2.420619   -0.611605
 C    2.236275    3.908638   -0.218297
 C    3.251076    4.633261   -1.098620
 C    2.586640    4.072360    1.259759
 N    0.859954    1.880676   -0.138130
 C    0.078171    1.084473   -0.902164
 O    0.370708    0.796276   -2.045690
 C   -1.180412    0.608411   -0.204311
 C   -1.578533   -0.789584   -0.712153
 C   -0.491965   -1.798936   -0.441263
 C   -0.128120   -2.113281    0.863862
 C    0.852155   -3.057596    1.112579
 C    1.484981   -3.698965    0.061426
 C    1.129085   -3.389495   -1.241051
 C    0.147802   -2.444567   -1.490596
 N   -2.819255   -1.227544   -0.100544
 C   -4.033241   -0.972150   -0.645498
 O   -4.168673   -0.304404   -1.646443
 C   -5.185795   -1.632065    0.098093
 C   -6.495027   -0.871260   -0.100356
 C   -6.504797    0.451283    0.661606
 C   -7.819275    1.204733    0.476519
 C   -7.830035    2.522882    1.240768
 H    3.333473   -2.178402   -1.615519
 H    4.330848   -0.930218   -2.372470
 H    5.095332   -2.282707   -1.524578
 H    5.141896   -0.174765   -0.183294
 H    3.210079   -1.594341    2.812609
 H    2.198713   -0.208770   -0.700446
 H    2.070434    2.340105   -1.710838
 H    1.247698    4.348969   -0.394242
 H    3.286478    5.686379   -0.830879
 H    4.241443    4.209433   -0.963553
 H    2.976035    4.554810   -2.147872
 H    2.518682    5.120082    1.541732
 H    3.602009    3.734649    1.448500
 H    1.909518    3.504356    1.894460
 H    0.674440    1.963858    0.849373
 H   -1.990846    1.299964   -0.445774
 H   -1.031716    0.599952    0.875843
 H   -1.758898   -0.709342   -1.789810
 H   -0.607644   -1.617900    1.696381
 H    1.115480   -3.302043    2.131435
 H    2.250945   -4.434265    0.256941
 H    1.606804   -3.897169   -2.066436
 H   -0.123128   -2.199550   -2.505981
 H   -2.748612   -1.782905    0.736602
 H   -4.949608   -1.714265    1.161041
 H   -5.283371   -2.643163   -0.307210
 H   -6.618882   -0.672472   -1.165964
 H   -7.329835   -1.491447    0.233609
 H   -6.346564    0.260614    1.727142
 H   -5.680175    1.071707    0.305116
 H   -7.972369    1.400084   -0.586650
 H   -8.645940    0.578476    0.821253
 H   -7.696287    2.348406    2.306647
 H   -8.773628    3.043458    1.094579
 H   -7.024968    3.168137    0.896117
