56 
5kej_ligand_xtb.xyz
 N   -4.158112    0.083866    0.608324
 C   -4.196479   -0.996099   -0.400405
 C   -5.596771   -0.951670   -1.022524
 O   -6.459131   -0.252806   -0.561662
 O   -5.724543   -1.751088   -2.057941
 C   -3.952814   -2.368507    0.250459
 C   -2.464727   -2.686866    0.432171
 C   -1.745545   -1.636263    1.251383
 O   -2.325093   -0.928330    2.074927
 N   -0.423222   -1.520777    1.048603
 C    0.169729   -0.220855    1.279629
 C   -0.577898    0.759172    0.339852
 O   -1.444731    0.362297   -0.413569
 C    1.663077   -0.266491    0.992658
 S    1.933815   -0.739378   -0.764155
 C    3.630056   -1.395000   -0.664494
 C    4.672842   -0.315455   -0.432562
 C    6.082926   -0.904193   -0.446164
 C    7.144707    0.169508   -0.220151
 C    8.556155   -0.412728   -0.224069
 C    9.610456    0.664252   -0.002142
 N   -0.216347    2.046537    0.429149
 C   -0.797714    3.048606   -0.435354
 C   -2.227501    3.418928   -0.059047
 O   -2.456480    4.700248   -0.250915
 O   -3.061527    2.640146    0.335578
 H   -5.133493    0.330610    0.841561
 H   -3.670268    0.941389    0.284283
 H   -3.594564   -0.263811    1.444240
 H   -3.442518   -0.814349   -1.170968
 H   -6.619751   -1.723826   -2.436888
 H   -4.386118   -3.140204   -0.386078
 H   -4.461682   -2.400576    1.215611
 H   -2.368404   -3.650129    0.937874
 H   -1.983310   -2.767652   -0.542417
 H    0.002367   -2.034059    0.285742
 H   -0.018226    0.073471    2.318805
 H    2.140210   -1.021019    1.618442
 H    2.125897    0.702954    1.174009
 H    3.646139   -2.151285    0.121458
 H    3.786065   -1.882113   -1.626878
 H    4.585250    0.442011   -1.214526
 H    4.497951    0.171484    0.530192
 H    6.165529   -1.665013    0.333778
 H    6.261676   -1.393326   -1.405990
 H    6.963073    0.664250    0.737195
 H    7.065631    0.926138   -1.004114
 H    8.738716   -0.908262   -1.179899
 H    8.637248   -1.167811    0.560981
 H    9.560803    1.415271   -0.787353
 H   10.606291    0.229043   -0.007210
 H    9.457223    1.158627    0.954679
 H    0.437065    2.348555    1.133030
 H   -0.847431    2.638214   -1.452720
 H   -0.184046    3.947896   -0.441323
 H   -3.375540    4.954418   -0.058364
