79 
5kew_ligand_xtb.xyz
 S    1.122100    2.883028   -0.273420
 O    0.604611    0.362010    1.160509
 O   -4.509680    3.197010   -0.825986
 O    5.622016    0.618590    0.548618
 O    1.111405    1.683728   -1.088041
 O   -0.136068    2.836202    0.684852
 O    1.132635    4.125719   -0.961309
 N    3.859483    1.430436   -0.599376
 C    0.566491   -1.996834    0.423126
 C   -0.334756   -1.786406   -0.812209
 C   -1.829952   -1.896764   -0.531368
 C   -2.188704   -0.792440    0.480640
 C   -3.707396   -0.726782    0.775168
 C    1.951319   -1.840544   -0.260530
 C    0.177291   -0.953091    1.484162
 C   -1.340233   -0.967626    1.745155
 C   -4.487429   -0.581157   -0.552334
 C    0.274129   -2.723087   -1.854728
 C   -2.631654   -1.742137   -1.822992
 C    1.782972   -2.677677   -1.549602
 C   -4.128078   -1.692929   -1.540943
 C   -4.081134    0.471330    1.672489
 C    0.432311   -3.390629    1.043176
 C    3.219556   -2.206271    0.521894
 C   -4.304483    0.795870   -1.199756
 C   -4.188153   -1.985222    1.514386
 C   -3.893456    1.836240    1.022751
 C   -4.720205    1.922716   -0.255033
 C    4.478295   -2.080317   -0.360381
 C    3.372125   -1.372514    1.794840
 C    4.646638   -0.779006   -1.156428
 C    4.764603    0.463642   -0.294748
 C    3.793476    2.683449    0.110489
 C    2.498119    2.809483    0.896325
 H    0.688920    0.439991    0.193266
 H   -4.935688    3.228258   -1.689168
 H   -0.182613    1.941383    1.087037
 H    3.093255    1.250370   -1.232843
 H   -0.159897   -0.763144   -1.171976
 H   -2.050471   -2.878855   -0.105536
 H   -1.906186    0.162616    0.026755
 H    2.048996   -0.790338   -0.548414
 H    0.669184   -1.181451    2.437062
 H   -1.592944   -1.903188    2.241111
 H   -1.541737   -0.154206    2.443407
 H   -5.554509   -0.677051   -0.313053
 H   -0.124639   -3.731797   -1.743631
 H    0.060209   -2.390231   -2.869018
 H   -2.318759   -0.831797   -2.336773
 H   -2.418907   -2.582255   -2.486728
 H    2.331656   -2.232906   -2.378108
 H    2.179933   -3.682333   -1.401019
 H   -4.450756   -2.654585   -1.138678
 H   -4.671058   -1.533853   -2.475572
 H   -3.518483    0.431486    2.605149
 H   -5.137689    0.365110    1.934719
 H    0.765535   -4.159397    0.354837
 H    1.039200   -3.455267    1.943274
 H   -0.594579   -3.608134    1.319462
 H    3.164282   -3.261186    0.813897
 H   -4.912659    0.837923   -2.109261
 H   -3.267256    0.964995   -1.487915
 H   -5.275675   -2.006529    1.543763
 H   -3.848888   -2.897960    1.035840
 H   -3.830361   -1.983500    2.540917
 H   -2.849447    2.030688    0.775449
 H   -4.215406    2.621283    1.708344
 H   -5.789777    1.805384   -0.002179
 H    4.490498   -2.903104   -1.078475
 H    5.352021   -2.194461    0.283716
 H    4.398659   -1.407314    2.150559
 H    3.116212   -0.332989    1.614185
 H    2.731512   -1.749687    2.587667
 H    5.586836   -0.859662   -1.708709
 H    3.843562   -0.656606   -1.881319
 H    4.660261    2.705464    0.779895
 H    3.855453    3.516487   -0.598553
 H    2.323579    1.951689    1.538817
 H    2.449164    3.735329    1.457706
