56 
5kgx_ligand_dft.xyz
 C   -2.359907   -1.723178    1.806176
 C   -0.386377    0.926102    0.382689
 C    1.391199   -0.357092    1.622833
 C    3.659925   -0.400359    0.803294
 C    5.557726   -0.070514   -1.221683
 C    4.338446    0.848829   -1.288965
 C    3.307156    0.436950   -0.262488
 C   -0.817046    2.267118    0.089221
 C   -0.893887    4.628222   -0.332041
 C   -2.967600    3.356511   -0.398075
 C   -3.998844    0.485058   -0.108222
 N   -2.631565    0.921149    0.097825
 C   -1.518399    0.145181    0.369104
 C   -1.613914   -1.348147    0.523597
 O   -2.282529   -1.956603   -0.547826
 C   -1.488824   -2.537534   -1.598236
 C   -2.536728   -2.970554   -2.620074
 C   -0.727338   -3.756564   -1.068161
 C   -0.529876   -1.515820   -2.214993
 O   -3.467680   -2.188860    1.875901
 O   -1.614184   -1.443490    2.891821
 C    1.003519    0.475354    0.563404
 C    2.700922   -0.797512    1.735358
 O    4.919473   -0.889235    0.982164
 C    5.952666   -0.263033    0.234671
 C    1.981426    0.854510   -0.360655
 C   -0.156000    3.498209   -0.026643
 C   -2.287458    4.555860   -0.519943
 C   -2.216377    2.218478   -0.086877
 H    0.660061   -0.644866    2.372091
 H    6.399815    0.349810   -1.781121
 H    5.323812   -1.048753   -1.657247
 H    3.894156    0.832755   -2.290116
 H    4.650774    1.885367   -1.103203
 H   -0.394899    5.587948   -0.427093
 H   -4.042786    3.303450   -0.539796
 H   -4.102578   -0.569173    0.138165
 H   -4.670778    1.069358    0.528428
 H   -4.286637    0.627889   -1.155542
 H   -0.590139   -1.720527    0.641862
 H   -2.061098   -3.458947   -3.476371
 H   -3.244530   -3.668877   -2.163784
 H   -3.093823   -2.099661   -2.978759
 H   -1.420338   -4.451634   -0.584199
 H   -0.228718   -4.276505   -1.892674
 H    0.048327   -3.475903   -0.347199
 H   -0.050191   -1.949482   -3.098995
 H   -1.073144   -0.615792   -2.519383
 H    0.261032   -1.219596   -1.518937
 H   -2.157506   -1.664402    3.665128
 H    3.009585   -1.441919    2.552199
 H    6.191242    0.707607    0.694207
 H    6.820933   -0.917022    0.339415
 H    1.692760    1.480717   -1.202574
 H    0.917773    3.559624    0.126108
 H   -2.839234    5.459540   -0.761637
