23 
5kh3_ligand_dft.xyz
 C    1.101852    1.408196    0.086342
 C   -3.524815   -0.051834   -0.788787
 C   -1.314168    0.998823   -0.042815
 C   -2.811947    1.109197   -0.068845
 C    1.652208   -0.952465   -0.110866
 C    2.450333    1.752132    0.168808
 O   -2.657985   -1.956305    0.469864
 C    3.392784    0.738505    0.111180
 C    2.985779   -0.596243   -0.026938
 C    0.701167    0.069384   -0.053444
Cl    4.206075   -1.842330   -0.094115
 N   -0.670406   -0.120006   -0.123866
 S   -0.311002    2.428912    0.123168
 C   -3.749170   -1.306329    0.059595
 O   -4.855730   -1.694926    0.338378
 H   -2.967636   -0.317852   -1.694563
 H   -4.518695    0.281714   -1.089954
 H   -3.175286    1.195001    0.963499
 H   -3.080279    2.048827   -0.562706
 H    1.344287   -1.986172   -0.216123
 H    2.763709    2.784842    0.276214
 H   -1.844744   -1.486306    0.175588
 H    4.449829    0.970664    0.173056
