34 
5khg_ligand_xtb.xyz
 O    3.249207    2.199472    0.425068
 C    3.204270    1.000695    0.259250
 N    4.356312    0.254113    0.224459
 C    4.415698   -1.077010   -0.169688
 N    5.693242   -1.570881   -0.373629
 C    3.282572   -1.775762   -0.274506
 C    1.980310   -1.149994    0.121075
 N    2.044370    0.303318    0.024978
 C    0.815035    1.023724    0.134978
 O    0.101359    0.606903    1.309661
 C   -1.260629    0.628855    0.988406
 C   -2.177336   -0.192746    1.876425
 O   -3.484792   -0.106026    1.324870
 P   -3.757546   -0.427214   -0.217827
 O   -5.086912   -0.087268   -0.677157
 O   -3.365273   -1.985404   -0.350758
 O   -2.564852    0.293109   -1.031127
 C   -1.307171    0.068145   -0.433696
 C   -0.148515    0.837436   -1.075251
 O   -0.552184    2.094896   -1.530215
 H    5.212778    0.770577    0.357022
 H    6.356740   -0.911610   -0.752945
 H    5.720585   -2.467341   -0.833487
 H    3.274868   -2.804188   -0.586506
 H    1.697200   -1.434442    1.148248
 H    1.185775   -1.496904   -0.548110
 H    1.070211    2.090119    0.210216
 H   -1.639829    1.664802    0.959014
 H   -2.241040    0.210394    2.889306
 H   -1.842578   -1.234384    1.913609
 H   -4.121467   -2.461513   -0.692238
 H   -1.090473   -1.006665   -0.411200
 H    0.340028    0.275462   -1.883561
 H   -1.414905    2.002530   -1.957310
