34 
5khk_ligand_xtb.xyz
 N    3.123149    2.491759    0.171414
 N    0.953004    3.226743    0.079162
 C    4.003981    1.512080    0.163244
 C    1.817602    2.192576    0.101444
 N    1.283018    0.968333    0.030093
 C    2.177824   -0.006091    0.016849
 C    3.577892    0.192427    0.082862
 N    4.208845   -1.029051    0.053581
 C    3.261299   -1.897713   -0.030304
 N    1.989823   -1.360079   -0.043788
 C    0.753899   -2.074169   -0.205075
 O    0.109994   -1.638542   -1.391544
 C   -0.232288   -1.848751    0.971631
 O   -0.951031   -3.025285    1.198665
 C   -1.087575   -0.728910    0.383537
 O   -2.375689   -0.569235    0.941145
 P   -3.159485    0.637546    0.208544
 O   -2.249930    1.926656    0.564156
 O   -4.550329    0.763435    0.588754
 C   -1.176352   -1.160651   -1.078509
 C   -1.652895    0.035547   -1.886057
 O   -2.912073    0.431381   -1.354163
 H    1.311544    4.147489    0.253065
 H   -0.030322    3.035417    0.162038
 H    5.045750    1.792862    0.224762
 H    3.415743   -2.958090   -0.075887
 H    0.990054   -3.143010   -0.287430
 H    0.305465   -1.536771    1.878150
 H   -1.802516   -2.787508    1.589519
 H   -0.517471    0.208105    0.441482
 H   -2.791491    2.526644    1.076961
 H   -1.916903   -1.972639   -1.172101
 H   -1.827655   -0.212331   -2.935194
 H   -0.922639    0.847356   -1.810591
