79 
5kjm_ligand_dft.xyz
 C  -55.643677   12.400382   -2.119407
 C  -56.986604   12.051424   -2.043227
 C  -57.936175   12.995568   -1.661895
 C  -55.793808   16.092221   -1.283581
 C  -55.115447   16.432415   -0.066134
 C  -54.824454   17.732818    0.241053
 C  -55.147083   18.699863   -0.747756
 C  -54.992159   20.070564   -0.935208
 C  -55.782985   18.247234   -1.947806
 C  -54.306681   18.040979    1.615084
 O  -53.644905   17.238443    2.251551
 N  -54.700708   19.257820    2.107856
 C  -54.677743   19.505058    3.543652
 C  -56.044638   19.267139    4.192840
 C  -56.609535   17.875099    3.908226
 C  -59.708448   16.310473    5.090532
 C  -59.115765   17.045653    0.588334
 C  -58.470729   15.678345    0.431438
 C  -61.219837   18.237846    0.297867
 C  -62.720415   17.967995    0.507526
 C  -62.991922   17.256550    1.810017
 C  -55.259340   13.709736   -1.840714
 C  -63.576987   17.923951    2.886442
 C  -63.761356   17.290115    4.108499
 C  -62.607177   15.926107    1.985214
 C  -56.204449   14.671548   -1.497245
 C  -57.559095   14.308817   -1.374893
 C  -63.359073   15.969731    4.279780
 C  -62.783981   15.286493    3.206470
 C  -60.224353   17.631216    4.498447
 C  -58.295446   16.236503    4.526810
 C  -58.953948   18.485515    4.292898
 C  -59.839612   15.224447   -1.483746
 C  -60.491091   16.594573   -1.328471
 N  -55.518048   20.317257   -2.151454
 N  -56.130344   16.962926   -2.205121
 N  -56.008621   19.259163   -2.800781
 N  -58.486839   15.295556   -0.972990
 N  -57.828568   17.612268    4.639509
 N  -60.473410   17.012708    0.067139
Cl  -63.575177   15.214529    5.831147
Cl  -62.261342   13.632908    3.361332
 H  -54.899187   11.664130   -2.405419
 H  -57.299793   11.035028   -2.263554
 H  -58.979147   12.706661   -1.573762
 H  -54.882574   15.651568    0.650355
 H  -54.533048   20.845120   -0.339232
 H  -55.440630   19.718617    1.594524
 H  -53.928119   18.828198    3.958549
 H  -54.343685   20.531894    3.725591
 H  -55.951629   19.398388    5.276934
 H  -56.751484   20.032595    3.843016
 H  -56.774512   17.761296    2.814728
 H  -55.864891   17.121022    4.189189
 H  -60.323570   15.450728    4.814482
 H  -59.665577   16.366060    6.182748
 H  -58.486183   17.796470    0.072700
 H  -59.157512   17.302601    1.651511
 H  -59.018531   14.944531    1.051496
 H  -57.441571   15.717301    0.794504
 H  -61.085622   18.957995   -0.529280
 H  -60.827554   18.717487    1.202390
 H  -63.256216   18.923797    0.491432
 H  -63.105441   17.380017   -0.333837
 H  -54.215464   14.000498   -1.923192
 H  -63.888138   18.959073    2.775471
 H  -64.211741   17.816776    4.942748
 H  -62.130556   15.393099    1.171745
 H  -60.961298   18.120679    5.139801
 H  -60.711613   17.440307    3.536694
 H  -58.320333   15.886232    3.474399
 H  -57.634331   15.563603    5.083250
 H  -58.944811   19.382126    4.923567
 H  -58.887018   18.832626    3.244185
 H  -60.454377   14.473577   -0.951407
 H  -59.805755   14.952809   -2.542614
 H  -59.954233   17.316191   -1.971592
 H  -61.530039   16.541135   -1.672911
 H  -55.559844   21.213806   -2.612441
