36 
5km0_ligand_xtb.xyz
 P    0.716452    2.564763   -0.378858
 O    1.357892    3.315500   -1.630034
 O   -0.775549    2.351399   -0.814196
 O    0.982380    3.196615    0.913038
 O    1.377397    1.098106   -0.542304
 C    2.638472    0.947464    0.079130
 C    2.851332   -0.497870    0.544257
 O    1.915964   -0.892508    1.536420
 C    2.695818   -1.527170   -0.587283
 O    3.375122   -2.733201   -0.330271
 C    1.192010   -1.843432   -0.532342
 O    0.860405   -3.137671   -0.926759
 C    0.837368   -1.556815    0.957945
 N   -0.374008   -0.770272    1.032962
 C   -0.577920    0.441523    1.640127
 N   -1.753921    0.932993    1.398837
 C   -2.394454    0.017932    0.602480
 C   -3.723703    0.030080   -0.007736
 O   -4.539880    0.914476    0.069577
 N   -3.982178   -1.136049   -0.749978
 C   -3.138144   -2.068214   -0.915319
 N   -1.873294   -2.117265   -0.394225
 C   -1.533040   -1.040927    0.368498
 H    1.222242    4.259162   -1.553009
 H   -1.360484    2.205986   -0.053708
 H    3.430173    1.222629   -0.625914
 H    2.686099    1.613099    0.947189
 H    3.839219   -0.559261    1.014810
 H    2.988927   -1.109421   -1.556612
 H    4.324503   -2.577477   -0.312228
 H    0.650563   -1.140447   -1.172984
 H    1.621737   -3.705296   -0.731514
 H    0.676858   -2.502613    1.502958
 H    0.167594    0.904657    2.252507
 H   -3.421089   -2.921996   -1.518233
 H   -1.205585   -2.843466   -0.625878
