34 
5km3_ligand_xtb.xyz
 N    0.028625    1.323930   -0.636627
 C   -0.363042    2.247401    0.308513
 N   -1.709500    2.417773    0.426817
 C   -2.724172    1.773284   -0.291019
 C   -2.204669    0.893799   -1.313663
 C   -0.881024    0.699560   -1.434700
 O    0.435540    2.873077    0.982135
 O   -3.883363    1.996082   -0.032419
 C    1.469659    1.051634   -0.746642
 C    2.072849    0.673797    0.636674
 O    2.894325    1.667473    1.164131
 C    2.894612   -0.591088    0.327424
 C    2.199315   -1.138134   -0.928157
 O    4.228170   -0.291876    0.043632
 O    1.729784    0.007682   -1.626971
 C    1.052181   -2.102055   -0.604144
 O    0.133821   -1.427276    0.239119
 P   -1.282691   -2.086777    0.540663
 O   -1.297694   -3.355429    1.267119
 O   -1.973502   -0.869221    1.285503
 O   -1.967777   -2.157426   -0.897803
 H   -2.008893    3.074513    1.139797
 H   -2.907223    0.389692   -1.952574
 H   -0.450822    0.046913   -2.178630
 H    1.950881    1.966034   -1.128196
 H    1.257964    0.418282    1.325203
 H    2.319819    2.429962    1.351121
 H    2.836088   -1.309300    1.156437
 H    2.921528   -1.634572   -1.581840
 H    4.431524    0.546369    0.485941
 H    1.433203   -2.995210   -0.100336
 H    0.552326   -2.399147   -1.530753
 H   -2.224488   -1.137117    2.168897
 H   -2.594090   -2.880564   -0.917622
