32 
5km9_ligand_xtb.xyz
 O    1.837779   -1.592300    1.666034
 C    2.964043   -1.828278    0.849372
 C    3.075404   -0.723758   -0.207062
 O    2.022377   -0.825309   -1.160449
 C    2.986265    0.689005    0.386879
 O    3.736708    1.586275   -0.379909
 C    1.482721    0.986351    0.295909
 O    1.243252    2.351685    0.148606
 C    1.057785    0.156577   -0.941519
 N   -0.247626   -0.422142   -0.724517
 C   -0.674467   -1.708831   -0.881782
 N   -1.928530   -1.886170   -0.596080
 C   -2.384985   -0.647149   -0.221688
 C   -3.629168   -0.143396    0.197603
 N   -4.724551   -0.909311    0.318928
 N   -3.719507    1.157569    0.494213
 C   -2.648866    1.922789    0.388203
 N   -1.429950    1.580885    0.006967
 C   -1.333219    0.280529   -0.295218
 H    1.729981   -2.334150    2.271074
 H    3.884346   -1.835410    1.449217
 H    2.870180   -2.788275    0.326270
 H    4.015796   -0.845497   -0.753063
 H    3.329814    0.700999    1.429840
 H    3.240571    2.418243   -0.397732
 H    0.980082    0.578579    1.182504
 H    0.270572    2.458842    0.102432
 H    0.997191    0.815000   -1.826349
 H   -0.009168   -2.478752   -1.215992
 H   -5.590376   -0.484560    0.597560
 H   -4.674338   -1.880569    0.071909
 H   -2.787504    2.963892    0.647319
