53 
5knr_ligand_xtb.xyz
 O   -3.712814    1.221343   -0.262890
 P   -2.750483    2.329359   -0.302725
 O   -3.319658    3.567859    0.529802
 O   -2.579614    3.009884   -1.748583
 C   -1.071728    2.034569    0.377364
 C   -0.218216    1.352071   -0.678370
 O   -1.115904    0.676196   -1.536836
 C   -0.528294   -0.178220   -2.491287
 C    0.269895   -1.365880   -1.927791
 N   -0.413299   -2.076772   -0.871503
 C   -1.684337   -2.658507   -1.260067
 C   -2.837280   -1.808194   -0.744737
 P   -2.659560   -1.472599    1.056838
 O   -1.467993   -0.772435    1.543551
 O   -4.049317   -0.792936    1.455630
 O   -2.808910   -2.907857    1.763941
 C    0.451509   -2.956010   -0.112473
 C    1.316925   -2.208415    0.910396
 N    2.530396   -1.650854    0.366921
 C    2.964174   -0.374118    0.519333
 N    2.331185    0.612752    1.193362
 C    2.972117    1.742587    1.199543
 N    2.388657    2.820736    1.798860
 N    4.171718    1.931381    0.580768
 C    4.899990    0.959801   -0.157944
 O    5.946591    1.282787   -0.668165
 C    4.191939   -0.285902   -0.143272
 N    4.497529   -1.506348   -0.681198
 C    3.508517   -2.281002   -0.355363
 H   -2.921694    4.403565    0.287045
 H   -2.389976    2.321159   -2.386506
 H   -1.208986    1.357521    1.218809
 H   -0.621326    2.964589    0.715048
 H    0.465802    0.652758   -0.195138
 H    0.364851    2.083439   -1.262168
 H    0.147915    0.396241   -3.145843
 H   -1.367097   -0.538030   -3.092572
 H    1.214629   -0.994719   -1.531666
 H    0.508092   -2.023892   -2.788345
 H   -1.773414   -3.659986   -0.828935
 H   -1.753947   -2.767266   -2.353058
 H   -3.792091   -2.306558   -0.913218
 H   -2.861036   -0.836407   -1.226359
 H   -4.091055    0.060498    0.984759
 H   -3.728367   -3.169619    1.813066
 H    1.089644   -3.573303   -0.769864
 H   -0.189825   -3.618477    0.469128
 H    1.585998   -2.904863    1.711071
 H    0.722577   -1.394625    1.331869
 H    1.606653    2.581560    2.387774
 H    2.987321    3.556911    2.135775
 H    4.608631    2.844831    0.611865
 H    3.453733   -3.318394   -0.618301
