51 
5kns_ligand_xtb.xyz
 O   -5.127879   -1.267715   -0.913684
 P   -4.961672   -2.630243   -0.422966
 O   -4.005934   -3.586511   -1.298478
 O   -6.316890   -3.473044   -0.477494
 C   -4.368826   -2.784210    1.321124
 C   -3.308937   -1.707693    1.447759
 O   -2.504750   -1.816889    0.287710
 C   -1.879691   -0.621461   -0.123802
 C   -0.677797   -0.237359    0.753455
 N    0.001155    0.910383    0.178277
 C   -0.512847    2.191929    0.624818
 C   -0.611046    3.191203   -0.521734
 P   -1.316953    4.725066    0.211374
 O   -2.434507    4.544149    1.114771
 O   -0.081361    5.447723    0.952737
 O   -1.678305    5.693672   -1.022496
 C    1.444322    0.807505    0.183983
 C    1.916682   -0.038916   -1.011616
 N    3.338317   -0.233317   -0.972865
 C    3.990114   -1.161627   -0.224154
 N    3.426488   -2.114840    0.559569
 C    4.290144   -2.868323    1.147575
 N    5.631548   -2.750579    1.023632
 C    6.315713   -1.790686    0.232576
 O    7.521348   -1.793020    0.210492
 C    5.355675   -0.946703   -0.429386
 N    5.520343    0.103722   -1.284947
 C    4.318555    0.499384   -1.578260
 H   -3.174536   -3.133483   -1.440646
 H   -6.170592   -4.418959   -0.475306
 H   -3.946730   -3.774145    1.485432
 H   -5.192004   -2.617632    2.011718
 H   -2.704087   -1.828568    2.356709
 H   -3.795530   -0.725869    1.464589
 H   -2.611299    0.194895   -0.151641
 H   -1.528781   -0.803974   -1.142593
 H    0.005897   -1.088394    0.788177
 H   -1.013552   -0.035063    1.780329
 H    0.098411    2.627727    1.430402
 H   -1.518915    2.061231    1.023261
 H   -1.293208    2.813825   -1.281768
 H    0.362840    3.369233   -0.979125
 H    0.643461    5.747272    0.404553
 H   -1.060347    5.732435   -1.752067
 H    1.830323    0.352104    1.109963
 H    1.876490    1.807199    0.097870
 H    1.643636    0.454770   -1.946164
 H    1.439417   -1.020109   -0.971739
 H    3.920004   -3.654113    1.790960
 H    6.239757   -3.387243    1.524735
 H    4.097610    1.311762   -2.241917
