50 
5knv_ligand_dft.xyz
 C   -2.156981   -2.217079   -0.243551
 C   -2.971771   -3.317850   -0.029838
 C   -4.400648   -3.121929    0.065808
 C   -0.991688   -4.055900   -0.086919
 N   -4.690406   -1.730720   -0.082452
 N   -2.509106   -0.907376   -0.380436
 O   -1.747932    4.578322    1.129166
 P   -2.348845    3.868653   -0.024784
 O   -3.079854    4.832318   -1.097459
 O   -3.504660    2.816640    0.442616
 C   -1.313949    2.860168   -1.097011
 C   -0.544323    1.778825   -0.327723
 C    0.710784    2.283557    0.382593
 C    1.353251    1.215809    1.272991
 N    1.607954   -0.046916    0.570169
 C    2.975011   -0.530197    0.682108
 C    3.921361    0.282414   -0.205529
 P    5.626549   -0.289384   -0.120020
 O    6.324715   -0.265125    1.185532
 O    5.492179   -1.763039   -0.777275
 O    6.361186    0.609347   -1.250028
 C    0.611097   -1.074029    0.819833
 C    0.322080   -1.897825   -0.441004
 N   -0.878555   -2.701001   -0.283638
 C   -3.790049   -0.729451   -0.284140
 O   -5.300953   -3.913536    0.243657
 N   -2.223636   -4.465748    0.065151
 H   -0.115141   -4.690821   -0.073142
 H   -5.675606   -1.506219   -0.022990
 H   -3.360454    5.656233   -0.675286
 H   -3.647487    2.916480    1.394029
 H   -0.637729    3.530055   -1.639435
 H   -1.982279    2.404311   -1.835931
 H   -0.260917    0.993424   -1.033174
 H   -1.227345    1.298194    0.381017
 H    0.471223    3.158245    0.999346
 H    1.440517    2.606492   -0.372406
 H    0.714090    1.039099    2.151812
 H    2.299025    1.604500    1.668397
 H    3.003569   -1.572127    0.347761
 H    3.338584   -0.519979    1.724483
 H    3.930456    1.337994    0.087116
 H    3.585076    0.237153   -1.246417
 H    6.217366   -2.331436   -0.482725
 H    7.199728    0.942503   -0.901671
 H   -0.324515   -0.588794    1.104552
 H    0.888647   -1.747273    1.650052
 H    1.145742   -2.573227   -0.689498
 H    0.178230   -1.217609   -1.283676
 H   -4.192583    0.277576   -0.357077
