44 
5knx_ligand_dft.xyz
 C    2.202902   -1.413171    0.433610
 C    2.630133   -2.611598   -0.115683
 C    3.766442   -2.620279   -1.009410
 C    0.958030   -3.083269    1.083198
 N    4.255057   -1.283409   -1.156877
 N    2.754460   -0.176504    0.263880
 O    3.417105    3.025164   -1.011412
 P    2.298021    3.064771   -0.035228
 O    1.834743    4.548428    0.383688
 O    2.565464    2.370818    1.375435
 C    0.770692    2.274380   -0.683785
 O    0.128345    1.575144    0.350140
 C   -0.639491    0.476984   -0.079614
 C   -0.995382   -0.338646    1.158692
 C   -1.909983   -1.511794    0.794909
 O   -3.046092   -1.121576    0.048349
 C   -4.030354   -0.413358    0.774542
 P   -5.290416    0.091267   -0.447144
 O   -6.587603    0.551496    0.074536
 O   -5.376881   -1.198572   -1.400510
 O   -4.454130    1.206212   -1.274163
 C    0.250228   -0.800693    1.934651
 N    1.112211   -1.719411    1.201310
 C    3.773260   -0.174721   -0.549909
 O    4.300595   -3.530570   -1.600085
 N    1.839629   -3.650568    0.306166
 H    0.170021   -3.600968    1.615209
 H    5.047209   -1.195304   -1.781786
 H    2.559008    5.173879    0.244498
 H    2.618813    1.396087    1.217194
 H    1.106390    1.589676   -1.475558
 H    0.118718    3.032460   -1.139286
 H   -0.062936   -0.143775   -0.786728
 H   -1.553475    0.805120   -0.592653
 H   -1.522295    0.331159    1.850200
 H   -2.221441   -2.047877    1.705743
 H   -1.381783   -2.218614    0.148036
 H   -3.634118    0.486326    1.260561
 H   -4.500469   -1.050387    1.537125
 H   -4.496722   -1.600898   -1.489685
 H   -5.056661    1.846745   -1.678044
 H   -0.046487   -1.298814    2.863037
 H    0.843694    0.075944    2.198219
 H    4.257736    0.772524   -0.776873
