84 
5kos_ligand_xtb.xyz
 C    4.643229   -0.892560   -0.838605
 C    3.577029   -0.385358   -1.811583
 C    1.566008    0.204488   -0.561070
 C   -0.392662   -1.383943   -0.241485
 C    0.041572   -2.959861    2.597961
 C   -2.347159   -2.743446    0.527164
 C   -2.284567   -3.641605   -0.713367
 C   -3.976478   -2.334038   -1.905149
 C   -3.219214   -0.084213   -1.183119
 C    7.394571   -2.176427   -0.263772
 O    7.058811   -0.816167   -0.385931
 C    6.053412   -0.534167   -1.324982
 N    2.247212   -0.655421   -1.319854
 N    2.096412    1.411473   -0.347134
 C    1.430864    2.295921    0.365160
 N    0.215427    2.090739    0.880247
 C   -0.313817    0.898933    0.707226
 C    0.314423   -0.137937    0.029871
 O   -0.318084   -1.939058   -1.344751
 N   -1.212599   -1.853798    0.748636
 C   -0.807281   -1.756752    2.147005
 C    1.365503   -3.002906    1.839901
 C    0.287663   -2.857274    4.100858
 N   -2.614965   -2.890342   -1.936788
 C   -4.073011   -1.299400   -0.778656
 C   -3.676554   -1.954353    0.553349
 O   -2.295521   -0.250761   -1.974346
 N   -3.543237    1.122506   -0.706526
 C   -2.928445    2.302277   -1.311784
 C   -2.627284    3.380312   -0.268164
 O   -3.769455    3.674263    0.503939
 C   -4.221788    2.529403    1.166891
 C   -4.656217    1.445587    0.166131
 C    2.055010    3.654123    0.546974
 C    1.799810    4.427491   -0.756239
 C    1.413537    4.392716    1.720579
 C    3.561567    3.506065    0.770863
 H    4.487131   -0.428642    0.136869
 H    4.550127   -1.974941   -0.724914
 H    3.671873    0.696014   -1.924531
 H    3.693054   -0.863058   -2.786691
 H   -0.505152   -3.888906    2.398143
 H   -2.367835   -3.422349    1.387262
 H   -3.008737   -4.451633   -0.591311
 H   -1.284972   -4.064716   -0.816141
 H   -4.696710   -3.140703   -1.742589
 H   -4.183817   -1.856724   -2.864543
 H    6.589356   -2.761064    0.195479
 H    8.271703   -2.216549    0.378531
 H    7.639502   -2.612781   -1.239542
 H    6.261376   -1.048194   -2.276005
 H    6.114280    0.544841   -1.490163
 H    1.816681   -1.544036   -1.525055
 H   -1.313887    0.764447    1.106470
 H   -1.702437   -1.677024    2.769116
 H   -0.213542   -0.857094    2.292070
 H    1.204761   -3.092069    0.767414
 H    1.941710   -2.099617    2.028374
 H    1.953998   -3.857087    2.163584
 H    0.828446   -1.943931    4.335738
 H   -0.650591   -2.853696    4.650312
 H    0.879541   -3.701583    4.442489
 H   -1.909983   -2.072169   -1.993369
 H   -2.473109   -3.474703   -2.761983
 H   -5.116739   -0.982192   -0.714036
 H   -3.611499   -1.197998    1.336250
 H   -4.471236   -2.650058    0.833096
 H   -3.628865    2.705151   -2.052621
 H   -2.013219    1.990138   -1.814813
 H   -2.353223    4.306988   -0.773769
 H   -1.799175    3.067886    0.382236
 H   -3.431666    2.130787    1.822843
 H   -5.074926    2.833880    1.774815
 H   -4.998090    0.571624    0.716358
 H   -5.481786    1.842869   -0.437324
 H    0.731403    4.529889   -0.935435
 H    2.237208    5.419690   -0.684175
 H    2.248238    3.906498   -1.598470
 H    1.556918    3.837809    2.644270
 H    1.869934    5.372741    1.830590
 H    0.347004    4.518142    1.558629
 H    3.757839    2.969704    1.696258
 H    4.013641    2.956244   -0.048922
 H    4.023393    4.487434    0.836132
