36 
5kqf_ligand_xtb.xyz
 C    3.645356   -1.403298   -0.881725
 C    3.447673   -0.083928   -1.241801
 C    2.516947    0.667975   -0.547222
 C    1.773482    0.132386    0.498886
 C    2.936751   -1.981153    0.155334
 C    2.015713   -1.199724    0.825701
 C   -4.930689   -1.576740   -0.215817
 C    1.208837    1.134868    2.714877
 C    0.747159    0.968497    1.262667
 C   -0.645838    0.313904    1.223587
 C   -1.059746   -0.059223   -0.192380
 S   -0.966212    1.404637   -1.314893
 C    0.031578    2.641607   -0.461421
 N    0.612562    2.296794    0.710551
 N    0.186139    3.801579   -0.922666
 C   -2.454814   -0.595802   -0.221054
 C   -2.723883   -1.939516   -0.465100
 N   -3.952032   -2.427383   -0.463311
 N   -4.800270   -0.283665    0.020276
 C   -3.572936    0.202933    0.011845
 F    1.335180   -1.787282    1.834095
 F    4.544673   -2.146277   -1.546815
 H    4.012916    0.343962   -2.053487
 H    2.365607    1.696152   -0.836110
 H    3.092585   -3.009264    0.438095
 H   -5.935956   -1.976446   -0.209546
 H    1.265032    0.173353    3.215303
 H    0.506119    1.765931    3.253437
 H    2.192808    1.598736    2.741928
 H   -1.363746    1.023189    1.642064
 H   -0.660707   -0.586393    1.838504
 H   -0.370597   -0.800932   -0.608615
 H    1.220180    3.015087    1.077087
 H   -0.312172    4.015263   -1.775204
 H   -1.928703   -2.646979   -0.667427
 H   -3.480991    1.268188    0.184535
