100 
5kqx_ligand_dft.xyz
 C    4.271894   -0.474829    0.566176
 O    3.575397   -1.440372    0.888458
 N    6.357115    0.476570   -0.140171
 C    5.726413   -0.621451    0.216358
 C    6.320047   -1.899903    0.284330
 C    7.646017   -2.009495   -0.040867
 C    9.742745   -0.888336   -0.785288
 C   10.386674    0.262448   -1.156437
 C    9.690681    1.496342   -1.193094
 C    8.364140    1.559168   -0.858035
 C    8.369195   -0.857571   -0.432479
 C    7.672371    0.383318   -0.469391
 N    3.800604    0.787878    0.492162
 C    2.450134    1.123811    0.894997
 C    1.442949    0.819041   -0.227948
 O    0.890550    1.720102   -0.868786
 C    2.342448    2.575515    1.328321
 C    0.985464    2.836952    1.969337
 O    0.200500    1.936131    2.239463
 N    0.710431    4.138649    2.223156
 C   -1.083780   -0.503861   -1.406375
 O   -1.182216    0.655761   -2.204207
 C    0.345834   -1.094083   -1.397907
 N    1.216817   -0.491124   -0.395589
 C    0.366215   -2.626496   -1.202708
 C   -0.319219   -3.104637    0.057914
 C    0.334345   -3.071188    1.293869
 C   -1.650225   -3.531922    0.017372
 C   -0.338409   -3.414809    2.462790
 C   -2.323779   -3.877351    1.185799
 C   -1.672336   -3.809779    2.414215
 N   -2.750235    0.797641   -0.127820
 C   -1.643091   -0.216192    0.006403
 C   -4.051901    0.311564    0.418147
 C   -4.480043   -0.877852   -0.455555
 O   -4.210189   -0.842015   -1.650876
 C   -5.138526    1.388727    0.302068
 C   -4.717045    2.745786    0.874207
 C   -5.806156    3.811849    0.681574
 C   -5.961098    4.251097   -0.778620
 C   -4.623393    4.708592   -1.365940
 C   -3.552564    3.622638   -1.227591
 C   -3.387940    3.195162    0.239736
 C   -2.327409    2.124486    0.435729
 N   -5.205325   -1.825353    0.161514
 C   -6.039014   -2.848368   -0.520175
 C   -6.703899   -3.662878    0.591860
 C   -7.102213   -2.140143   -1.369282
 C   -5.170967   -3.759230   -1.394071
 H    5.720314   -2.748879    0.589396
 H    8.151505   -2.970439   -0.002193
 H   10.272465   -1.836297   -0.755831
 H   11.438020    0.234330   -1.424201
 H   10.218780    2.396957   -1.489867
 H    7.813128    2.493526   -0.879486
 H    4.456732    1.490548    0.169866
 H    2.189372    0.481382    1.741927
 H    3.127575    2.794012    2.061733
 H    2.476676    3.245322    0.472396
 H   -0.114835    4.360466    2.759428
 H    1.392005    4.866848    2.078335
 H   -1.741737   -1.233051   -1.886031
 H   -0.427930    1.228977   -1.945064
 H    0.747202   -0.882487   -2.396959
 H    1.827634   -1.105541    0.141352
 H   -0.110278   -3.075177   -2.079999
 H    1.413275   -2.951690   -1.213837
 H    1.383502   -2.791590    1.351955
 H   -2.167921   -3.582678   -0.937917
 H    0.185115   -3.381393    3.413142
 H   -3.356998   -4.208300    1.136827
 H   -2.193388   -4.084411    3.326312
 H   -2.858787    0.913023   -1.150491
 H   -2.047847   -1.118368    0.463960
 H   -0.896149    0.201324    0.682619
 H   -3.870660    0.040162    1.463738
 H   -6.030493    1.019276    0.819684
 H   -5.407647    1.480031   -0.755727
 H   -4.548455    2.613641    1.952721
 H   -5.537335    4.687288    1.287195
 H   -6.760221    3.441917    1.075650
 H   -6.363997    3.428827   -1.384354
 H   -6.695839    5.060373   -0.837568
 H   -4.743583    4.980998   -2.419110
 H   -4.287145    5.613229   -0.840991
 H   -2.590207    3.981821   -1.609783
 H   -3.830867    2.767822   -1.860143
 H   -3.029383    4.071936    0.796351
 H   -1.388382    2.372843   -0.063167
 H   -2.101748    1.958209    1.492160
 H   -5.353385   -1.719468    1.155406
 H   -7.346094   -3.033419    1.219584
 H   -5.957148   -4.150495    1.229087
 H   -7.331618   -4.443659    0.154806
 H   -6.635887   -1.546280   -2.159494
 H   -7.719422   -1.482896   -0.747198
 H   -7.758560   -2.879130   -1.838752
 H   -4.444190   -4.308385   -0.788404
 H   -5.809373   -4.492270   -1.896697
 H   -4.641324   -3.182211   -2.154190
