73 
5kqy_ligand_xtb.xyz
 N    6.398412   -3.218474   -0.661278
 C    5.713714   -2.043132   -0.821793
 C    4.768405   -1.906396   -1.845065
 C    4.029148   -0.748227   -1.961462
 C    4.228784    0.286184   -1.064319
 C    5.158571    0.171130   -0.046276
 C    5.898715   -0.985125    0.076913
 S    3.268554    1.783931   -1.184780
 O    4.121585    2.925805   -1.048586
 O    2.459448    1.695927   -2.376460
 N    2.237478    1.755537    0.117177
 C    2.544435    2.551385    1.280843
 C    1.369609    3.454697    1.681290
 C    1.065234    4.437035    0.554802
 C    1.703461    4.193062    2.974452
 C    1.473279    0.541385    0.284475
 C    0.115540    0.594779   -0.440894
 O    0.227416    0.303556   -1.809249
 C   -0.898294   -0.402235    0.157708
 N   -2.184340   -0.149036   -0.452631
 C   -3.283245    0.154818    0.258605
 O   -3.361065    0.164938    1.462341
 O   -4.321102    0.437827   -0.576842
 C   -5.554557    0.699823    0.061395
 C   -6.540551    1.318352   -0.935506
 O   -7.819868    1.000297   -0.428481
 C   -7.774695   -0.280628    0.125275
 O   -8.151154   -1.276389   -0.818346
 C   -7.067410   -2.066954   -1.052022
 C   -5.998050   -1.775860   -0.325531
 C   -6.305023   -0.574474    0.521513
 C   -0.504938   -1.871483   -0.081354
 C    1.819144   -2.775792    0.252669
 C    2.855821   -3.197289    1.067141
 C    2.701189   -3.194586    2.442323
 C    1.501040   -2.781697    2.996779
 C    0.465932   -2.363145    2.180399
 C    0.616448   -2.343961    0.798196
 H    7.221473   -3.203322   -0.083017
 H    6.424228   -3.852947   -1.441698
 H    4.623033   -2.718029   -2.542636
 H    3.299995   -0.622534   -2.746192
 H    5.300968    0.998995    0.630029
 H    6.628518   -1.084246    0.866564
 H    2.828351    1.903130    2.121557
 H    3.396917    3.174444    1.006294
 H    0.491144    2.822143    1.851069
 H    0.900572    3.901261   -0.376824
 H    1.905773    5.111508    0.409056
 H    0.180055    5.025042    0.786119
 H    2.587989    4.811034    2.838098
 H    1.893787    3.491117    3.783436
 H    0.876369    4.835330    3.265915
 H    2.046262   -0.303077   -0.111599
 H    1.310985    0.371014    1.350752
 H   -0.296242    1.609668   -0.305826
 H    0.953064    0.847088   -2.177694
 H   -1.020175   -0.208868    1.227647
 H   -2.202261   -0.066661   -1.457157
 H   -5.385552    1.359902    0.920433
 H   -6.377673    0.872242   -1.925089
 H   -6.473354    2.402890   -1.003558
 H   -8.507789   -0.304012    0.938272
 H   -7.225613   -2.845369   -1.775839
 H   -5.046669   -2.265796   -0.337147
 H   -6.155462   -0.756146    1.585423
 H   -0.235917   -1.981502   -1.132067
 H   -1.391980   -2.478654    0.117396
 H    1.945965   -2.780534   -0.820602
 H    3.785219   -3.526707    0.627193
 H    3.509475   -3.521054    3.079789
 H    1.370115   -2.789976    4.069072
 H   -0.471618   -2.052139    2.618079
