70 
5kr0_ligand_xtb.xyz
 C    6.571189    0.903751    0.913189
 C    6.817876   -0.396646   -1.112480
 C    3.562387    0.702379    0.101450
 C    5.790680   -0.036648   -0.032102
 C    1.243692    1.407955   -0.070898
 C    0.498213    0.165796   -0.616155
 C    0.578181    2.729803   -0.471629
 C   -0.813484    2.856483    0.075729
 C   -1.913083    2.821347   -0.772220
 C   -1.027262    2.994137    1.442298
 C   -3.197662    2.915763   -0.266540
 C   -2.310999    3.077009    1.950667
 C   -3.400348    3.035754    1.096969
 C   -0.699579   -0.229338    0.271833
 C   -0.699277   -2.521977    1.260431
 C    0.786963   -2.906500    1.305653
 C   -3.591773   -1.050226   -0.516841
 C   -4.239277   -0.308352   -1.487549
 C   -5.349986    0.437074   -1.152901
 C   -5.818197    0.458025    0.165959
 C   -5.148282   -0.300127    1.133889
 C   -4.047458   -1.054685    0.789366
 C    1.173985   -3.641979    0.026382
 C    1.051388   -3.776084    2.531936
 C    8.120778    0.205318   -0.570858
 N    2.610507    1.408150   -0.549914
 N   -1.011345   -1.632891    0.169567
 N   -6.942747    1.163087    0.493309
 O    4.684887    0.614028   -0.648852
 O    3.449485    0.241369    1.212202
 O    0.119245    0.416073   -1.942366
 O   -2.462356   -3.423881   -0.800890
 O   -1.699307   -1.580995   -2.237682
 O    7.730104    1.303135    0.220987
 S   -2.163443   -2.030831   -0.946691
 H    6.837913    0.365008    1.833021
 H    5.999424    1.795238    1.170606
 H    6.522002    0.094238   -2.038577
 H    6.893035   -1.467678   -1.279981
 H    5.412180   -0.904729    0.517172
 H    1.310871    1.320928    1.017866
 H    1.213541   -0.673256   -0.582719
 H    0.548881    2.775196   -1.560138
 H    1.202254    3.544863   -0.097997
 H   -1.758613    2.708661   -1.834651
 H   -0.180429    3.038530    2.111929
 H   -4.041369    2.893385   -0.939833
 H   -2.462598    3.180166    3.015362
 H   -4.402553    3.105730    1.493946
 H   -1.575418    0.348760   -0.040092
 H   -0.483426    0.008709    1.316092
 H   -0.993453   -2.063508    2.215127
 H   -1.297736   -3.419652    1.094187
 H    1.382516   -1.990955    1.390566
 H   -3.855051   -0.326300   -2.494715
 H   -5.868629    1.010254   -1.907268
 H   -5.506117   -0.291787    2.152711
 H   -3.532394   -1.649241    1.527251
 H    2.245837   -3.825077   -0.000217
 H    0.653542   -4.595394   -0.030618
 H    0.894355   -3.057386   -0.846961
 H    2.100886   -4.055303    2.574918
 H    0.453385   -4.683889    2.488210
 H    0.802851   -3.241402    3.445954
 H    8.655249   -0.534607    0.044695
 H    8.787653    0.575859   -1.348837
 H    2.748186    1.571830   -1.535757
 H   -7.277521    1.854134   -0.155039
 H   -7.135201    1.328043    1.465786
 H   -0.482323   -0.300498   -2.226327
