53 
5ksx_ligand_dft.xyz
 C   -5.044756   -1.920773   -0.334414
 C   -6.335083   -1.690097   -0.794708
 C   -6.716264   -0.439060   -1.283682
 C   -8.106359   -0.202346   -1.815900
 C   -5.763148    0.582770   -1.284967
 C   -4.474124    0.363831   -0.819425
 C   -4.092470   -0.897365   -0.345757
 C   -2.716413   -1.111028    0.125236
 S   -2.383380   -2.166242    1.491406
 C   -1.589341   -0.524780   -0.359116
 C   -0.414364   -0.897508    0.368716
 C   -0.683522   -1.786811    1.414894
 N    0.215526   -2.244317    2.291014
 C    1.430380   -1.747889    2.114764
 N    1.826666   -0.868866    1.181883
 C    0.922670   -0.456618    0.300984
 N    1.341662    0.428316   -0.678308
 C    2.342051    1.436916   -0.333773
 C    3.737926    0.830799   -0.198457
 O    4.580938    1.349300    0.524316
 N    3.988954   -0.237478   -1.008516
 P    5.450027   -1.108732   -1.092558
 O    6.171141   -0.748931    0.268622
 O    6.218461   -0.285239   -2.251416
 O    5.271109   -2.534605   -1.394415
 C    1.969694    2.303766    0.887823
 C    0.519847    2.724759    0.814784
 C   -0.427505    2.157940    1.669368
 C   -1.781116    2.456098    1.537046
 C   -2.207116    3.337219    0.547834
 C   -1.270981    3.920884   -0.304054
 C    0.080234    3.616759   -0.168943
 H   -4.772671   -2.910508    0.022799
 H   -7.059056   -2.500638   -0.778234
 H   -8.829430   -0.888226   -1.364601
 H   -8.139639   -0.356220   -2.901158
 H   -8.439997    0.821305   -1.619616
 H   -6.039255    1.571009   -1.644818
 H   -3.759143    1.181832   -0.795170
 H   -1.609243    0.158509   -1.200666
 H    2.198067   -2.078889    2.808282
 H    0.572381    0.826335   -1.199881
 H    2.404775    2.087084   -1.215798
 H    3.181354   -0.646255   -1.466100
 H    5.862622    0.133335    0.593180
 H    6.847456   -0.863018   -2.704997
 H    2.640194    3.167755    0.908938
 H    2.157965    1.733808    1.800673
 H   -0.103453    1.456825    2.434238
 H   -2.502367    1.992284    2.203055
 H   -3.262478    3.572127    0.443772
 H   -1.593201    4.619380   -1.070802
 H    0.804504    4.080436   -0.836107
