35 
5ktu_ligand_dft.xyz
 C   50.338085  121.335027    6.859012
 C   51.414782  120.530472    6.109644
 N   51.127224  120.484371    4.680080
 C   50.332966  119.454037    4.229400
 O   50.008516  118.534888    4.965365
 C   49.899618  119.483516    2.775050
 C   51.262225  121.771228    4.002597
 C   50.534096  122.816888    4.797949
 C   50.118583  122.598051    6.090182
 N   49.496576  123.724650    6.488401
 N   49.479981  124.690312    5.533602
 C   50.114345  124.141621    4.504920
 N   50.336397  124.776122    3.296576
 C   49.934549  126.036655    2.853365
 C   50.320985  126.420761    1.560202
 C   49.954183  127.657104    1.049824
 C   49.194180  128.539154    1.814490
 C   48.812081  128.157885    3.096021
 C   49.171778  126.921734    3.625069
 H   49.417353  120.742145    6.911245
 H   50.662851  121.537401    7.886066
 H   51.461587  119.507398    6.478892
 H   52.393956  121.004756    6.241406
 H   49.439223  118.520640    2.554402
 H   49.158865  120.272059    2.602510
 H   50.740567  119.646433    2.094052
 H   52.331979  122.009858    3.908848
 H   50.866453  121.695747    2.987287
 H   49.059985  123.917998    7.373777
 H   50.892065  124.250041    2.641944
 H   50.914026  125.740564    0.951678
 H   50.265820  127.930929    0.045881
 H   48.906391  129.506955    1.416375
 H   48.219923  128.833268    3.707295
 H   48.871804  126.638331    4.624597
