56 
5ku3_ligand_dft.xyz
 C   -3.378521    0.513586   -0.218519
 C   -1.307714   -0.231873   -0.322185
 C   -5.283972   -2.752162    0.607495
 C   -4.870785    0.588193   -0.222671
 C   -6.742934   -2.533291    0.971660
 C   -2.736680    2.921771    0.203141
 C   -2.012388    3.443213    1.466207
 C   -0.954712    4.384759    0.882842
 C   -2.179201    3.832563   -0.924353
 C    1.129979   -0.781307   -0.339619
 C    1.685972    0.494749   -0.209394
 C    3.065228    0.653811   -0.114672
 C    3.942406   -0.431750   -0.155179
 C    3.389803   -1.711818   -0.295629
 C    2.024716   -1.858285   -0.377377
 C    5.394259   -0.242233   -0.051056
 C    6.167053    0.867352   -0.465068
 C    6.334382   -1.106695    0.480417
 C    8.827018   -1.002172    0.799105
 C   -3.295401   -1.990057   -0.582233
 C   -5.385571   -0.716689   -0.856992
 C   -2.660283   -0.645697   -0.392276
 F    1.494432   -3.097891   -0.513952
 N   -1.208846    1.076276   -0.118677
 N   -2.491219    1.519565   -0.058443
 N   -0.222758   -1.075619   -0.449760
 N    7.459296    0.701830   -0.214198
 N    7.541257   -0.507127    0.362497
 N   -4.724073   -1.883774   -0.297635
 O   -1.560632    4.920731   -0.279770
 O   -4.646458   -3.671365    1.096156
 H   -5.261829    0.689717    0.798120
 H   -5.236553    1.445003   -0.800549
 H   -6.913459   -1.538411    1.396376
 H   -7.005867   -3.285485    1.714821
 H   -7.399267   -2.651247    0.103130
 H   -3.818559    3.030026    0.301307
 H   -2.710304    4.002194    2.095471
 H   -1.585757    2.623851    2.047330
 H   -0.688807    5.217261    1.537348
 H   -0.043957    3.825219    0.621777
 H   -2.953640    4.224649   -1.587974
 H   -1.454148    3.254143   -1.514558
 H    1.028119    1.352068   -0.171894
 H    3.465672    1.655382    0.012037
 H    4.014782   -2.596507   -0.360237
 H    5.827143    1.770246   -0.954908
 H    6.227266   -2.076468    0.945439
 H    8.697459   -2.003932    1.212288
 H    9.516178   -1.043187   -0.047461
 H    9.240499   -0.343187    1.566531
 H   -2.893621   -2.741966    0.101510
 H   -3.151552   -2.362996   -1.607588
 H   -6.464469   -0.803226   -0.734392
 H   -5.182425   -0.692926   -1.935201
 H   -0.437586   -2.057987   -0.512606
