23 
5ku6_ligand_xtb.xyz
 N    3.499594    0.214414   -1.142281
 S    2.693042   -0.436888    0.122971
 O    3.223485   -0.009454    1.366618
 O    2.359506   -1.798097   -0.134465
 C    1.058036    0.337908   -0.021599
 S   -0.236593   -0.823324   -0.031271
 C   -1.303932    0.535790   -0.018716
 N   -0.633045    1.692206   -0.009461
 C   -1.203114    3.017312    0.006462
 N    0.696476    1.563916   -0.006229
 N   -2.646961    0.424185   -0.014473
 C   -3.215116   -0.870430   -0.011603
 O   -2.469994   -1.811574   -0.026287
 C   -4.699060   -0.887842    0.007278
 H    4.234600    0.853381   -0.887874
 H    3.770190   -0.444485   -1.853534
 H   -1.808960    3.191239   -0.883346
 H   -1.803275    3.171041    0.903875
 H   -0.372761    3.720587    0.013641
 H   -3.240152    1.244974   -0.000692
 H   -5.047062   -1.916608    0.046252
 H   -5.078312   -0.348873    0.873763
 H   -5.094756   -0.414336   -0.890055
