67 
5kup_ligand_dft.xyz
 C    9.115830    0.820990   -0.105253
 C    5.195140   -0.005044    1.326984
 C    6.713857    0.101541   -0.559259
 C    5.665720   -0.311632   -1.378005
 C    2.787086   -0.707226    1.045654
 C    4.396915   -0.571462   -0.855244
 C    3.303486   -0.996843   -1.698018
 C    4.133540   -0.422618    0.518728
 C    8.619922   -0.914683   -1.825082
 C    7.976072    1.487760   -2.219976
 C    8.096922    0.374085   -1.162283
 N    2.116749   -1.255421   -1.268823
 N    1.880499   -1.115471    0.056987
 O    2.437318   -0.615430    2.203999
 C    6.452062    0.251451    0.808571
 F    5.022946    0.160375    2.634655
 C    0.546157   -1.454385    0.469697
 C   -0.466142   -0.505334    0.326955
 C   -1.742741   -0.868126    0.781068
 C   -1.923457   -2.154696    1.287715
 C   -0.837404   -3.018378    1.341968
 N    0.389601   -2.677186    0.949931
 C   -2.870821    0.092382    0.744497
 C   -3.999587   -0.117654    0.070935
 C   -5.090112    0.922185    0.142339
 C   -4.492771    2.338615    0.097418
 O   -5.031499    3.227658   -0.552456
 N   -3.361477    2.496263    0.819533
 C   -2.741389    1.381583    1.526718
 C   -2.726411    3.796066    0.919234
 N   -6.056282    0.838641   -0.922619
 C   -7.044072   -0.095001   -0.923874
 C   -8.117945   -0.026869   -1.835845
 C   -9.048347   -1.037922   -1.764973
 N   -8.973664   -2.055339   -0.887524
 C   -7.922499   -2.013142   -0.079904
 N   -6.951828   -1.098967   -0.039213
 C   -0.192224    0.829234   -0.319410
 O    0.372984    1.709419    0.644541
 H    9.268100    0.055160    0.663066
 H   10.083026    1.002666   -0.585145
 H    8.811733    1.751679    0.386222
 H    5.819636   -0.442727   -2.445246
 H    3.453457   -1.118372   -2.766979
 H    7.961490   -1.255874   -2.630189
 H    9.611678   -0.739244   -2.256864
 H    8.703894   -1.724292   -1.092419
 H    8.958302    1.698140   -2.657832
 H    7.301993    1.205457   -3.034922
 H    7.596170    2.412330   -1.772235
 H    7.217739    0.569467    1.505106
 H   -2.898956   -2.466866    1.645595
 H   -0.952556   -4.028580    1.726642
 H   -4.177304   -1.007378   -0.523411
 H   -5.595390    0.814013    1.117973
 H   -1.690292    1.634125    1.686667
 H   -3.196507    1.256465    2.521904
 H   -1.675270    3.715223    0.623001
 H   -3.250299    4.486214    0.258623
 H   -2.771515    4.172065    1.947832
 H   -6.215542    1.726728   -1.385483
 H   -8.202204    0.781393   -2.554284
 H   -9.903620   -1.047599   -2.437338
 H   -7.835899   -2.821911    0.643434
 H   -1.131024    1.236594   -0.720275
 H    0.492611    0.682301   -1.162799
 H    0.753698    2.459392    0.172752
