52 
5kva_ligand_dft.xyz
 N    2.330768    2.427073    0.474509
 C    2.891448    1.072162    0.162149
 C    4.372317    1.293188   -0.106716
 O    5.094009    0.189183    0.053087
 O    4.810821    2.372259   -0.425298
 C    2.142169    0.472912   -1.044092
 C    2.530089   -0.971409   -1.339231
 S    1.903541   -2.171057    0.285195
 C    3.369175   -3.218185   -0.018513
 C    0.357303   -2.501609   -0.669811
 C   -0.796852   -2.967380    0.208797
 O   -1.055685   -2.006347    1.245751
 C   -2.112878   -3.073844   -0.563172
 O   -2.970085   -3.911839    0.157520
 C   -2.616148   -1.628445   -0.513678
 O   -3.995795   -1.586422   -0.676944
 C   -2.130043   -1.191648    0.890081
 N   -1.655730    0.200686    0.873426
 C   -0.491512    0.666104    1.389763
 N   -0.294631    1.950136    1.159298
 C   -1.421432    2.350799    0.458932
 C   -1.851058    3.578495   -0.082828
 N   -1.127737    4.723386    0.022590
 N   -2.999644    3.606174   -0.764931
 C   -3.713027    2.482674   -0.888027
 N   -3.436088    1.275792   -0.393839
 C   -2.275618    1.271024    0.271322
 H    2.861251    2.887040    1.218590
 H    2.416567    3.030182   -0.349171
 H    1.301719    2.353477    0.774518
 H    2.753254    0.447754    1.048124
 H    6.019120    0.398721   -0.165024
 H    2.312055    1.133802   -1.908021
 H    1.068875    0.536198   -0.812196
 H    3.609246   -1.054142   -1.486046
 H    2.061467   -1.283980   -2.278300
 H    3.439875   -3.949181    0.789863
 H    4.247818   -2.573049   -0.054893
 H    3.254456   -3.732972   -0.975009
 H    0.598067   -3.260235   -1.421308
 H    0.118653   -1.572384   -1.191039
 H   -0.567536   -3.912566    0.704597
 H   -1.967495   -3.420358   -1.596129
 H   -3.876143   -3.664099   -0.080749
 H   -2.100485   -1.028682   -1.277895
 H   -4.246288   -0.644439   -0.694832
 H   -2.934792   -1.276489    1.625782
 H    0.190694    0.006393    1.906316
 H   -1.605771    5.562157   -0.280042
 H   -0.530358    4.831066    0.828799
 H   -4.636223    2.570368   -1.452772
 H    1.447003   -3.194098    1.203556
