40 
5kzq_ligand_xtb.xyz
 C   -4.404555    2.014267   -0.116094
 C    2.818064   -0.747007   -0.159003
 C    5.080778   -0.458983   -0.882139
 C    3.923601    1.322699    0.253128
 C    5.065508    0.829324   -0.374868
 C    2.795294    0.533233    0.372644
 C    3.951636   -1.251075   -0.776587
 C   -0.677945   -0.673292    1.716044
 C   -3.715839    0.688052   -0.262658
 C   -2.594914    0.541086   -1.255963
 C   -2.288559    0.575792    0.213651
 C   -1.208975   -1.365426   -0.733325
 C   -2.285521   -0.880845   -1.730006
 C   -1.742206   -0.790776    0.607748
 C    0.186652   -0.861720   -1.064841
 N   -2.826590   -1.726065    1.052176
 O   -5.554343    2.110589    0.205306
 O   -0.030118    0.312594    1.895815
 O   -3.597308    3.039219   -0.369105
 O   -0.664487   -1.766824    2.475291
 O   -3.384404   -1.769800   -1.578016
 F    6.150576    1.597059   -0.486589
 F    3.906170    2.562278    0.751797
 S    1.379866   -1.788216   -0.011695
 H    5.976679   -0.824716   -1.357078
 H    1.931041    0.921500    0.888798
 H    3.950674   -2.255991   -1.167362
 H   -4.420887   -0.122238   -0.134277
 H   -2.361609    1.365378   -1.909450
 H   -1.833100    1.434185    0.684980
 H   -1.177701   -2.458773   -0.711619
 H   -1.921596   -0.895543   -2.759887
 H    0.431677   -1.070533   -2.105424
 H    0.296005    0.202405   -0.865226
 H   -3.464766   -1.282155    1.722133
 H   -2.391438   -2.545604    1.497872
 H   -3.335953   -1.999851    0.174215
 H   -4.063298    3.885567   -0.268322
 H    0.040432   -1.726824    3.142723
 H   -4.031453   -1.625127   -2.277766
