47 
5l15_ligand_dft.xyz
 C   -2.741643   -1.819717   -0.464070
 O   -2.706193   -3.015710   -1.033448
 O   -3.389986   -0.897762   -0.931120
 C   -1.888997   -1.766086    0.788981
 C   -2.189170   -0.537578    1.660177
 C   -1.735347    0.805932    1.055932
 C   -0.559817    0.647755    0.066957
 N    0.269819    1.836577   -0.056159
 C   -0.144660    3.016900   -0.574998
 O   -1.339056    3.282675   -0.758186
 C    0.930614    4.008628   -0.927589
 C    0.340441   -0.497443    0.561735
 C   -0.375337   -1.850293    0.436161
 O    1.504793   -0.434706   -0.214145
 C    2.608761   -1.272975    0.170401
 C    3.154775   -0.910703    1.556311
 C    3.628161   -1.143740   -0.955974
 C    3.104161   -1.663694   -2.293304
 C    3.478934    0.569620    1.754760
 N   -2.875841    1.473492    0.348537
 H   -3.255207   -2.993998   -1.836093
 H   -2.156800   -2.661184    1.358630
 H   -1.667841   -0.675560    2.611878
 H   -3.255638   -0.494570    1.905989
 H   -1.425625    1.488410    1.851212
 H   -0.957050    0.376072   -0.922764
 H    1.256093    1.609342   -0.129629
 H    1.879872    3.802446   -0.428027
 H    0.587799    5.011775   -0.669328
 H    1.088373    3.980086   -2.010791
 H    0.578802   -0.297379    1.618797
 H   -0.233598   -2.212099   -0.587077
 H    0.104415   -2.576396    1.096766
 H    2.259689   -2.316158    0.194051
 H    2.449174   -1.237731    2.331120
 H    4.056573   -1.512817    1.713952
 H    4.526137   -1.700080   -0.664247
 H    3.924410   -0.092781   -1.053969
 H    2.836386   -2.724270   -2.223021
 H    3.863787   -1.564382   -3.073415
 H    2.216576   -1.108369   -2.609371
 H    3.931958    0.731834    2.736546
 H    4.184950    0.935839    1.003246
 H    2.577466    1.191735    1.706650
 H   -3.585343    1.812077    0.999972
 H   -2.460671    2.286921   -0.197876
 H   -3.304251    0.775133   -0.287533
