45 
5l17_ligand_dft.xyz
 C    1.621385    2.760746    0.798193
 O    2.936041    2.977092    0.980197
 O    0.803590    2.886045    1.675150
 C    1.336508    2.342153   -0.643713
 C    2.122265    1.096394   -1.046174
 C    1.631201   -0.098855   -0.230602
 C    0.115352   -0.273318   -0.396955
 N   -0.395074   -1.245397    0.549763
 C   -0.659723   -2.545517    0.221565
 O   -0.325276   -3.012092   -0.859499
 C   -1.435608   -3.313194    1.266278
 C   -0.665916    1.045572   -0.227655
 O   -0.037063    2.154985   -0.870078
 C   -2.044147    1.025622   -0.901248
 O   -2.694953    2.265169   -0.691171
 C   -3.034242   -0.045936   -0.453870
 O   -4.222301    0.071705   -1.224652
 C   -3.425793   -0.005094    1.022925
 O   -4.289271   -1.082012    1.313717
 N    2.291039   -1.323273   -0.622179
 C    3.539415   -1.649721   -0.111895
 N    3.924186   -2.939959   -0.460134
 N    4.318739   -0.930100    0.608692
 H    3.053660    3.243788    1.906657
 H    1.627120    3.184258   -1.280192
 H    3.195092    1.245371   -0.902982
 H    1.946814    0.903433   -2.109407
 H    1.814761    0.099835    0.840453
 H   -0.069827   -0.679891   -1.398453
 H   -0.591342   -0.933857    1.489255
 H   -0.975099   -3.215538    2.255053
 H   -1.469099   -4.365626    0.985612
 H   -2.456138   -2.913576    1.326362
 H   -0.772358    1.279353    0.839448
 H   -1.867156    0.871387   -1.977598
 H   -2.058802    2.954816   -0.924837
 H   -2.633286   -1.034744   -0.689042
 H   -4.437263    1.016792   -1.232151
 H   -3.894741    0.964609    1.243689
 H   -2.561497   -0.108317    1.683640
 H   -4.942143   -1.083571    0.598070
 H    1.672663   -2.107686   -0.806898
 H    3.697151   -3.211665   -1.407687
 H    4.894802   -3.104629   -0.229565
 H    3.884136   -0.053684    0.887176
