29 
5l26_ligand_dft.xyz
 N    0.795670   -0.129726   -0.435689
 C    1.580615   -1.191654   -0.037338
 N    2.900319   -0.888441    0.173952
 C    3.530475    0.367240    0.054392
 C    2.613467    1.415477   -0.356579
 C    1.316015    1.132848   -0.581227
 O    1.131932   -2.323599    0.118630
 O    4.716500    0.479159    0.288467
 C   -0.626022   -0.443627   -0.720980
 C   -1.399961   -0.880938    0.545583
 C   -2.765187   -0.217537    0.331582
 C   -2.409857    1.038032   -0.463252
 O   -1.577122   -2.266681    0.644369
 O   -3.575209   -1.036554   -0.472343
 O   -1.252578    0.687421   -1.237974
 C   -2.132061    2.275907    0.369647
 O   -1.116516    1.975354    1.306343
 H    3.484884   -1.660974    0.467701
 H    3.004071    2.415453   -0.483552
 H    0.593320    1.870209   -0.899017
 H   -0.631662   -1.248317   -1.463770
 H   -0.910481   -0.459340    1.430260
 H   -3.255760    0.023381    1.284485
 H   -3.213690    1.261121   -1.170478
 H   -0.691799   -2.656761    0.528665
 H   -3.302087   -1.946655   -0.272049
 H   -1.825369    3.088023   -0.305570
 H   -3.065887    2.578560    0.866925
 H   -0.918409    2.767197    1.817673
