63 
5l2i_ligand_xtb.xyz
 O    6.901168   -0.141278    1.473528
 C    6.295236    0.283068    0.520600
 C    6.880282    1.242641   -0.471016
 C    4.877738   -0.135532    0.245359
 C    4.522431   -1.448823    0.198409
 C    5.499500   -2.569476    0.338733
 C    3.140083   -1.769923   -0.005087
 C    2.617946   -3.067434   -0.069597
 N    1.336530   -3.319955   -0.193368
 C    0.512420   -2.265207   -0.241087
 N    0.881989   -0.995761   -0.245701
 C    2.189205   -0.731480   -0.143435
 N    2.585539    0.565874   -0.171367
 C    1.589231    1.603330   -0.433969
 C    1.282883    2.468110    0.799676
 C    0.914951    3.824879    0.208348
 C    1.931080    3.978426   -0.919531
 C    1.986679    2.587275   -1.555956
 C    3.907703    0.945178    0.079650
 O    4.192308    2.124744    0.154860
 N   -0.806514   -2.608536   -0.300956
 C   -1.942691   -1.850350   -0.205970
 N   -3.071574   -2.554365   -0.302141
 C   -4.225964   -1.935802   -0.197486
 C   -4.351606   -0.562413    0.001716
 C   -3.171199    0.176047    0.096415
 C   -1.955349   -0.466049   -0.002819
 N   -5.640342    0.001078    0.147073
 C   -5.785359    1.293405    0.767006
 C   -7.177468    1.362281    1.397257
 N   -8.201436    1.149269    0.338313
 C   -7.997887   -0.160016   -0.340519
 C   -6.587395   -0.183228   -0.926163
 H    6.377772    2.201416   -0.351281
 H    7.944466    1.361753   -0.288246
 H    6.704012    0.895816   -1.487015
 H    6.507133   -2.199942    0.492243
 H    5.231569   -3.187269    1.194449
 H    5.481509   -3.196793   -0.551898
 H    3.258132   -3.936031   -0.015902
 H    0.696523    1.056761   -0.739777
 H    2.183472    2.571829    1.402853
 H    0.495949    2.033887    1.416795
 H    0.977603    4.627089    0.940940
 H   -0.099724    3.799648   -0.196845
 H    2.904180    4.219886   -0.495371
 H    1.655613    4.749348   -1.636971
 H    1.269565    2.508906   -2.374449
 H    2.974487    2.369583   -1.954304
 H   -0.967774   -3.607103   -0.364773
 H   -5.096429   -2.575123   -0.267356
 H   -3.190833    1.245344    0.245866
 H   -1.026669    0.068380    0.080582
 H   -5.661585    2.129451    0.055459
 H   -5.041506    1.399465    1.556718
 H   -7.341557    2.328670    1.875298
 H   -7.281043    0.567943    2.137834
 H   -8.103388    1.895933   -0.363026
 H   -9.144830    1.205030    0.736942
 H   -8.749900   -0.290126   -1.119345
 H   -8.101365   -0.951811    0.402807
 H   -6.409868   -1.142259   -1.410599
 H   -6.497369    0.605934   -1.694898
