40 
5l2n_ligand_xtb.xyz
 C   -0.656713   -1.204346   -0.208663
 C   -0.913213    0.716684   -1.625404
 C   -2.278000    0.660001   -1.464637
 C   -2.843164   -0.337128   -0.670723
 O    2.018551   -3.025602    0.971632
 C    1.443029   -2.164855    0.351693
 O    0.078585   -2.132631    0.436566
 C    2.095919   -1.156258   -0.482035
 C    3.596938   -1.253430   -0.524004
 C    4.274289   -0.054574    0.089356
 C    3.803650    0.481881    1.281661
 C    4.426908    1.574520    1.855850
 C    5.533351    2.143754    1.247979
 C    6.014546    1.610756    0.065129
 C    5.386960    0.519821   -0.510845
 C    1.373782   -0.211100   -1.137111
 C    2.007294    0.837543   -1.993921
 C   -0.066707   -0.212584   -1.006366
 C   -2.037357   -1.264038   -0.035609
 O   -4.204738   -0.409364   -0.515441
 S   -4.894388    0.732299    0.408400
 O   -6.247236    0.841527   -0.014199
 O   -4.064187    1.894468    0.412821
 C   -4.825020   -0.061660    2.021487
 H   -0.490372    1.495304   -2.238346
 H   -2.925586    1.381277   -1.934526
 H    3.937452   -1.388881   -1.553312
 H    3.878348   -2.146111    0.043096
 H    2.947239    0.033447    1.764210
 H    4.049928    1.981717    2.782548
 H    6.020379    2.996719    1.696564
 H    6.880588    2.045225   -0.412387
 H    5.770425    0.108069   -1.434506
 H    3.083674    0.720667   -2.034691
 H    1.606345    0.785302   -3.005098
 H    1.788393    1.825159   -1.590673
 H   -2.457663   -2.045424    0.576779
 H   -5.293719    0.604825    2.732589
 H   -5.367813   -0.993558    1.949721
 H   -3.784181   -0.217620    2.269599
