62 
5l2t_ligand_dft.xyz
 C   24.404258   34.407749   -8.911005
 C   25.969664   32.927901   -8.135284
 C   25.851020   33.471350   -6.853757
 C   24.940355   34.540734   -6.749273
 C   21.385556   36.771208  -11.779584
 N   22.320369   35.870729  -11.472184
 C   26.386013   33.252492   -5.547636
 C   21.206413   37.484253   -9.524251
 C   20.777523   37.618589  -10.851043
 C   25.815286   34.184675   -4.730639
 C   22.724718   35.774220  -10.206453
 C   26.088396   34.308420   -3.266336
 C   21.776487   36.849903   -4.742637
 C   22.597614   37.905533   -5.512423
 C   22.510269   35.535811   -5.013718
 C   24.046008   37.359673   -5.570322
 C   20.081735   39.944369  -10.896667
 C   19.130477   38.393139  -12.480395
 C   18.816896   40.799424  -10.978301
 C   17.869061   39.257889  -12.547274
 C   23.982394   35.959862   -4.911805
 C   26.663644   35.664183   -1.352817
 C   26.984600   36.608701   -3.591859
 C   22.187597   36.572775   -9.185835
 N   25.263581   33.384952   -9.155505
 N   24.198408   35.022624   -7.749656
 N   24.929324   34.990897   -5.458880
 N   19.762172   38.544442  -11.178208
 N   23.707109   34.802579  -10.023132
 N   26.417862   35.549035   -2.778391
 N   18.106306   40.664606  -12.244718
 O   26.013097   33.323011   -2.548338
 H   26.646410   32.101818   -8.346613
 H   21.108243   36.804338  -12.829573
 H   27.107032   32.511699   -5.234429
 H   20.746563   38.088778   -8.746923
 H   21.793410   37.068377   -3.667524
 H   20.728035   36.822763   -5.052177
 H   22.542726   38.890141   -5.039452
 H   22.202095   38.020596   -6.527005
 H   22.263189   34.736480   -4.309184
 H   22.297726   35.179965   -6.027058
 H   24.388012   37.270785   -6.603538
 H   24.753689   38.006221   -5.043717
 H   20.522069   40.023944   -9.899098
 H   20.832104   40.323144  -11.618077
 H   18.866351   37.340375  -12.625054
 H   19.812820   38.685470  -13.303598
 H   19.068512   41.853547  -10.821165
 H   18.133205   40.496047  -10.175815
 H   17.417845   39.178997  -13.541790
 H   17.142098   38.875900  -11.820368
 H   24.235544   36.055327   -3.853078
 H   26.070833   34.917727   -0.825915
 H   27.723142   35.498669   -1.115430
 H   26.381416   36.668112   -1.020078
 H   28.063441   36.698279   -3.406150
 H   26.834536   36.408830   -4.652384
 H   26.512827   37.566801   -3.346030
 H   22.527638   36.454507   -8.168044
 H   23.942200   34.296497  -10.865818
 H   18.672080   41.072138  -12.986587
