33 
5l3j_ligand_dft.xyz
 C  -10.224616   23.938584   28.160051
 C  -10.787654   22.909925   27.157198
 C  -10.844105   22.454800   24.709615
 C  -10.400348   22.964091   23.473416
 C  -12.515049   19.378170   21.596105
 N  -12.996808   18.484922   20.655008
 C  -14.141154   16.566102   19.756026
 C  -13.947502   16.661538   18.390297
 C  -14.601240   15.556440   17.809026
 N  -14.886312   15.443359   20.001417
 C  -11.887143   20.652271   23.560512
 O  -10.389452   23.864476   29.343587
 O   -9.528207   24.927396   27.556683
 O  -11.430733   21.969190   27.570736
 N  -10.485182   23.187384   25.859874
 C  -10.696948   22.323387   22.286733
 C  -11.452179   21.147718   22.321004
 N  -11.824358   20.401294   21.215936
 C  -13.741335   17.363653   20.919565
 O  -14.060901   17.035212   22.053625
Br  -14.696557   15.134380   15.997083
 C  -15.170797   14.824162   18.831946
Br  -16.165133   13.264098   18.751355
 S  -12.804724   19.181350   23.319054
 C  -11.597634   21.285132   24.766798
 H   -9.813345   23.878945   23.454179
 H  -12.752050   18.725022   19.703952
 H  -13.405040   17.424161   17.849750
 H  -15.160495   15.156612   20.931282
 H   -9.214541   25.522639   28.256481
 H   -9.935674   24.020622   25.703129
 H  -10.354888   22.716169   21.335543
 H  -11.936896   20.896797   25.717035
