29 
5l4i_ligand_xtb.xyz
 O   -3.780912   -2.451732    0.449207
 C   -2.661032   -1.787906    0.126301
 O   -1.632064   -2.416852   -0.008224
 C   -2.751910   -0.323549   -0.023942
 C   -3.977895    0.327495   -0.150190
 C   -4.036544    1.704490   -0.256939
 C   -2.836560    2.402012   -0.224223
 N   -1.661573    1.825064   -0.128657
 C   -1.573186    0.493340   -0.048847
 N   -0.360443   -0.090223    0.001708
 C    0.915764    0.456750    0.064485
 C    1.996504   -0.438000   -0.068198
 C    1.755733   -1.899571   -0.300354
 C    3.278687    0.090331    0.016747
Cl    4.667978   -0.939317   -0.131316
 C    3.512924    1.441675    0.219941
 C    2.436456    2.298606    0.343784
 C    1.144791    1.814307    0.269324
 H   -4.539434   -1.871057    0.592329
 H   -4.904939   -0.231947   -0.198936
 H   -4.977615    2.217496   -0.364794
 H   -2.815255    3.482060   -0.289750
 H   -0.400882   -1.110160   -0.013951
 H    1.220481   -2.348138    0.536733
 H    1.165913   -2.056856   -1.202903
 H    2.698559   -2.424985   -0.416002
 H    4.525448    1.807926    0.278192
 H    2.605495    3.352429    0.502110
 H    0.302127    2.476523    0.362803
