27 
5l4j_ligand_dft.xyz
 O   -0.013873    2.342137    1.275729
 S    0.000000    1.630360   -0.000033
 O    0.013878    2.342087   -1.275825
 C    1.404798    0.536448    0.012531
 C    1.896334    0.057728    1.226542
 C    2.973932   -0.811734    1.237046
 C    3.561176   -1.201833    0.029727
 O    4.610567   -2.054169    0.101946
 C    3.070629   -0.713283   -1.183664
 C    1.989222    0.157574   -1.190794
 C   -1.404793    0.536440   -0.012557
 C   -1.896292    0.057617   -1.226544
 C   -2.973890   -0.811843   -1.237008
 C   -3.561178   -1.201834   -0.029673
 O   -4.610571   -2.054171   -0.101859
 C   -3.070671   -0.713183    1.183691
 C   -1.989255    0.157670    1.190781
 H    1.444351    0.385225    2.156991
 H    3.381811   -1.193623    2.166410
 H    4.938327   -2.239926   -0.786420
 H    3.537483   -1.007251   -2.120752
 H    1.610172    0.559795   -2.124369
 H   -1.444285    0.385038   -2.157008
 H   -3.381746   -1.193810   -2.166350
 H   -4.938407   -2.239798    0.786506
 H   -3.537558   -1.007062    2.120790
 H   -1.610235    0.559972    2.124332
