18 
5l4m_ligand_xtb.xyz
 C    1.597788    1.499329   -0.002648
 C    0.216281    1.475069    0.011170
 C   -0.431307    0.227068    0.023402
 N    0.245418   -0.903597    0.020422
 C    1.565864   -0.888132    0.005276
 C    2.299243    0.296268   -0.005946
Cl    4.013797    0.284740   -0.023924
Cl    2.337421   -2.408996   -0.001259
 O   -1.768437    0.192245    0.036392
 C   -2.377000   -1.092609    0.046075
 C   -3.902024   -0.930715   -0.014389
 O   -4.330172    0.323721   -0.072185
 O   -4.636028   -1.872388   -0.010412
Cl   -0.706982    2.924021    0.012273
 H    2.129708    2.437097   -0.011568
 H   -2.105800   -1.641893    0.953917
 H   -2.040078   -1.685445   -0.810704
 H   -3.589743    0.953135   -0.063141
