49 
5l6h_ligand_xtb.xyz
 C   -6.558619    0.432659    0.066450
 C   -1.847285   -0.880695    0.146733
 C   -4.276841   -0.350519   -0.015560
 N    0.448667   -2.461680   -0.189409
 C    2.883878   -1.228699    1.067126
 N   -2.948906   -0.124308    0.335452
 C   -0.761174   -2.744560   -0.640652
 C   -8.308261    2.227436    0.817552
 C   -7.504929    1.404260    0.474513
 C   -5.214129    0.599142    0.381425
 C   -6.969155   -0.691587   -0.650654
 C   -6.031443   -1.628081   -1.042039
 C   -4.691333   -1.469914   -0.734099
 N   -1.873118   -2.045516   -0.508224
 C    0.487954   -1.294978    0.465212
 C   -0.608757   -0.444943    0.658885
 N   -0.205460    0.667814    1.354622
 C    1.065434    0.485025    1.580970
 N    1.544919   -0.683347    1.071972
 O    3.822200   -0.323957    1.555155
 C    3.280774   -1.609210   -0.384650
 O    3.174636   -2.974620   -0.641210
 C    4.738938   -1.132647   -0.463092
 O    5.633158   -2.125733   -0.054361
 C    4.749838    0.031557    0.539794
 C    4.376860    1.380182   -0.088353
 O    3.094468    1.297294   -0.689391
 S    2.293389    2.688111   -0.658971
 O    2.771527    3.531717   -1.699784
 O    2.296689    3.178969    0.679643
 N    0.815959    2.108038   -1.078975
 H    2.886144   -2.128422    1.706340
 H   -2.772919    0.719085    0.868051
 H   -0.856850   -3.673258   -1.186785
 H   -4.902851    1.471009    0.940156
 H   -8.013796   -0.817785   -0.891336
 H   -6.345461   -2.499483   -1.597098
 H   -3.960947   -2.200076   -1.037241
 H    1.691128    1.179394    2.103722
 H    2.673877   -1.016651   -1.081901
 H    2.222523   -3.193391   -0.602468
 H    4.989445   -0.786055   -1.474438
 H    5.227743   -2.979152   -0.268967
 H    5.730689    0.117039    1.016207
 H    5.114528    1.668640   -0.843767
 H    4.335268    2.143106    0.694977
 H    0.399790    2.646194   -1.818316
 H    0.212233    1.990845   -0.276669
 H   -9.011101    2.946261    1.117190
