56 
5l6i_ligand_xtb.xyz
 C    1.962173    2.108333    0.032562
 C    2.576352    1.303223   -1.131158
 C    3.286605    0.115443   -0.477621
 C    4.382363   -0.461166   -1.364564
 C   -1.638762    2.618167    0.093267
 C   -0.203336    0.859921    0.157399
 C   -0.685573   -1.302715    0.298473
 C   -2.473478    0.122083    0.279779
 C   -5.301964   -0.857436    1.937363
 C   -6.000766   -0.588568   -0.330823
 C   -7.131690   -0.916794    0.410787
 C   -8.499986   -0.391253   -1.468083
 C   -6.108961   -0.161215   -1.638838
 C   -6.747504   -1.354778    1.793456
 C   -8.387960   -0.824172   -0.153899
 C   -7.373060   -0.062775   -2.203111
 C   -4.754378   -0.762429    0.494082
 N   -3.809421    0.305572    0.305073
 N   -1.997824   -1.123553    0.335846
 N    0.261457   -0.394867    0.217776
 C   -1.573809    1.202825    0.177656
 C   -0.351257    3.057516    0.029005
 N    0.523826    2.003582    0.067881
 C    2.606786    1.547618    1.315628
 C    3.799562    0.705397    0.852382
 O    4.924347    1.538095    0.671241
 O    5.109883   -1.493490   -0.701329
 S    6.537236   -1.112387   -0.146713
 O    7.192065   -0.230030   -1.055585
 O    6.473504   -0.734578    1.231092
 N    7.226106   -2.611619   -0.221391
 H    2.193283    3.170138   -0.080119
 H    1.810187    0.983757   -1.835053
 H    3.306900    1.918770   -1.654966
 H    2.551845   -0.657040   -0.238248
 H    3.949185   -0.917485   -2.259197
 H    5.092379    0.317731   -1.658907
 H   -2.520946    3.227859    0.079032
 H   -0.355355   -2.332851    0.346259
 H   -4.691688   -1.506793    2.560902
 H   -5.297383    0.142047    2.378113
 H   -9.476910   -0.307777   -1.921220
 H   -5.226595    0.092771   -2.207644
 H   -6.788679   -2.445349    1.856478
 H   -7.408858   -0.950164    2.560034
 H   -9.269335   -1.077299    0.417122
 H   -7.479050    0.273910   -3.223874
 H   -4.225291   -1.681710    0.219574
 H   -4.155674    1.250963    0.340382
 H    0.018912    4.062171   -0.042882
 H    2.931717    2.337494    1.989049
 H    1.891285    0.905868    1.826802
 H    4.033044   -0.085583    1.571803
 H    5.713701    1.032157    0.900000
 H    7.899185   -2.684639   -0.964120
 H    7.592813   -2.907877    0.665980
