56 
5l72_ligand_dft.xyz
 N  -11.374229  -31.167493   20.380061
 N   -4.153354  -35.177901   22.754963
 C   -9.947380  -30.640541   22.291244
 C  -11.192719  -30.672822   21.694777
 C  -13.729193  -31.947228   19.266856
 C   -8.451933  -29.997661   24.215912
 C   -8.101806  -28.903016   24.953915
 C   -6.141882  -27.961950   26.333428
 C   -6.295099  -31.108654   24.593049
 C   -4.236640  -34.181020   23.786789
 C   -3.260115  -37.321143   22.021702
 C   -7.543142  -31.106547   24.042766
 O   -6.302647  -33.394425   22.783239
 C   -5.418614  -33.223072   23.596797
 C   -3.770886  -34.619632   21.462109
 C   -3.756606  -35.723815   20.415086
 O   -2.879611  -36.769475   20.781028
 C   -3.255828  -36.265569   23.120329
 N   -5.368697  -32.154669   24.463693
 C   -5.891272  -29.971086   25.373198
 C   -4.748606  -29.627661   26.047409
 O   -4.907587  -28.420144   26.624244
 C   -6.809511  -28.874645   25.559061
 C   -9.780776  -30.075951   23.565257
 C  -10.928647  -29.606188   24.190904
 N  -12.144391  -29.627866   23.633147
 S  -12.291504  -32.573405   20.111508
 O  -11.512381  -33.347496   19.156477
 O  -12.707170  -33.127767   21.386157
 C  -12.272083  -30.126666   22.420992
 O  -13.478314  -30.134619   21.828121
 C  -14.577417  -29.676816   22.605542
 H  -10.504266  -31.277025   19.868122
 H   -9.090452  -31.046177   21.758840
 H  -14.216352  -31.225367   19.919798
 H  -13.407728  -31.483339   18.334062
 H  -14.377110  -32.803048   19.067483
 H   -8.771417  -28.054859   25.053188
 H   -6.396793  -26.995094   26.736772
 H   -4.385740  -34.686403   24.750487
 H   -3.302596  -33.586689   23.884382
 H   -4.266823  -37.762872   21.950279
 H   -2.541220  -38.112835   22.248497
 H   -7.865727  -31.967226   23.473859
 H   -2.767056  -34.152471   21.511561
 H   -4.498961  -33.857169   21.175024
 H   -3.400812  -35.338066   19.456526
 H   -4.779015  -36.111772   20.286512
 H   -3.599873  -36.715266   24.059369
 H   -2.218175  -35.908044   23.272143
 H   -4.571994  -32.114728   25.081979
 H   -3.785947  -30.090880   26.198516
 H  -10.878304  -29.203114   25.199523
 H  -15.450482  -29.782455   21.960355
 H  -14.694395  -30.284418   23.506554
 H  -14.442725  -28.631741   22.896412
