53 
5l7g_ligand_xtb.xyz
 C    3.842632    2.542354    2.167383
 C    4.190915    1.686077    1.008495
 O    5.400032    0.556779   -0.363120
 C    1.870093   -1.424600   -1.156546
 C    0.480734   -1.463502   -1.304603
 C   -0.334067   -2.041241   -0.354969
 C    0.214663   -2.601702    0.787321
 C    1.585417   -2.590947    0.934810
 C    2.418242   -2.023046   -0.023677
 C    3.299118    1.146284    0.027513
 C   -0.339000    1.322216    0.917143
 C   -0.886675    1.837257   -0.250971
 C   -2.367154    2.088603   -0.357790
 C   -5.899565    1.550436    0.533171
 C   -0.053796    2.087034   -1.334862
 C    1.303963    1.849743   -1.249323
 N    5.418191    1.334058    0.745170
 C    4.135981    0.445481   -0.802833
 C    3.897100   -0.428788   -1.992606
 O    2.545964   -0.803318   -2.160122
 F    2.146343   -3.138908    2.027327
 F    3.754053   -2.075500    0.188568
 C    1.855910    1.357999   -0.070349
 C    1.020624    1.094327    1.011138
 N   -3.103656    0.929960   -0.840221
 S   -3.758604   -0.138278    0.273763
 O   -3.357088    0.235930    1.599261
 O   -3.464372   -1.468081   -0.185395
 C   -5.519237    0.174074    0.080902
 C   -6.130705   -0.509453   -1.096353
 C   -6.376884   -1.032042    0.285762
 H    3.504966    1.924494    2.998411
 H    4.720251    3.096847    2.486285
 H    3.040548    3.227596    1.901410
 H    0.072350   -1.012244   -2.194133
 H   -1.405142   -2.045764   -0.481196
 H   -0.402628   -3.042645    1.551512
 H   -0.988958    1.098996    1.749462
 H   -2.564428    2.922164   -1.041565
 H   -2.780881    2.319482    0.624345
 H   -5.540175    1.707337    1.548509
 H   -5.445615    2.296951   -0.116522
 H   -6.979891    1.680044    0.516605
 H   -0.471476    2.482664   -2.250227
 H    1.945336    2.055387   -2.093343
 H    4.559187   -1.301735   -1.925314
 H    4.143600    0.112614   -2.913331
 H    1.438382    0.696419    1.923563
 H   -2.628172    0.430566   -1.575516
 H   -5.469648   -1.077151   -1.732233
 H   -6.933995   -0.007737   -1.615161
 H   -7.350460   -0.895330    0.732631
 H   -5.876930   -1.944825    0.570366
