53 
5l7g_ligand_dft.xyz
 C    3.208281    3.022923    2.332868
 C    3.612230    2.232690    1.130295
 O    4.913347    1.235028   -0.255698
 C    2.146768   -1.354490   -0.982175
 C    0.837594   -1.427217   -0.507338
 C    0.513709   -2.276556    0.541765
 C    1.489918   -3.066966    1.143909
 C    2.786318   -2.996340    0.665963
 C    3.120269   -2.160980   -0.394607
 C    2.777195    1.700904    0.094306
 C   -0.903185    1.617423    0.922810
 C   -1.488235    1.938422   -0.301161
 C   -2.988992    2.070262   -0.466738
 C   -5.273562   -2.386090   -0.361567
 C   -0.654649    2.184788   -1.394034
 C    0.726460    2.125938   -1.263700
 N    4.875287    1.966511    0.912686
 C    3.671376    1.089595   -0.733921
 C    3.551788    0.297991   -2.000959
 O    2.390931   -0.520469   -2.034447
 F    3.752759   -3.744289    1.206598
 F    4.387244   -2.149081   -0.832635
 C    1.315202    1.804978   -0.037139
 C    0.478870    1.550283    1.052954
 N   -3.752842    1.309627    0.519890
 S   -4.988170    0.293057    0.028513
 O   -5.319247    0.567150   -1.363801
 O   -5.999632    0.387711    1.072014
 C   -4.268728   -1.342794    0.081078
 C   -2.815970   -1.492674   -0.265580
 C   -3.274641   -1.651858    1.161807
 H    2.449917    3.765981    2.069333
 H    2.784680    2.373456    3.106014
 H    4.079091    3.529934    2.753561
 H    0.096703   -0.783712   -0.968700
 H   -0.507618   -2.308090    0.906038
 H    1.266987   -3.731852    1.970419
 H   -1.534866    1.395761    1.777573
 H   -3.290795    1.732615   -1.462465
 H   -3.273015    3.128442   -0.408639
 H   -6.148949   -2.381360    0.294087
 H   -5.598435   -2.198571   -1.388458
 H   -4.812967   -3.377522   -0.317390
 H   -1.091044    2.429041   -2.359624
 H    1.355898    2.326155   -2.125263
 H    4.465132   -0.285862   -2.137097
 H    3.438357    0.961522   -2.862398
 H    0.912996    1.262395    2.005448
 H   -4.078117    1.829974    1.325994
 H   -2.234477   -0.605555   -0.495916
 H   -2.543805   -2.373916   -0.838926
 H   -3.328184   -2.646291    1.595037
 H   -3.005197   -0.860869    1.853904
