119 
5l7k_ligand_xtb.xyz
 N   -0.041349   -1.382018   -0.193185
 C    0.431950   -1.717921   -1.547096
 C    1.458481   -2.862532   -1.502608
 O    1.213694   -3.970600   -1.912567
 N    2.640340   -2.472618   -0.983522
 C    3.668834   -3.420221   -0.591575
 C    3.954036   -3.126855    0.892567
 O    3.630005   -3.893742    1.769593
 C    4.899215   -3.368359   -1.514172
 O    5.364690   -2.017996   -1.592380
 C    4.564851   -3.900489   -2.903413
 N    4.510275   -1.916255    1.123130
 C    4.287110   -1.269093    2.393931
 C    2.833701   -0.779106    2.411692
 O    2.125424   -0.826966    1.411392
 C    5.267557   -0.118128    2.584854
 N    2.399378   -0.299606    3.578852
 C    1.022811    0.088288    3.822585
 C    0.415368    0.799409    2.607902
 O   -0.638520    0.420664    2.117467
 C    0.964938    0.994665    5.057803
 O    1.849081    2.077297    4.863829
 N    1.075889    1.873250    2.176778
 C    0.592558    2.671410    1.067995
 C    1.147936    2.082863   -0.242532
 O    0.545020    1.193702   -0.826041
 C    0.931360    4.143732    1.304575
 O    2.324836    4.273660    1.520272
 N    2.298526    2.595936   -0.671122
 C    2.962420    2.085274   -1.850382
 C    3.697292    0.795840   -1.501868
 O    3.825050   -0.021049   -2.522618
 C    3.969133    3.104527   -2.391246
 C    3.329977    4.436619   -2.805805
 C    4.434005    5.431017   -3.159580
 C    2.380196    4.262170   -3.987736
 O    4.111449    0.555709   -0.391897
 C   -1.000282   -2.372182    0.430506
 O   -0.895937   -2.266721    1.795607
 C   -2.414744   -2.170698   -0.118809
 C   -2.971119   -0.745173    0.013696
 C   -2.817942    0.149587   -1.224196
 C   -3.420833   -0.414144   -2.515092
 C   -4.874942   -0.872627   -2.397927
 C   -5.835546    0.252357   -2.018212
 C   -7.300102   -0.188056   -2.027350
 C   -7.628626   -1.202955   -0.931553
 C   -9.130504   -1.506435   -0.825834
 C   -9.837667   -0.785388    0.323484
 C   -9.865380    0.733979    0.176149
 C  -10.629048    1.430088    1.304705
 C  -12.132947    1.187415    1.255919
 H   -0.465461   -0.436729   -0.217206
 H    0.762470   -1.279852    0.464925
 H    0.881072   -0.825042   -1.985459
 H   -0.412932   -2.032846   -2.160965
 H    2.704693   -1.561249   -0.546148
 H    3.239318   -4.425329   -0.661287
 H    5.680790   -3.986219   -1.052969
 H    6.197233   -2.013981   -2.078803
 H    3.766970   -3.313041   -3.351449
 H    5.440021   -3.857321   -3.548767
 H    4.235672   -4.932235   -2.837864
 H    4.688993   -1.284721    0.349817
 H    4.398910   -2.027259    3.178288
 H    6.283715   -0.502292    2.575473
 H    5.153490    0.592366    1.770187
 H    5.098190    0.392526    3.528520
 H    3.012628   -0.312700    4.379347
 H    0.408164   -0.804673    4.007248
 H    1.256100    0.410388    5.941309
 H   -0.066708    1.342143    5.195661
 H    1.814904    2.656314    5.632323
 H    1.922076    2.176822    2.639225
 H   -0.497216    2.546500    1.026880
 H    0.376758    4.492128    2.184058
 H    0.613643    4.731399    0.433543
 H    2.523920    5.176869    1.787789
 H    2.805548    3.236373   -0.071863
 H    2.204896    1.849803   -2.604269
 H    4.342078   -0.837700   -2.261423
 H    4.720349    3.288154   -1.618656
 H    4.472416    2.664834   -3.253810
 H    2.762456    4.834994   -1.957273
 H    4.005898    6.393486   -3.426102
 H    5.011905    5.069509   -4.006409
 H    5.109955    5.578668   -2.320473
 H    1.522684    3.648247   -3.724096
 H    2.008910    5.230517   -4.312420
 H    2.896338    3.798867   -4.824999
 H   -0.637358   -3.375847    0.173910
 H   -1.151619   -1.365042    2.074351
 H   -2.446723   -2.497389   -1.156295
 H   -3.045112   -2.857682    0.447901
 H   -4.034604   -0.818637    0.238618
 H   -2.509873   -0.239252    0.864131
 H   -3.313132    1.095344   -0.997311
 H   -1.769635    0.389963   -1.417778
 H   -2.821348   -1.255788   -2.871380
 H   -3.356419    0.363273   -3.279678
 H   -4.943950   -1.681289   -1.670756
 H   -5.181180   -1.278103   -3.364833
 H   -5.592091    0.633945   -1.024430
 H   -5.710304    1.073733   -2.728286
 H   -7.927523    0.694782   -1.898527
 H   -7.540271   -0.622299   -3.000320
 H   -7.093822   -2.130576   -1.142463
 H   -7.266970   -0.828730    0.029242
 H   -9.267997   -2.579368   -0.675477
 H   -9.619571   -1.247698   -1.766894
 H   -9.347503   -1.045153    1.265603
 H  -10.862004   -1.157866    0.372716
 H   -8.841006    1.112229    0.172123
 H  -10.324427    0.995676   -0.780126
 H  -10.237613    1.091197    2.266957
 H  -10.446853    2.505515    1.235165
 H  -12.367765    0.138148    1.413838
 H  -12.535512    1.489128    0.291333
 H  -12.632681    1.764305    2.030724
