66 
5l8a_ligand_dft.xyz
 C    8.616797    0.093519    0.160099
 O    7.475179   -0.522509    0.733809
 C    6.334393   -0.550790    0.031657
 C    6.165805    0.005621   -1.217518
 C    4.907867   -0.072172   -1.846211
 C    5.244423   -1.224825    0.680931
 C    5.409581   -1.800833    1.962121
 C    4.371885   -2.460183    2.573801
 C    3.133048   -2.584842    1.916216
 C    2.948476   -2.032802    0.670804
 C    3.992472   -1.324768    0.017717
 C    3.836156   -0.707806   -1.267899
 C    2.507429   -0.714663   -1.952677
 N    1.505946    0.161441   -1.218486
 C    0.091720   -0.140893   -1.644163
 C   -0.814700    0.838367   -0.988514
 C    1.835523    1.626098   -1.335921
 C    1.028777    2.458637   -0.339235
 C   -0.392639    2.009704   -0.406953
 N   -1.498566    2.618659    0.085047
 C   -1.573113    3.823293    0.893452
 C   -1.396823    3.526252    2.372522
 O   -0.094961    3.002379    2.549650
 N   -2.610029    1.902180   -0.142269
 C   -2.208268    0.821116   -0.798764
 C   -3.109451   -0.257053   -1.284830
 O   -2.617313   -1.231407   -1.850790
 N   -4.421936   -0.069106   -1.058194
 C   -5.444553   -1.019449   -1.467632
 C   -6.475295   -1.227726   -0.382329
 C   -6.084186   -1.678321    0.881360
 C   -7.027915   -1.878729    1.881319
 C   -8.376354   -1.631254    1.629068
 C   -8.773286   -1.181725    0.374431
 C   -7.824461   -0.978573   -0.625313
 H    9.411695   -0.014697    0.896638
 H    8.435154    1.157362   -0.029586
 H    8.905945   -0.407981   -0.769928
 H    6.978526    0.507261   -1.727226
 H    4.794449    0.388099   -2.825080
 H    6.373383   -1.714640    2.449584
 H    4.509158   -2.900792    3.555525
 H    2.323270   -3.131874    2.388701
 H    1.995592   -2.196372    0.170962
 H    2.052121   -1.707708   -2.001098
 H    2.568896   -0.320513   -2.969909
 H    1.583897   -0.081925   -0.224050
 H   -0.139802   -1.169314   -1.360648
 H    0.067780   -0.085227   -2.737195
 H    2.908308    1.725842   -1.166588
 H    1.606603    1.901712   -2.369451
 H    1.417582    2.353850    0.679346
 H    1.143407    3.513528   -0.609929
 H   -2.548835    4.275685    0.708919
 H   -0.795688    4.514617    0.556588
 H   -2.167080    2.810514    2.690023
 H   -1.538083    4.461738    2.931020
 H    0.022503    2.784271    3.481183
 H   -4.706017    0.777900   -0.584241
 H   -4.923494   -1.950659   -1.706123
 H   -5.927774   -0.671022   -2.388039
 H   -5.032481   -1.873642    1.076691
 H   -6.714230   -2.235009    2.858061
 H   -9.114574   -1.790133    2.409061
 H   -9.821847   -0.986824    0.171788
 H   -8.139347   -0.625187   -1.604267
