44 
5l9g_ligand_dft.xyz
 O   -5.980519    0.369117   -0.349362
 C   -4.932354   -0.516690   -0.013542
 C   -3.766545   -0.043952   -0.867120
 O   -3.490167    1.327432   -0.587101
 C   -2.433070   -0.771684   -0.701241
 O   -1.513359   -0.198877   -1.625315
 C   -1.860695   -0.697316    0.730188
 O   -1.387513    0.596618    1.023897
 C   -0.720949   -1.703312    0.979485
 O   -0.140769   -1.527346    2.254676
 C    0.431806   -1.684209   -0.018625
 N    0.978360   -0.332999   -0.326650
 C    1.565228    0.457089    0.798322
 C    1.633551    1.930078    0.426328
 O    2.301133    2.728731    1.028006
 C    2.919024   -0.080892    1.279396
 C    4.162172    0.185630    0.417540
 C    4.249149   -0.580381   -0.890942
 O    3.256480   -0.911928   -1.549871
 N    5.486370   -0.859649   -1.329528
 O    0.850221    2.245647   -0.619105
 H   -6.739406    0.207193    0.222417
 H   -4.687477   -0.446590    1.055751
 H   -5.176819   -1.561522   -0.251865
 H   -4.065901   -0.144545   -1.919800
 H   -4.343243    1.788929   -0.609428
 H   -2.568394   -1.821953   -0.985948
 H   -1.765337    0.733949   -1.715158
 H   -2.661273   -0.980975    1.434803
 H   -2.089202    1.218310    0.763076
 H   -1.164297   -2.708849    0.895223
 H   -0.835896   -1.397292    2.912213
 H    0.111024   -2.088607   -0.980234
 H    1.241513   -2.308363    0.362192
 H    0.207396    0.186906   -0.769634
 H    1.755783   -0.478169   -1.018699
 H    0.854731    0.388294    1.624243
 H    2.814683   -1.149199    1.491513
 H    3.094631    0.401221    2.244086
 H    5.044155   -0.037788    1.026484
 H    4.228717    1.254735    0.181075
 H    6.317155   -0.599600   -0.821907
 H    5.592539   -1.311921   -2.226655
 H    0.933839    3.203062   -0.765854
