44 
5l9l_ligand_dft.xyz
 O    4.129402    2.539313    0.201111
 C    4.084497    1.164377   -0.141787
 C    3.243685    0.529966    0.960202
 O    1.992447    1.184684    1.038633
 C    3.034832   -0.979903    0.826850
 O    2.252555   -1.485664    1.891571
 C    2.346647   -1.498645   -0.445727
 O    3.166732   -1.339760   -1.594005
 C    1.029333   -0.828437   -0.837244
 O    0.499416   -1.469217   -1.983507
 C   -0.047914   -0.941394    0.227543
 N   -1.317337   -0.452409   -0.388598
 C   -2.535793   -0.599786    0.452215
 C   -3.069579   -2.030658    0.428680
 O   -3.898104   -2.423162    1.202361
 C   -3.653222    0.371670    0.026718
 C   -3.496763    1.829900    0.483312
 C   -2.490171    2.659265   -0.299216
 O   -1.482215    2.171107   -0.821620
 N   -2.737013    3.975335   -0.370638
 O   -2.538645   -2.752936   -0.566919
 H    4.527364    3.033168   -0.524088
 H    5.086615    0.714680   -0.164217
 H    3.614342    1.009143   -1.119435
 H    3.793584    0.688267    1.905366
 H    2.200101    2.127319    0.940147
 H    4.038852   -1.437549    0.839177
 H    2.582240   -1.122921    2.722977
 H    2.133505   -2.562772   -0.272727
 H    3.842911   -2.027502   -1.598720
 H    1.216759    0.233569   -1.040691
 H    1.213783   -1.500387   -2.636211
 H    0.190966   -0.322133    1.090037
 H   -0.197775   -1.979267    0.531054
 H   -1.233520    0.574359   -0.621270
 H   -1.423355   -0.956919   -1.278381
 H   -2.244124   -0.390975    1.485701
 H   -3.790682    0.318787   -1.059802
 H   -4.571055   -0.012591    0.479798
 H   -4.479628    2.308769    0.431398
 H   -3.199621    1.862979    1.539936
 H   -3.558714    4.400643    0.029035
 H   -2.073737    4.568827   -0.848938
 H   -2.934378   -3.641035   -0.545772
