44 
5l9l_ligand_xtb.xyz
 O    4.163877    2.477988   -0.021350
 C    4.107602    1.075045   -0.178438
 C    3.198376    0.566229    0.948339
 O    1.970945    1.257921    0.930901
 C    2.972525   -0.956947    0.901824
 O    2.176892   -1.393213    1.976632
 C    2.310525   -1.527152   -0.370345
 O    3.161255   -1.493315   -1.493909
 C    1.023553   -0.813224   -0.811613
 O    0.469781   -1.476124   -1.930032
 C   -0.046722   -0.830061    0.278164
 N   -1.311224   -0.403720   -0.349125
 C   -2.516128   -0.587837    0.473615
 C   -3.053050   -2.023861    0.374121
 O   -3.800225   -2.501137    1.172614
 C   -3.640386    0.368068    0.042648
 C   -3.466205    1.817796    0.513807
 C   -2.465133    2.633919   -0.282584
 O   -1.492691    2.138655   -0.847664
 N   -2.692461    3.944592   -0.321864
 O   -2.617677   -2.635192   -0.724117
 H    4.793083    2.846513   -0.648649
 H    5.100762    0.621881   -0.082029
 H    3.686318    0.812664   -1.155793
 H    3.709565    0.785124    1.903763
 H    2.198844    2.183647    0.762571
 H    3.975000   -1.418777    0.965712
 H    2.528980   -1.033370    2.799448
 H    2.044769   -2.568042   -0.126426
 H    3.929806   -2.053292   -1.341480
 H    1.264291    0.223686   -1.079512
 H    1.193048   -1.674059   -2.537750
 H    0.235658   -0.150921    1.079588
 H   -0.150838   -1.842991    0.669660
 H   -1.256100    0.643763   -0.620853
 H   -1.376564   -0.954181   -1.219735
 H   -2.264250   -0.401819    1.523031
 H   -3.740195    0.340637   -1.044376
 H   -4.570445   -0.008022    0.472559
 H   -4.435915    2.313826    0.466035
 H   -3.146166    1.831898    1.559042
 H   -3.479327    4.375793    0.131784
 H   -2.045025    4.537490   -0.819512
 H   -2.976503   -3.534049   -0.801996
