63 
5lay_ligand_dft.xyz
 C   -3.539206   -2.415586   -0.632628
 C   -3.556245   -2.467746   -2.020839
 C   -2.806604   -1.544832   -2.740032
 C   -2.059910   -0.581837   -2.071555
 C   -2.037880   -0.495606   -0.677123
 C   -1.161421    0.545809    0.014053
 C   -2.630225    2.716044   -0.290530
 C   -0.755208    4.220940   -1.021477
 C    0.497264    3.625752   -0.395760
 C    0.804245    3.836821    0.951374
 C    1.890448    3.189056    1.525894
 C    2.427448    2.165570   -0.584517
 C    4.277912    0.701743   -0.892954
 C    4.943452   -0.032936   -2.036541
 C    0.947249   -0.926694    0.405811
 C    3.161507   -2.586794    0.113045
 C    2.853611   -2.140927    1.391545
 C    1.739129   -1.318762    1.512250
 C    0.045710   -0.048601    2.266008
 C   -2.780980   -1.446285    0.017686
Cl   -4.457522   -3.553245    0.306731
 C   -1.883492    1.744261    0.673924
 N   -2.716171    1.346294    1.822655
 C   -3.921687    2.155695   -0.892853
 N   -1.836724    3.301269   -1.361864
 C    2.702852    2.345434    0.773884
 O    3.165036    1.407674   -1.425055
 C    1.322776    2.805491   -1.155721
 C   -0.125502   -0.102668    0.899749
 C    1.306465   -1.388516   -0.864011
 C    2.403950   -2.227156   -1.006001
Cl    4.560628   -3.624218   -0.106876
 N    1.174150   -0.747554    2.630525
 O   -0.640538    0.525150    3.244952
 F   -2.787761   -1.432336    1.359264
 H   -4.146355   -3.228068   -2.520097
 H   -2.800855   -1.583563   -3.824257
 H   -1.466736    0.126737   -2.644808
 H   -0.590824    1.013217   -0.797762
 H   -2.917475    3.563981    0.352321
 H   -0.480319    4.741049   -1.946994
 H   -1.173025    4.980016   -0.349121
 H    0.173420    4.484693    1.555278
 H    2.108152    3.331783    2.580158
 H    4.978072    1.411643   -0.430463
 H    3.933823   -0.001172   -0.124774
 H    5.310107    0.671762   -2.788774
 H    4.232528   -0.714639   -2.509632
 H    5.785761   -0.621430   -1.661043
 H    3.451994   -2.433992    2.247473
 H   -1.068178    2.326913    1.107985
 H   -3.222112    2.153349    2.180487
 H   -3.402154    0.639945    1.577411
 H   -1.527767    0.815531    2.860489
 H   -4.554869    1.684297   -0.133991
 H   -3.716287    1.407080   -1.662208
 H   -4.485582    2.969268   -1.355937
 H   -1.526267    2.594302   -2.020583
 H    3.533117    1.836815    1.248111
 H    1.127832    2.637859   -2.212752
 H    0.727507   -1.112421   -1.739487
 H    2.681957   -2.608364   -1.982361
 H    1.432870   -0.907357    3.589913
