63 
5lay_ligand_xtb.xyz
 C    4.896212    1.499592    0.101127
 C    4.666383    2.649618   -0.632019
 C    3.602732    2.667286   -1.522589
 C    2.781416    1.571189   -1.657026
 C    2.968411    0.399019   -0.910822
 C    1.855935   -0.627150   -0.982194
 C    1.059652   -3.075315   -1.001064
 C   -0.704130   -2.914473    0.702535
 C   -1.931574   -2.107491    1.030104
 C   -2.155853   -1.685826    2.336250
 C   -3.264485   -0.918382    2.630921
 C   -3.953903   -0.977864    0.337333
 C   -5.890059    0.130856   -0.516332
 C   -6.560786    0.329793   -1.866300
 C   -0.272927    0.770784   -0.313490
 C   -2.556148    2.319541   -0.153835
 C   -1.964758    1.922329    1.036391
 C   -0.831506    1.145438    0.941825
 C    0.972178   -0.159339    1.375203
 C    4.062075    0.400210   -0.046044
Cl    6.239061    1.403507    1.185346
 C    2.147155   -2.060202   -0.535494
 N    3.482194   -2.544457   -1.047651
 C    1.127063   -3.328367   -2.515235
 N   -0.288223   -2.694641   -0.675852
 C   -4.164680   -0.552978    1.643422
 O   -4.764504   -0.703070   -0.716747
 C   -2.837258   -1.761372    0.045698
 C    0.846430   -0.044227   -0.029703
 C   -0.907270    1.187824   -1.481573
 C   -2.050581    1.960409   -1.394379
Cl   -3.986636    3.305081   -0.082331
 N   -0.059544    0.593940    1.925606
 O    1.773583   -0.829064    2.052134
 F    4.410163   -0.732912    0.638734
 H    5.311735    3.503185   -0.510738
 H    3.417647    3.551219   -2.112205
 H    1.942286    1.617505   -2.333076
 H    1.458236   -0.613605   -2.002684
 H    1.257090   -4.028316   -0.487674
 H   -0.925586   -3.985214    0.814645
 H    0.080242   -2.658207    1.427577
 H   -1.453907   -1.951250    3.112688
 H   -3.434654   -0.587093    3.645465
 H   -6.588277   -0.342606    0.189198
 H   -5.575750    1.098899   -0.107626
 H   -6.858594   -0.629956   -2.280476
 H   -5.866171    0.804789   -2.553230
 H   -7.438025    0.960458   -1.753661
 H   -2.383279    2.204235    1.989753
 H    2.206386   -2.035003    0.565409
 H    3.558585   -3.554867   -0.905700
 H    3.576351   -2.319117   -2.042072
 H    4.210610   -2.064367   -0.496602
 H    2.018860   -3.877699   -2.812311
 H    1.071000   -2.398904   -3.074657
 H    0.261889   -3.923857   -2.789865
 H   -0.448387   -1.720780   -0.913815
 H   -5.013457    0.060041    1.901558
 H   -2.697664   -2.087900   -0.971876
 H   -0.527049    0.907807   -2.454718
 H   -2.556434    2.287658   -2.289916
 H   -0.238353    0.660931    2.912659
