67 
5laz_ligand_xtb.xyz
 C    7.432969   -0.839581    0.924990
 C    6.155860   -0.584109    0.234400
 C    5.033228   -0.258494    0.997489
 C    3.819406   -0.011539    0.390310
 C    3.704907   -0.082597   -0.997798
 C    4.827772   -0.409379   -1.757199
 C    1.546844   -1.125790   -1.790693
 C    0.436017    0.372237   -0.236535
 C   -0.950206    0.772657   -0.728785
 C   -2.408655    2.655241   -1.434685
 C   -2.192572    4.921934   -0.674182
 C   -1.032918    4.567013   -0.009767
 C   -3.780988   -0.713481    1.221276
 C   -5.004040   -1.342400    1.313300
 C   -5.647079   -1.653053    0.122466
 C   -5.097620   -1.355767   -1.118342
 C   -3.872827   -0.722057   -1.204097
 C   -3.191636   -0.384650   -0.034828
 C   -0.549036   -3.025734    0.445456
 O    8.444255   -1.134099    0.085645
 O    7.587142   -0.795719    2.122198
 C    6.041431   -0.659785   -1.154764
 C    2.397676    0.143558   -1.713382
 C    0.746503   -1.137118   -0.478967
 N    1.523028    1.108160   -0.976911
 C   -1.249187    2.258806   -0.758685
 C   -2.872573    3.951386   -1.394722
Cl   -0.128431    5.748832    0.868963
 C   -0.573722    3.255960   -0.058195
 F    0.612881    2.994831    0.557310
 C   -1.950978    0.217839    0.244442
 C   -1.774589    0.259483    1.649643
 O   -0.815577    0.661426    2.328550
 N   -2.918240   -0.313311    2.202655
Cl   -7.189622   -2.450338    0.187621
 N   -0.434550   -1.944358   -0.507311
 C    0.327000   -4.221848    0.122729
 C   -0.115249   -5.601346    0.502740
 C   -0.122216   -5.185232   -0.936147
 H    5.136233   -0.206596    2.070112
 H    2.969040    0.225684    1.012721
 H    4.741427   -0.468647   -2.832656
 H    0.858197   -1.071923   -2.636004
 H    2.161370   -2.016668   -1.900323
 H    0.463317    0.609052    0.836942
 H   -1.141655    0.358016   -1.724322
 H   -2.965080    1.905260   -1.973702
 H   -2.548255    5.937670   -0.627932
 H   -5.448561   -1.589952    2.264735
 H   -5.637220   -1.625437   -2.013460
 H   -3.451844   -0.504605   -2.176083
 H   -1.598570   -3.329005    0.455243
 H   -0.307681   -2.625761    1.433378
 H    9.251804   -1.290613    0.598539
 H    6.906381   -0.911420   -1.746681
 H    2.607499    0.538844   -2.711934
 H    1.394085   -1.479727    0.335419
 H    1.065457    1.764783   -1.615388
 H    2.078535    1.661451   -0.316002
 H   -3.774929    4.215369   -1.923239
 H   -3.067942   -0.415339    3.192077
 H   -0.711212   -2.231722   -1.434379
 H    1.391193   -4.018206    0.178115
 H    0.630114   -6.309406    0.831043
 H   -1.064518   -5.705030    1.004755
 H    0.614394   -5.612529   -1.600221
 H   -1.079941   -5.010635   -1.403466
