50 
5lck_ligand_xtb.xyz
 C   -2.882520   -2.627732   -1.377243
 C   -4.337704   -0.916836   -0.607187
 C   -5.016093    1.640218    0.016137
 C   -3.668488    1.344285   -0.200741
 C    0.516706    3.537780   -0.061600
 C    1.274866    2.389105    0.107412
 C    0.558242    1.171364    0.260716
 C    0.599600   -1.220388    0.782500
 C   -0.571634   -1.286407    1.536056
 C    0.570187   -3.627995    0.646106
 C    3.535143   -1.791959   -0.284946
 C    4.626842   -2.256833   -1.227800
 C    5.807973   -1.295281   -1.210444
 C    2.762933    2.442129    0.132049
 C   -3.325707    0.032518   -0.525266
 O    3.685224   -0.890534    0.515633
 N    2.370384   -2.483499   -0.427084
 C    1.192237   -2.417297    0.350536
 C   -0.597450   -3.675967    1.381157
 C   -1.166816   -2.495999    1.833303
 N    1.193919    0.006425    0.480627
 N   -0.769640    1.170703    0.147061
 C   -1.389447    2.328049   -0.037151
 N   -2.740048    2.371840   -0.129100
 N   -5.969152    0.730232   -0.038153
 C   -5.650866   -0.511279   -0.333447
 O   -4.160423   -2.217194   -0.946892
 N   -0.798365    3.530378   -0.113791
 F    3.290889    2.028393    1.298934
 F    3.322649    1.668270   -0.826696
 F    3.241289    3.678559   -0.074264
 H   -2.556510   -2.055053   -2.251240
 H   -2.138533   -2.533254   -0.581391
 H   -2.989580   -3.676286   -1.650397
 H   -5.335083    2.648241    0.245776
 H    0.989153    4.506341   -0.155745
 H   -1.016007   -0.366611    1.876926
 H    1.021744   -4.544952    0.293558
 H    4.213606   -2.335200   -2.236280
 H    4.948790   -3.254656   -0.915580
 H    5.486216   -0.304819   -1.520994
 H    6.210278   -1.217455   -0.204139
 H    6.590497   -1.641602   -1.880242
 H   -2.292017   -0.211213   -0.698210
 H    2.416853   -3.309124   -1.009285
 H   -1.057262   -4.626701    1.600893
 H   -2.075355   -2.517310    2.414744
 H    2.219092   -0.012705    0.527488
 H   -3.108126    3.314139   -0.135105
 H   -6.457303   -1.228369   -0.370256
