47 
5ldk_ligand_dft.xyz
 P    3.632046   -0.840529    0.659580
 O    4.034477   -0.040910   -0.515232
 O    4.617928   -2.024364    1.061528
 O    3.386766   -0.127109    2.022148
 P    1.096031   -1.523391   -0.708700
 O    0.667431   -0.191752   -1.146850
 O    1.573422   -2.561383   -1.810926
 O    2.227671   -1.664394    0.399168
 P   -1.409827   -2.835220   -0.663391
 O   -1.141967   -3.042847   -2.098038
 O   -1.843278   -4.100696    0.209615
 O   -0.084008   -2.325081    0.117149
 O   -2.553029   -1.802988   -0.340773
 C   -3.260845   -1.736624    0.912769
 C   -3.601619   -0.296149    1.229823
 O   -2.434706    0.364667    1.737780
 C   -4.099966    0.537922    0.043898
 O   -5.098124    1.412564    0.509277
 C   -2.857664    1.342348   -0.356816
 O   -3.265196    2.520303   -0.983841
 C   -2.206526    1.547302    1.023757
 N   -0.764866    1.741165    0.957325
 C    0.188944    1.086550    1.672534
 N    1.407392    1.450066    1.352306
 C    1.251692    2.389243    0.350444
 C    2.142576    3.064235   -0.510857
 N    3.477051    2.862252   -0.507455
 N    1.630371    3.961854   -1.371168
 C    0.309287    4.102127   -1.452184
 N   -0.633009    3.438868   -0.781234
 C   -0.099142    2.592605    0.109385
 H    5.194580   -2.247981    0.318229
 H    2.669376    0.594538    1.887675
 H    0.822923   -2.759172   -2.409099
 H   -1.251242   -4.855966    0.088107
 H   -4.174287   -2.326584    0.802256
 H   -2.654718   -2.157545    1.718666
 H   -4.369621   -0.296822    2.011031
 H   -4.464363   -0.088274   -0.780259
 H   -5.015795    2.210430   -0.038282
 H   -2.183502    0.736764   -0.976560
 H   -2.459319    3.068126   -1.108827
 H   -2.658376    2.412770    1.524967
 H   -0.067094    0.345398    2.413696
 H    3.957109    3.307584   -1.277757
 H    3.808007    1.924512   -0.286818
 H   -0.045519    4.834464   -2.172339
