37 
5ldm_ligand_dft.xyz
 P    2.308372    2.092295    0.043921
 O    0.962609    2.497287    0.746448
 O    3.190245    1.580069    1.294223
 O    3.016621    3.023601   -0.842358
 C    0.873595   -3.275191    1.210845
 O    0.147483   -2.213863    1.797293
 C    1.581572   -2.752943   -0.026228
 O    0.651602   -2.430320   -1.069658
 C    2.382511   -1.470364    0.189260
 O    3.414986   -1.433168   -0.760668
 C    1.330930   -0.377558   -0.093177
 O    1.923980    0.727214   -0.760398
 C    0.345465   -1.069753   -1.056914
 N   -1.062829   -0.912232   -0.666233
 C   -1.997414   -1.924227   -0.674286
 N   -3.209892   -1.534325   -0.387122
 C   -3.073177   -0.179385   -0.182963
 C   -4.011913    0.818972    0.135209
 N   -5.313707    0.539028    0.319921
 N   -3.596115    2.089288    0.266843
 C   -2.299845    2.343598    0.105207
 N   -1.316000    1.493389   -0.199673
 C   -1.753278    0.228530   -0.347444
 H    0.145049    2.134498    0.276240
 H    4.104338    1.873195    1.182145
 H    1.629959   -3.675079    1.903417
 H    0.211703   -4.099447    0.910390
 H   -0.417519   -2.562939    2.494511
 H    2.235388   -3.534276   -0.421573
 H    2.775281   -1.383993    1.209543
 H    3.466348   -0.522749   -1.087265
 H    0.832893   -0.078142    0.830029
 H    0.465383   -0.661857   -2.065015
 H   -1.701350   -2.935816   -0.905761
 H   -5.656290   -0.393952    0.157370
 H   -5.959523    1.294949    0.480647
 H   -1.998306    3.378504    0.244252
