47 
5ldp_ligand_xtb.xyz
 P    4.007105   -0.801741   -0.130768
 O    3.442330   -1.256647    1.150297
 O    4.427101   -1.851454   -1.195524
 O    5.354513   -0.014214    0.069844
 P    1.836854    1.047535   -0.434256
 O    1.520479    2.229809   -1.207727
 O    2.148720    1.239106    1.089936
 O    3.108634    0.260609   -0.948787
 P    0.811466   -1.602621   -0.195225
 O    1.850146   -2.239703   -1.011235
 O    0.966642   -1.762302    1.350992
 O    0.652338   -0.040184   -0.502003
 O   -0.673578   -2.028350   -0.522520
 C   -1.299613   -3.124398    0.134126
 C   -2.736631   -2.736802    0.502771
 O   -2.742456   -1.669154    1.443076
 C   -3.562272   -2.257369   -0.700677
 O   -4.910275   -2.577134   -0.512786
 C   -3.331743   -0.738678   -0.674528
 O   -4.422012   -0.054824   -1.205042
 C   -3.118498   -0.469222    0.837265
 N   -2.111330    0.549672    1.024271
 C   -1.051991    0.561880    1.869064
 N   -0.310923    1.631067    1.758373
 C   -0.904590    2.385931    0.772553
 C   -0.610234    3.616812    0.151931
 N    0.426545    4.402594    0.494192
 N   -1.459098    4.062196   -0.777916
 C   -2.504092    3.336526   -1.116774
 N   -2.870230    2.156828   -0.640496
 C   -2.041328    1.711688    0.307723
 H    3.642231   -2.344473   -1.473262
 H    5.453762    0.274061    0.976724
 H    1.303481    1.468678    1.588912
 H    1.936900   -1.654856    1.538013
 H   -0.752911   -3.372614    1.045024
 H   -1.305749   -3.984788   -0.540330
 H   -3.227332   -3.592211    0.978817
 H   -3.191372   -2.698171   -1.635220
 H   -5.427813   -1.854023   -0.898209
 H   -2.401842   -0.503616   -1.207733
 H   -4.175678    0.893889   -1.214305
 H   -4.060829   -0.110716    1.288504
 H   -0.865855   -0.240183    2.554580
 H    1.207542    3.962239    0.951174
 H    0.637693    5.136491   -0.163599
 H   -3.143048    3.753531   -1.883221
