41 
5lg3_ligand_xtb.xyz
 C   -0.842493   -1.117633   -0.796711
 N    0.050137   -0.042362   -0.912144
 S   -0.309069   -0.938797    1.882371
 C   -1.078446   -1.685386    0.455713
 N   -2.631280    2.421374    0.842871
 C    1.248972   -0.534434    1.128234
 C    1.249476   -0.089833   -0.194873
 C   -2.376376   -2.718540   -1.739346
 C   -2.583337   -3.282856   -0.491695
 C   -1.926043   -2.767081    0.611763
 C    2.420114   -0.619192    1.859000
 C    3.617314   -0.226188    1.289467
 C    3.626368    0.226927   -0.021988
 C    2.459877    0.281355   -0.770060
 C   -0.240945    1.043371   -1.811321
 C   -1.545267    1.730858   -1.354273
 C   -1.364902    2.242004    0.074019
 C   -3.580914    3.320010    0.163629
 C   -3.261928    1.136053    1.199438
Cl    5.108762    0.723297   -0.749046
 C   -1.508696   -1.651897   -1.896051
 H   -2.360515    2.867088    1.726028
 H   -2.883601   -3.118043   -2.603398
 H   -3.250661   -4.121247   -0.375816
 H   -2.076222   -3.185141    1.594558
 H    2.387112   -0.970359    2.878307
 H    4.532472   -0.273025    1.855543
 H    2.500636    0.602232   -1.798206
 H   -0.352882    0.714755   -2.848446
 H    0.582235    1.756763   -1.767106
 H   -2.339314    0.985676   -1.402871
 H   -1.781100    2.541517   -2.042341
 H   -0.756820    1.521754    0.630463
 H   -0.838522    3.198669    0.057578
 H   -3.097471    4.263901   -0.081107
 H   -3.937355    2.856687   -0.753436
 H   -4.435105    3.520644    0.807660
 H   -3.612357    0.623602    0.307008
 H   -2.541685    0.495087    1.709152
 H   -4.111394    1.308530    1.856756
 H   -1.339945   -1.242699   -2.879253
