40 
5lg3_ligand_dft.xyz
 C   11.612469   15.048099   53.700008
 N   12.743053   15.141041   52.863458
 S   12.551076   17.380489   54.788129
 C   11.412524   16.020713   54.690135
 N   13.736481   17.978062   50.101906
 C   14.034947   16.486266   54.411403
 C   13.976357   15.463391   53.453216
 C    9.565382   13.968833   54.409246
 C    9.375185   14.936669   55.388845
 C   10.313978   15.953100   55.539694
 C   15.245857   16.832563   54.999093
 C   16.426470   16.201680   54.620435
 C   16.358763   15.184999   53.677750
 C   15.153099   14.792415   53.110552
 C   12.701649   14.588241   51.514324
 C   13.422372   15.484863   50.503597
 C   12.816100   16.904185   50.437599
 C   14.679077   18.275809   51.163280
 C   14.388105   17.797350   48.821532
Cl   17.822979   14.357090   53.197531
 H    8.849192   13.161163   54.293584
 H    8.507994   14.898734   56.039937
 H   15.269882   17.618599   55.747430
 H   17.376559   16.489089   55.055159
 H   15.136665   13.975239   52.399399
 H   13.097227   13.561703   51.475826
 H   11.645451   14.529898   51.236309
 H   14.485005   15.549904   50.757002
 H   13.373258   14.993907   49.524819
 H   12.375706   17.149643   51.410731
 H   11.997619   16.914719   49.705769
 H   15.241301   19.179527   50.903825
 H   14.134021   18.466969   52.093304
 H   15.413121   17.471131   51.360781
 H   14.934933   18.708965   48.556789
 H   15.108550   16.957276   48.799170
 H   13.633608   17.618024   48.047341
 C   10.685495   14.009184   53.584319
 H   10.189206   16.709243   56.308930
 H   10.842287   13.224225   52.851845
