120 
5lgs_ligand_xtb.xyz
 N    0.193259    1.354222    1.393884
 C   -0.782569    1.090031    2.463514
 C   -2.081681    0.610926    1.808082
 O   -2.396248    1.014652    0.699960
 C   -1.054350    2.357126    3.269163
 N   -2.813817   -0.228614    2.535610
 C   -4.074394   -0.769119    2.052336
 C   -4.914230    0.399854    1.506027
 O   -4.887663    1.495692    2.036698
 C   -4.823238   -1.431161    3.201707
 N   -5.679384    0.142035    0.432858
 C   -5.861597   -1.105847   -0.281556
 C   -4.740805   -1.437398   -1.291365
 O   -4.832339   -2.405205   -2.016539
 C   -7.176128   -0.891521   -1.041954
 C   -7.118569    0.595282   -1.380440
 C   -6.518090    1.201704   -0.117489
 N   -3.730315   -0.549753   -1.346564
 C   -2.507428   -0.874373   -2.047291
 C   -1.708025   -1.870659   -1.195929
 O   -2.018666   -2.115770   -0.041623
 C   -1.713401    0.422091   -2.230471
 C   -2.375532    1.359383   -3.238705
 C   -1.799757    2.778474   -3.153875
 N   -2.193177    3.468459   -1.947031
 C   -1.503958    3.541379   -0.784965
 N   -0.310496    3.088069   -0.560134
 N   -2.106782    4.249284    0.205205
 N   -0.635590   -2.435106   -1.774926
 C    0.292822   -3.198302   -0.956394
 C    0.720112   -2.334644    0.231573
 O    0.546470   -1.126119    0.259047
 C    1.457949   -3.543846   -1.899597
 C    1.303745   -2.544534   -3.044659
 C   -0.210150   -2.410710   -3.159346
 N    1.311051   -2.979731    1.249280
 C    1.530096   -2.287835    2.512516
 C    2.360313   -1.012418    2.362530
 O    2.061841    0.008093    2.956661
 C    2.218236   -3.323370    3.419159
 C    2.674890   -4.423417    2.460600
 C    1.607150   -4.394512    1.370298
 N    3.475259   -1.129092    1.625410
 C    4.313685    0.029254    1.404739
 C    3.558128    1.070645    0.564880
 O    2.622089    0.790375   -0.155429
 C    5.631615   -0.383602    0.727921
 C    5.372749   -1.111147   -0.562435
 C    5.157939   -0.407255   -1.740542
 C    5.314139   -2.500281   -0.588819
 C    4.886713   -1.078278   -2.919305
 C    5.048108   -3.173401   -1.769601
 C    4.829924   -2.461975   -2.936678
 N    4.007536    2.326928    0.736972
 C    3.516505    3.447807   -0.028060
 C    4.699481    4.147155   -0.680356
 O    5.842933    3.852311   -0.462593
 C    2.724054    4.440246    0.862530
 O    1.537584    3.885696    1.339546
 O    4.321649    5.121088   -1.499617
 H    1.055346    1.739529    1.794173
 H   -0.151367    2.056219    0.638778
 H    0.434089    0.469758    0.900849
 H   -0.362108    0.319220    3.114900
 H   -0.123319    2.884418    3.459593
 H   -1.515761    2.110254    4.220637
 H   -1.735769    3.011059    2.732329
 H   -2.526829   -0.481042    3.467369
 H   -3.840128   -1.492409    1.263728
 H   -5.041572   -0.696505    3.974353
 H   -4.231264   -2.238789    3.627007
 H   -5.763853   -1.846110    2.849798
 H   -5.937482   -1.958939    0.398725
 H   -7.230793   -1.533954   -1.917953
 H   -8.026181   -1.101347   -0.392512
 H   -6.457904    0.754967   -2.233261
 H   -8.095997    1.011241   -1.611206
 H   -5.913293    2.092015   -0.302170
 H   -7.289543    1.466125    0.612786
 H   -3.594823    0.100974   -0.578109
 H   -2.779870   -1.341314   -2.999507
 H   -0.685917    0.213765   -2.526332
 H   -1.680808    0.903058   -1.254013
 H   -2.237372    0.983224   -4.253818
 H   -3.447907    1.400679   -3.040542
 H   -0.708705    2.741826   -3.206693
 H   -2.153277    3.369482   -4.003219
 H   -3.139545    3.813513   -1.932028
 H    0.123704    2.644289   -1.359251
 H   -3.109275    4.310653    0.235775
 H   -1.633418    4.265406    1.092516
 H   -0.204692   -4.091571   -0.560111
 H    2.428791   -3.446627   -1.416667
 H    1.346893   -4.563053   -2.270523
 H    1.766426   -2.889010   -3.965764
 H    1.742900   -1.587681   -2.759156
 H   -0.635908   -3.274818   -3.685561
 H   -0.517260   -1.505333   -3.674734
 H    0.563543   -1.975919    2.928189
 H    3.045143   -2.885830    3.974942
 H    1.500718   -3.722522    4.134960
 H    3.649935   -4.182451    2.036336
 H    2.741715   -5.393328    2.946699
 H    1.959420   -4.809790    0.427539
 H    0.713500   -4.944217    1.689620
 H    3.576266   -1.896073    0.976283
 H    4.518458    0.472719    2.386736
 H    6.224122    0.512948    0.539246
 H    6.187374   -1.025670    1.414025
 H    5.219740    0.671201   -1.735525
 H    5.515956   -3.063441    0.313348
 H    4.729390   -0.521207   -3.830439
 H    5.024942   -4.253491   -1.780429
 H    4.630462   -2.985596   -3.858934
 H    4.837533    2.502968    1.283998
 H    2.844529    3.054429   -0.800016
 H    2.539407    5.352258    0.282432
 H    3.327697    4.692368    1.739166
 H    0.902927    3.773513    0.592322
 H    5.090291    5.570036   -1.889993
