63 
5lgt_ligand_dft.xyz
 C  -66.174129  -33.918113  -36.607727
 C  -70.598411  -38.846085  -40.859952
 C  -70.661911  -37.472430  -40.657107
 C  -70.102768  -36.895032  -39.522698
 C  -65.836466  -38.233364  -36.541561
 C  -66.299042  -39.649431  -34.206573
 C  -65.855338  -33.947628  -33.371731
 C  -68.303505  -36.208798  -34.677687
 C  -62.553924  -37.551080  -33.449180
 C  -63.775763  -36.931684  -31.377841
 C  -61.585877  -36.402855  -33.172798
 N  -61.473742  -36.140071  -31.746024
 C  -60.493280  -35.109039  -31.475243
 C  -62.767275  -35.806271  -31.167280
 C  -63.926747  -37.223453  -32.863156
 O  -64.843255  -38.302545  -32.985904
 C  -65.416300  -38.566955  -34.187864
 C  -66.935866  -40.030049  -35.380076
 C  -65.192095  -37.854374  -35.369049
 C  -66.705102  -39.320274  -36.560109
 O  -67.274394  -39.648623  -37.761746
 C  -68.661007  -39.974903  -37.789253
 C  -69.379916  -39.088563  -38.775757
 C  -69.955140  -39.640245  -39.916932
 C  -69.460152  -37.697406  -38.577879
 N  -68.917772  -37.149328  -37.400264
 C  -68.380784  -35.892986  -37.242720
 O  -68.320668  -35.051702  -38.127707
 C  -67.881485  -35.647794  -35.872846
 C  -67.539082  -35.588596  -33.670484
 S  -67.354800  -35.549516  -31.947967
 C  -66.123633  -34.321184  -32.089741
 C  -66.680183  -34.678807  -34.280161
 N  -66.891607  -34.715445  -35.628568
 H  -65.302028  -33.482703  -36.115906
 H  -65.842076  -34.544379  -37.436805
 H  -66.809309  -33.126392  -37.008138
 H  -71.036128  -39.294964  -41.745801
 H  -71.155147  -36.835414  -41.385165
 H  -70.148027  -35.825480  -39.369596
 H  -65.679452  -37.680732  -37.462517
 H  -66.463746  -40.195624  -33.283748
 H  -65.124616  -33.193601  -33.637206
 H  -69.085868  -36.944755  -34.561673
 H  -62.609432  -37.737445  -34.525982
 H  -62.183412  -38.465547  -32.972857
 H  -63.427256  -37.838139  -30.870452
 H  -64.745984  -36.656920  -30.955252
 H  -60.592010  -36.655756  -33.557916
 H  -61.923188  -35.496815  -33.721810
 H  -60.389454  -34.971202  -30.394046
 H  -59.518993  -35.409279  -31.874421
 H  -60.760993  -34.130952  -31.922044
 H  -63.170975  -34.868340  -31.605127
 H  -62.630448  -35.627271  -30.095020
 H  -64.347565  -36.332324  -33.351850
 H  -67.591858  -40.895456  -35.378511
 H  -64.538571  -36.990667  -35.388687
 H  -68.771519  -41.024220  -38.083033
 H  -69.090095  -39.878173  -36.781216
 H  -69.885100  -40.714158  -40.071283
 H  -68.660795  -37.798696  -36.671497
 H  -65.657537  -33.937969  -31.191857
