68 
5lhh_ligand_xtb.xyz
 C    0.628333    4.924671   -0.580754
 C    0.675710    3.540301   -1.221914
 N    0.787756    2.508363   -0.221993
 C    1.959442    2.038978    0.270542
 C    3.342502    2.240089    0.063511
 C    4.072494    1.443419    0.886523
 S    3.127006    0.428889    1.932845
 C    1.676601    1.078570    1.252237
 C    0.289777    0.960751    1.347153
 C   -0.238152    1.860426    0.426401
 C   -1.651702    2.122930    0.123478
 O   -2.067243    3.158295   -0.363316
 N   -2.444396    1.054543    0.450410
 C   -3.797130    0.876276    0.160119
 C   -4.669422    1.958890    0.137931
 C   -6.010472    1.753796   -0.118886
 C   -6.488610    0.475515   -0.339406
 C   -5.627349   -0.615645   -0.339883
 C   -4.269586   -0.422412   -0.092568
 C   -3.277999   -1.562996   -0.128232
 O   -2.292405   -1.253186   -1.106181
 C   -0.976386   -1.529592   -0.858763
 C   -0.047994   -0.796444   -1.592663
 C    1.309075   -1.003749   -1.438098
 C    1.770033   -1.951141   -0.529023
 C    0.839571   -2.678157    0.210788
 C   -0.516561   -2.479082    0.048416
 O    3.076056   -2.251999   -0.299383
 C    4.071420   -1.574971   -1.032518
 C    5.432827   -2.112746   -0.573012
 C    5.698980   -1.769969    0.870357
 C    6.687334   -0.885136    0.944225
 N    7.165774   -0.497174   -0.302618
 C    6.600003   -1.406153   -1.295289
 C   -6.188991   -1.994570   -0.604215
 O   -5.911758   -2.933650    0.417152
 C   -6.553159   -2.637634    1.632197
 H   -0.275537    5.014733    0.015380
 H    0.615179    5.689951   -1.351597
 H    1.495253    5.079288    0.058204
 H   -0.237100    3.377597   -1.797224
 H    1.540630    3.456419   -1.886320
 H    3.775192    2.926769   -0.641450
 H    5.140493    1.372500    0.946686
 H   -0.250126    0.331141    2.026333
 H   -1.939063    0.222075    0.710240
 H   -4.284638    2.949239    0.312985
 H   -6.687643    2.594151   -0.136284
 H   -7.541044    0.319764   -0.527138
 H   -3.769924   -2.503929   -0.386510
 H   -2.825586   -1.686081    0.866050
 H   -0.413884   -0.064123   -2.295496
 H    1.996576   -0.416679   -2.026220
 H    1.204573   -3.412760    0.910702
 H   -1.206689   -3.083554    0.617589
 H    3.941988   -1.758915   -2.109983
 H    4.024818   -0.493435   -0.847719
 H    5.433771   -3.193362   -0.741046
 H    5.102202   -2.152487    1.672229
 H    7.101839   -0.424595    1.823865
 H    8.157083   -0.320145   -0.380471
 H    7.343400   -2.135952   -1.638008
 H    6.256706   -0.834834   -2.162515
 H   -7.276451   -1.919303   -0.752192
 H   -5.746334   -2.416403   -1.511847
 H   -6.230666   -1.669148    2.031569
 H   -6.278597   -3.428696    2.327020
 H   -7.643193   -2.622541    1.508959
