71 
5lhi_ligand_xtb.xyz
 C   -5.769435   -2.237829   -2.347584
 C   -5.575891   -2.867680   -0.978746
 O   -4.501533   -2.209381   -0.331617
 C   -4.215685   -2.718878    0.954146
 C   -3.110016   -1.907432    1.583179
 C   -3.392044   -1.162417    2.720802
 C   -2.411581   -0.403567    3.332712
 C   -1.125541   -0.404637    2.831660
 C   -0.822353   -1.153691    1.699178
 C   -1.821778   -1.889127    1.043776
 C   -1.508215   -2.626587   -0.242187
 O   -0.617084   -1.913429   -1.093158
 C   -0.946493   -0.633987   -1.421192
 C   -2.217128   -0.083603   -1.272409
 C   -2.430910    1.258667   -1.526079
 C   -1.384977    2.080819   -1.927938
 C   -0.128167    1.507938   -2.157756
 C    0.084847    0.163428   -1.916500
 O   -1.485536    3.441182   -2.110278
 C   -2.238589    4.188664   -1.179762
 C   -1.482576    4.433421    0.144089
 C   -0.063215    4.983104   -0.120945
 C    0.885487    4.010483    0.581889
 N    0.129686    2.745636    0.605146
 C   -1.238922    3.153004    0.964490
 N    0.495215   -1.224545    1.223912
 C    1.477542   -0.300370    1.310740
 O    1.302300    0.813997    1.849571
 C    2.724965   -0.691985    0.693895
 C    2.911464   -1.691672   -0.269098
 C    4.257544   -1.655082   -0.613266
 C    4.870784   -0.646095    0.152052
 N    3.931620   -0.056930    0.926946
 C    4.229495    0.957752    1.903080
 C    6.254366   -0.517541   -0.093767
 C    6.655166   -1.415069   -1.032053
 S    5.399180   -2.437639   -1.649772
 H   -4.865804   -2.343735   -2.942367
 H   -5.994162   -1.179925   -2.242479
 H   -6.591350   -2.725703   -2.862283
 H   -6.487851   -2.765446   -0.373192
 H   -5.347962   -3.939879   -1.074231
 H   -3.918249   -3.778629    0.884738
 H   -5.115213   -2.665773    1.583073
 H   -4.389831   -1.178303    3.130313
 H   -2.644128    0.173034    4.214128
 H   -0.344957    0.149961    3.325364
 H   -2.431718   -2.849079   -0.780420
 H   -0.992058   -3.571345   -0.033554
 H   -3.053555   -0.689580   -0.966247
 H   -3.428455    1.653534   -1.412661
 H    0.660640    2.122173   -2.567179
 H    1.051822   -0.278830   -2.095277
 H   -3.209852    3.731081   -0.971556
 H   -2.410515    5.150238   -1.668776
 H   -2.082565    5.136067    0.722889
 H    0.123956    4.987901   -1.194687
 H    0.059135    5.997068    0.249187
 H    1.077564    4.318446    1.610954
 H    1.835377    3.887695    0.065000
 H    0.556239    1.991958    1.241701
 H    0.109854    2.335467   -0.351840
 H   -1.263566    3.372885    2.033051
 H   -1.950775    2.356538    0.751391
 H    0.717414   -2.053225    0.690937
 H    2.164419   -2.326056   -0.704201
 H    4.978179    0.589350    2.606774
 H    4.626927    1.846076    1.407616
 H    3.326561    1.222507    2.445446
 H    6.910867    0.184356    0.385462
 H    7.647060   -1.546870   -1.417323
