74 
5lj0_ligand_dft.xyz
 C   -1.820165   -1.642142   -1.754032
 C   -4.198184    1.909959   -0.067453
 C   -5.033114    1.186550    1.001151
 C   -3.325788   -1.348187    2.710208
 O   -3.266131   -2.047978    1.479399
 C   -1.988711   -2.453179    1.071167
 C   -2.260568   -3.414923   -0.079732
 N   -2.834607   -2.607811   -1.207566
 C   -1.566306   -0.614986   -0.660908
 O   -2.803085    0.016990   -0.468287
 C   -2.766294    1.390519   -0.085851
 C   -6.499254    1.621876    0.986937
 C   -7.080898    1.469398   -0.404479
 F   -8.384998    1.855964   -0.410044
 F   -7.068324    0.128754   -0.736769
 C   -6.306513    2.232134   -1.461197
 C   -4.838938    1.799643   -1.460963
 C   -1.066170   -1.287642    0.638370
 N    0.273244   -1.822097    0.416296
 C    1.330580   -0.873431    0.365046
 N    1.061069    0.402786    0.548049
 C    2.078297    1.280394    0.513123
 C    3.407206    0.926886    0.337312
 C    4.452083    1.976878    0.371351
 C    4.532842    2.847726    1.462396
 N    5.421674    3.832437    1.555823
 C    6.283518    3.983593    0.550519
 C    6.311570    3.180213   -0.592711
 C    7.325683    3.401238   -1.683042
 C    5.362444    2.164117   -0.670251
 C    3.701086   -0.443494    0.133435
 C    5.031725   -0.991629   -0.021582
 C    5.254389   -2.304895   -0.250300
 C    6.614537   -2.907321   -0.409941
 C    4.119430   -3.240947   -0.378804
 O    4.220675   -4.421460   -0.659997
 N    2.870473   -2.676221   -0.147567
 C    2.631184   -1.343112    0.102124
 H   -2.250084   -1.166017   -2.635699
 H   -0.924867   -2.206893   -2.016669
 H   -4.138762    2.974400    0.201845
 H   -4.604089    1.373767    1.992423
 H   -4.978636    0.106739    0.824057
 H   -4.382344   -1.263248    2.963809
 H   -2.803957   -1.904192    3.499911
 H   -2.900275   -0.342372    2.626567
 H   -1.492324   -3.019533    1.877452
 H   -1.356057   -3.900085   -0.448599
 H   -3.000229   -4.158274    0.218778
 H   -3.203781   -3.215105   -1.941921
 H   -3.617621   -2.048691   -0.831640
 H   -0.803939    0.090478   -1.009286
 H   -2.295723    1.492731    0.901961
 H   -2.157522    1.949967   -0.810395
 H   -6.596737    2.672949    1.280079
 H   -7.097305    1.026059    1.682659
 H   -6.772204    2.054201   -2.434768
 H   -6.398229    3.301380   -1.240663
 H   -4.273974    2.406011   -2.177989
 H   -4.778289    0.760011   -1.800079
 H   -1.061418   -0.521548    1.422105
 H    0.496559   -2.540279    1.102299
 H    1.808984    2.324965    0.640688
 H    3.849099    2.731909    2.301748
 H    6.998548    4.797841    0.655803
 H    6.860420    3.357449   -2.672708
 H    7.812533    4.374673   -1.580031
 H    8.107434    2.634143   -1.651446
 H    5.321535    1.525474   -1.550675
 H    5.876298   -0.315412    0.067085
 H    6.774329   -3.691263    0.337371
 H    7.397211   -2.152133   -0.307698
 H    6.705628   -3.389199   -1.388587
 H    2.090995   -3.298849   -0.311996
