69 
5lj2_ligand_xtb.xyz
 C    1.968697   -1.247031   -0.288751
 N    0.906957   -0.448804   -0.360860
 C    1.080852    0.858413   -0.349810
 C   -2.731356    2.929032    0.087876
 C   -2.123490    1.166850    1.654620
 C    6.264057    3.230144   -0.209398
 C    4.935836    2.557055   -0.192264
 C    4.775523    1.216117   -0.226222
 C    3.484924    0.598111   -0.218523
 C    3.275268   -0.800044   -0.222049
 N   -0.062439    1.666565   -0.401045
 C   -1.317927    1.006250   -0.718572
 C   -2.388696    2.031733   -1.093150
 N   -3.193768    2.075889    1.200808
 C   -1.786328    0.201295    0.517245
 O   -2.959218   -0.536094    0.252262
 C   -2.777904   -1.833043   -0.290926
 C   -4.142518   -2.390739   -0.726316
 C   -4.814203   -1.419812   -1.726180
 C   -6.222553   -1.004601   -1.351712
 S   -6.184488   -0.281875    0.306108
 O   -7.510781   -0.030096    0.774687
 O   -5.322926    0.906638    0.267065
 C   -5.400328   -1.554163    1.343537
 C   -5.027400   -2.743672    0.477876
 C    2.361723    1.440213   -0.248601
 N    2.550032    2.796157   -0.192766
 C    3.772051    3.442224   -0.130360
 O    3.801717    4.652810   -0.042655
 C    4.373023   -1.770596   -0.162342
 C    4.443170   -2.805051   -1.098009
 N    5.388234   -3.724486   -1.081700
 C    6.313095   -3.676085   -0.149114
 C    6.359284   -2.685688    0.844618
 N    7.304512   -2.713711    1.830481
 C    5.351750   -1.719062    0.823220
 H    1.745101   -2.304394   -0.282022
 H   -3.529862    3.619771   -0.185126
 H   -1.856590    3.497035    0.414207
 H   -2.469415    0.607918    2.524701
 H   -1.232417    1.740177    1.916961
 H    6.329298    3.890327   -1.073286
 H    7.074737    2.508223   -0.241708
 H    6.366320    3.860369    0.673070
 H    5.640967    0.572424   -0.282184
 H    0.082685    2.490978   -0.972113
 H   -1.178013    0.296354   -1.547091
 H   -3.293140    1.502540   -1.394289
 H   -2.053987    2.638687   -1.934729
 H   -4.029760    1.488952    0.836315
 H   -3.533929    2.649668    1.974419
 H   -0.966169   -0.460697    0.820909
 H   -2.318304   -2.490508    0.459133
 H   -2.108901   -1.790609   -1.158185
 H   -3.930802   -3.333907   -1.238780
 H   -4.830637   -1.865465   -2.722236
 H   -4.213234   -0.512269   -1.782216
 H   -6.607213   -0.239134   -2.021118
 H   -6.929808   -1.826733   -1.309769
 H   -4.527986   -1.106489    1.805688
 H   -6.135588   -1.822139    2.097141
 H   -4.494001   -3.470258    1.096065
 H   -5.933750   -3.236365    0.123555
 H    1.747784    3.410829   -0.143462
 H    3.719565   -2.880106   -1.897580
 H    7.058865   -4.459398   -0.176616
 H    7.443292   -1.886830    2.385702
 H    8.111045   -3.297490    1.691920
 H    5.321328   -0.955918    1.589542
