56 
5lkr_ligand_dft.xyz
 C   -2.362760   -0.199731    0.876241
 C   -3.684749   -0.648687    0.632914
 C   -4.697147   -0.567335    1.623975
 C   -5.963380   -1.020990    1.361832
 C   -6.276865   -1.577473    0.098747
 C   -5.319552   -1.668449   -0.878104
 C   -4.000263   -1.205823   -0.638115
 C   -2.981848   -1.289305   -1.624091
 C   -1.718210   -0.826814   -1.372814
 C   -1.405058   -0.266121   -0.106108
 C   -0.013242    0.165443    0.220893
 O    0.588632   -0.390889    1.158492
 N    0.578150    1.134252   -0.521392
 C   -0.159204    1.993622   -1.456653
 C   -0.885164    3.134450   -0.761861
 O    0.060915    3.943949   -0.116325
 C   -0.526125    5.020525    0.580423
 C    1.912577    1.577016   -0.120041
 C    3.073587    0.835718   -0.815857
 C    2.932135   -0.684916   -0.828742
 C    4.416461    1.217492   -0.169895
 C    4.569801    0.592956    1.221903
 C    4.336937   -0.912964    1.201389
 N    3.024744   -1.244944    0.558932
 C    2.710682   -2.711455    0.602742
 C    3.648421   -3.501169   -0.182912
 C    4.421295   -4.156722   -0.831438
 H   -2.109710    0.198895    1.855052
 H   -4.453269   -0.140891    2.593060
 H   -6.733123   -0.957161    2.124116
 H   -7.283653   -1.934988   -0.092191
 H   -5.558692   -2.097628   -1.847038
 H   -3.217976   -1.733437   -2.586966
 H   -0.947431   -0.907607   -2.135384
 H   -0.881320    1.402224   -2.018489
 H    0.565073    2.394738   -2.171104
 H   -1.611538    2.725177   -0.040493
 H   -1.450451    3.706330   -1.515331
 H   -1.079641    5.682323   -0.100372
 H   -1.213810    4.663178    1.360433
 H    0.284755    5.582637    1.045969
 H    1.989816    2.641433   -0.342699
 H    1.977389    1.483441    0.966412
 H    3.084383    1.137739   -1.869985
 H    3.726583   -1.150816   -1.417745
 H    1.969486   -1.000193   -1.237521
 H    4.505955    2.305860   -0.098112
 H    5.234036    0.875394   -0.815681
 H    5.578310    0.768463    1.607083
 H    3.883427    1.058045    1.938000
 H    5.105095   -1.434017    0.622126
 H    4.318364   -1.333236    2.209698
 H    2.224274   -0.794420    1.068195
 H    2.724885   -3.009989    1.655226
 H    1.684357   -2.821949    0.240577
 H    5.097829   -4.754770   -1.403523
