23 
5ll7_ligand_dft.xyz
 C    6.960223   69.016133    1.413641
 O   10.945345   66.088720    6.694812
 C    9.873669   66.494546    6.300763
 O    8.812686   66.623494    7.129496
 C    9.598393   66.884566    4.907613
 C    8.415863   67.352194    4.486772
 C    8.113642   67.714759    3.089349
 C    8.729816   66.994429    2.057771
 C    8.477678   67.287868    0.724315
 C    7.589130   68.306600    0.397564
 C    7.199566   68.745650    2.768215
 B    6.453587   69.652884    3.813994
 O    5.434691   70.436421    3.332599
 O    6.839789   69.652929    5.128936
 H    6.261324   69.806364    1.157254
 H    9.130390   66.338442    7.999980
 H   10.452829   66.779981    4.246496
 H    7.626385   67.489187    5.217212
 H    9.394417   66.172994    2.307994
 H    8.966317   66.712830   -0.056861
 H    7.380236   68.540702   -0.642072
 H    5.020836   71.011234    3.983643
 H    6.332188   70.234073    5.704514
