23 
5ll7_ligand_xtb.xyz
 C    6.960884   69.000192    1.420630
 O   10.885904   66.107599    6.722553
 C    9.828395   66.506361    6.293086
 O    8.757142   66.654899    7.098104
 C    9.583282   66.858856    4.894936
 C    8.422079   67.359774    4.453789
 C    8.136369   67.711255    3.073094
 C    8.758172   67.010359    2.037084
 C    8.487765   67.299208    0.714759
 C    7.582936   68.301030    0.403177
 C    7.213506   68.730136    2.765391
 B    6.481028   69.632896    3.838298
 O    5.355690   70.273690    3.430210
 O    6.997037   69.775033    5.082891
 H    6.252082   69.778576    1.182683
 H    9.003951   66.403760    8.001238
 H   10.434315   66.704140    4.248159
 H    7.635305   67.545384    5.169431
 H    9.440875   66.210101    2.279852
 H    8.975326   66.741335   -0.071488
 H    7.360489   68.531889   -0.628248
 H    4.918788   70.841772    4.066051
 H    6.537677   70.358758    5.688322
