35 
5ll9_ligand_xtb.xyz
Cl   -3.396587    2.014600   -1.108708
 C   -2.432502    0.711091   -0.577310
 C   -3.045883   -0.308465    0.136177
 S   -4.813495   -0.149622    0.424716
 O   -5.038387    0.957570    1.300740
 N   -5.137503   -1.561787    1.278484
 O   -5.494665   -0.224819   -0.829989
 C   -1.072476    0.649766   -0.839292
 C   -0.324072   -0.430770   -0.373880
 C   -0.951095   -1.450289    0.343956
 C   -2.312161   -1.385481    0.591293
 C    1.134051   -0.422458   -0.688378
 O    1.611049    0.332340   -1.494662
 C    2.002310   -1.416788    0.089558
 N    3.393825   -1.160599   -0.118308
 C    4.100296   -0.085136    0.366825
 C    3.751088    0.970776    1.192242
 C    4.743131    1.882733    1.491131
 C    6.038500    1.746913    0.987427
 C    6.391784    0.697612    0.165581
 C    5.408075   -0.232205   -0.151113
 N    5.462367   -1.360477   -0.932988
 C    4.270663   -1.861019   -0.896624
 H   -5.490331   -1.359767    2.200346
 H   -5.767089   -2.160510    0.768225
 H   -0.580874    1.430551   -1.398997
 H   -0.394677   -2.301790    0.700732
 H   -2.818928   -2.163859    1.138324
 H    1.772685   -2.430109   -0.254421
 H    1.766207   -1.340752    1.157143
 H    2.747955    1.084907    1.577336
 H    4.512719    2.723869    2.127958
 H    6.778124    2.488732    1.249948
 H    7.390392    0.592012   -0.226181
 H    3.976660   -2.755898   -1.412425
