30 
5llh_ligand_dft.xyz
 F   -3.320832    1.446266   -1.514558
 C   -2.456895    0.975932   -0.608627
 C   -2.753398   -0.179419    0.110579
 S   -4.284561   -1.076284   -0.248813
 O   -4.169561   -1.512737   -1.621289
 N   -5.480440    0.054619   -0.190472
 O   -4.525254   -1.975841    0.854166
 C   -1.813226   -0.635394    1.033015
 F   -1.996591   -1.737442    1.740337
 C   -0.633147    0.073870    1.240476
 F    0.229593   -0.391805    2.132626
 C   -1.276045    1.674169   -0.410630
 F   -1.057355    2.770199   -1.125319
 C   -0.337095    1.229566    0.520118
 S    1.142940    2.158199    0.817946
 C    2.375538    0.988422    0.328431
 N    3.570208    1.090337    0.786999
 C    4.391530    0.131222    0.210480
 C    5.749473   -0.034863    0.496880
 C    6.444949   -1.050347   -0.138061
 C    5.804718   -1.901901   -1.050134
 C    4.457175   -1.753264   -1.344916
 C    3.760649   -0.726769   -0.709428
 S    2.080030   -0.277210   -0.865844
 H   -5.421305    0.777187   -0.897552
 H   -5.705616    0.376656    0.743118
 H    6.228053    0.629862    1.207726
 H    7.500068   -1.191700    0.073388
 H    6.370727   -2.691243   -1.534588
 H    3.964989   -2.414418   -2.050319
