44 
5lma_ligand_dft.xyz
 C   27.022344  -43.117710   35.041465
 C   26.684215  -41.941038   32.646803
 C   25.918505  -42.290901   34.744914
 C   23.789484  -38.498702   36.727284
 C   24.290257  -37.414708   37.675974
 C   26.285991  -45.514281   42.678477
 C   26.228122  -44.993047   41.265119
 C   26.926808  -45.625103   40.234807
 C   26.899595  -45.128194   38.937853
 C   26.169323  -43.977119   38.627119
 C   25.452755  -43.353633   39.653257
 C   25.487234  -43.852094   40.948387
 C   26.133589  -43.417048   37.251101
 C   27.123238  -43.686484   36.331960
 N   27.976447  -43.351118   34.097351
 C   27.793763  -42.770366   32.933154
 N   25.752668  -41.700271   33.545106
 C   24.945933  -42.066239   35.792497
 N   23.881222  -41.283244   35.511511
 C   22.905102  -40.885458   36.506424
 C   23.405769  -39.787804   37.450064
 N   24.622103  -36.199676   36.934747
 N   25.068653  -42.606902   36.986827
 H   26.576486  -41.477370   31.669652
 H   24.575231  -38.718209   35.990369
 H   22.933301  -38.101916   36.166658
 H   23.494008  -37.164814   38.388127
 H   25.129087  -37.819555   38.270831
 H   27.097345  -45.034245   43.239141
 H   25.353672  -45.314794   43.215995
 H   26.466278  -46.593500   42.699534
 H   27.494204  -46.527851   40.447955
 H   27.431998  -45.663668   38.157640
 H   24.863916  -42.474039   39.417123
 H   24.924855  -43.346622   41.730071
 H   27.990954  -44.291040   36.563717
 H   28.546943  -42.948308   32.168010
 H   23.886413  -40.850106   34.599986
 H   22.015109  -40.543798   35.967263
 H   22.629414  -41.772184   37.084484
 H   22.615488  -39.582555   38.184631
 H   24.265900  -40.177818   38.007614
 H   24.912271  -35.469163   37.578543
 H   25.421009  -36.379306   36.331456
