53 
5lmb_ligand_xtb.xyz
 N   -5.193288   -0.923745   -0.140916
 N    3.235588   -3.480334    0.088898
 C   -3.230569   -2.155253    0.554401
 C   -1.866015   -2.224672    0.568333
 C   -1.095758   -1.221349   -0.054470
 C   -1.817470   -0.198080   -0.681113
 C    0.348759   -1.261680   -0.075635
 C    2.491881   -2.358887   -0.016553
 C    3.133522   -1.104015   -0.157934
 C    2.221104    2.466446   -0.820560
 C    0.882115    4.482684   -0.151150
 C    1.113589    2.621426    1.488099
 C   -6.081474   -1.892959    0.456966
 C   -5.806096    0.189939   -0.824110
 C   -3.861940   -1.063165   -0.095746
 N   -3.122413   -0.114396   -0.700932
 N    0.996491   -0.051041   -0.199271
 C    2.325552    0.072219   -0.268605
 N    4.470406   -0.985243   -0.195356
 C    5.164028   -2.092074   -0.098524
 C    4.532981   -3.348473    0.046395
 C    1.084428   -2.419527    0.001437
 N    2.907718    1.253782   -0.446503
 C    1.815705    3.376076    0.355728
 N   -0.140886    2.048163    1.004342
 C   -1.078466    3.099408    0.601752
 C   -0.489423    3.926820   -0.536108
 H   -3.813155   -2.918006    1.040434
 H   -1.375146   -3.035769    1.083659
 H   -1.313855    0.581081   -1.239449
 H    1.333581    2.188710   -1.391884
 H    2.880957    3.035181   -1.478331
 H    0.755787    5.219855    0.643267
 H    1.331022    4.990335   -1.005136
 H    1.748079    1.816062    1.868315
 H    0.940828    3.327923    2.312099
 H   -5.958294   -2.877530   -0.000300
 H   -7.107260   -1.568961    0.302462
 H   -5.906313   -1.978181    1.531914
 H   -6.394825    0.784807   -0.122920
 H   -6.462233   -0.172410   -1.617540
 H   -5.023795    0.807131   -1.256806
 H    6.239123   -1.997001   -0.129313
 H    5.113417   -4.256161    0.133199
 H    0.615000   -3.385336    0.061814
 H    3.919868    1.232933   -0.436990
 H    2.721283    3.828519    0.769744
 H   -0.570113    1.504334    1.749574
 H    0.427420    0.820089    0.017627
 H   -1.302918    3.762597    1.449070
 H   -2.007176    2.621489    0.283160
 H   -1.165438    4.752020   -0.757797
 H   -0.419876    3.316679   -1.437322
