63 
5lny_ligand_xtb.xyz
 C   -0.871634   10.983528   27.015191
 C   -2.003940   11.842395   24.956358
 C   -0.790492   12.189705   22.928017
 C    0.440554   11.945049   23.622872
 C    1.431112   12.043901   22.632187
 C    2.869123   11.717698   22.581047
 C    0.820557    9.283621   26.520413
 C    1.022606    7.921684   24.545911
 C    2.963639    8.408311   25.854452
 C    0.248998    8.646704   25.421659
 C    0.022348    9.622648   28.798562
 N    3.148081    7.005508   23.872559
 C    2.879718    6.926432   22.450531
 C    5.496042    7.465112   23.355897
 C    5.087382   11.857393   23.521723
 C    5.526899   11.397454   24.908339
 C    5.263653   12.506132   25.923024
 C    3.781614   12.867781   25.895192
 N    0.020593   10.042886   27.410911
 O   -1.729319   11.417160   27.787653
 C   -0.784570   11.471750   25.616061
 C    0.422804   11.586725   24.970563
 C   -2.006823   12.173955   23.619388
 O   -3.168886   11.849627   25.626723
 N    0.756065   12.289376   21.490714
 N   -0.551446   12.409920   21.628401
 O    3.282192   10.995748   21.679994
 C    2.184616    9.134861   26.733218
 C    2.408907    7.786544   24.727260
 C    3.920998    7.743336   21.667813
 O    5.241437    7.344585   21.976926
 C    4.508474    6.601185   24.149201
 C    3.357267   13.259248   24.478497
 N    3.681087   12.208746   23.540602
 H    0.535224    7.424421   23.722797
 H    4.021830    8.339524   26.054450
 H   -0.815679    8.722916   25.258034
 H   -0.800865   10.125804   29.303411
 H   -0.111807    8.542107   28.863158
 H    0.961140    9.896172   29.283223
 H    1.890368    7.311822   22.217381
 H    2.938418    5.874597   22.144809
 H    6.523643    7.130389   23.509693
 H    5.402781    8.517591   23.666376
 H    5.224555   11.072416   22.775786
 H    5.675466   12.733011   23.218369
 H    4.957102   10.508899   25.188656
 H    6.585954   11.137495   24.885687
 H    5.551332   12.180472   26.923920
 H    5.862665   13.383933   25.669897
 H    3.572957   13.697636   26.571398
 H    3.201490   12.004828   26.225986
 H    1.345597   11.379090   25.483692
 H   -2.932284   12.413948   23.124724
 H   -2.970137   11.739379   26.584072
 H    1.175768   12.369257   20.574879
 H    2.653031    9.611199   27.582676
 H    3.787351    8.813089   21.880799
 H    3.802036    7.579862   20.596034
 H    4.616160    5.562863   23.810343
 H    4.716456    6.634276   25.216678
 H    3.903646   14.166905   24.184261
 H    2.290145   13.474392   24.439948
