55 
5lo5_ligand_dft.xyz
 C    2.133351    1.263078    0.799559
 C    1.173107    0.870148    1.796342
 C    3.304063    0.478943    1.083980
 C    2.940998   -0.266721    2.207296
 C    4.606563    0.479587    0.334579
 C    0.468812    2.695535   -0.203408
 C   -0.480965    2.292734    0.778139
 C    4.470871    0.074125   -1.147335
 C    0.076684    3.588068   -1.249718
 C    4.348351   -1.431627   -1.445661
 C    3.400698   -2.268956   -0.587264
 C    1.318166   -1.373303   -1.688256
 C   -0.204611   -2.055338    0.644653
 C   -0.028983   -0.746310   -1.374691
 C   -2.666802    0.005535   -0.748207
 C   -4.457033   -1.903544    0.207959
 C    1.769603    2.189296   -0.181087
 N    1.667070   -0.069917    2.639008
 C   -0.136677    1.396013    1.766452
 O   -1.733019    2.819854    0.652054
 N   -0.213634    4.284113   -2.132247
 N    2.021436   -1.714201   -0.420332
 C    1.173814   -2.638122    0.395914
 N   -0.855638   -1.668587   -0.611094
 C   -2.208678   -1.283070   -0.449390
 C   -3.126648   -2.232710    0.023526
 C   -4.004039    0.337015   -0.572885
 C   -4.908082   -0.610826   -0.089622
 C   -6.288730   -0.268945    0.101266
 N   -7.404699    0.002228    0.260414
 H    3.586188   -0.970777    2.731110
 H    5.325169   -0.183383    0.836138
 H    5.054316    1.481870    0.361166
 H    5.343158    0.429330   -1.707886
 H    3.612152    0.606459   -1.573717
 H    5.330105   -1.901085   -1.307976
 H    4.102584   -1.567283   -2.505767
 H    3.786004   -2.358173    0.431312
 H    3.295229   -3.273613   -1.008496
 H    1.936524   -0.667394   -2.242638
 H    1.209653   -2.298600   -2.262401
 H   -0.109228   -1.209561    1.336527
 H   -0.794442   -2.827731    1.142335
 H   -0.523254   -0.527211   -2.325222
 H    0.139000    0.207244   -0.854374
 H   -1.990190    0.778089   -1.091978
 H   -5.158169   -2.647918    0.570185
 H    2.471782    2.527678   -0.938629
 H   -0.859738    1.086696    2.518180
 H   -2.283100    2.478552    1.367651
 H    2.176303   -0.831065    0.128549
 H    1.117942   -3.580713   -0.157686
 H    1.683851   -2.787109    1.349208
 H   -2.793330   -3.245821    0.225117
 H   -4.339111    1.343598   -0.800214
