69 
5lo6_ligand_xtb.xyz
 C   -0.072107   -1.855870   -1.982096
 C    0.977068   -2.280849   -1.172928
 C    0.714513   -2.593428    0.157473
 C   -2.951901   -1.684934    0.486814
 C    2.474272   -3.070830   -2.948697
 C    3.370771   -1.800072   -1.097191
 C    3.069408   -0.953208    0.098452
 C    2.195101    0.096230    0.001665
 C    3.585722   -0.429769    2.427536
 C    3.761377   -1.216259    1.318377
 C    1.136135    1.976076    1.426330
 C    0.148605    2.697150    0.583760
 C   -0.047790    4.337692   -1.420492
 C   -7.034730   -0.428630    0.743727
 C   -1.131603    5.168405   -0.729855
 C    0.830567    5.269252   -2.262788
 C   -0.701452    3.307259   -2.344200
 C   -0.552064   -2.412826    0.676939
 C   -1.593776   -1.938038   -0.110897
 C   -1.336374   -1.684618   -1.452848
 N    2.282662   -2.381455   -1.689080
 O    4.487415   -1.915591   -1.557688
 O    4.560682   -2.314081    1.334712
 C    2.678582    0.638512    2.350047
 C    1.969346    0.893747    1.130946
 N    1.397249    2.281922    2.708898
 N    2.310111    1.506887    3.295187
 C    0.861564    3.649109   -0.387461
 C   -3.317304   -0.198233    0.417224
 C   -4.698686    0.034054    1.019501
 N   -5.693705   -0.744639    0.307038
 C   -5.408988   -2.162814    0.425210
 C   -4.058708   -2.483259   -0.206929
 H    0.107442   -1.631079   -3.022596
 H    1.510502   -2.965978    0.783225
 H   -2.926124   -1.981230    1.542105
 H    2.239225   -2.426876   -3.800212
 H    3.524189   -3.355071   -3.010866
 H    1.844687   -3.959197   -2.981633
 H    1.682303    0.306868   -0.924914
 H    4.113849   -0.627743    3.348545
 H   -0.537248    3.255506    1.223545
 H   -0.422714    1.958093    0.019109
 H   -7.204412   -0.660073    1.808099
 H   -7.220569    0.633179    0.586695
 H   -7.747449   -0.997566    0.148191
 H   -0.688039    5.866930   -0.023409
 H   -1.690239    5.740309   -1.467359
 H   -1.834683    4.532915   -0.197270
 H    0.233910    5.779479   -3.015421
 H    1.304654    6.021474   -1.636153
 H    1.610838    4.705802   -2.769299
 H   -1.411357    2.685034   -1.804862
 H   -1.239598    3.811512   -3.143697
 H    0.051960    2.663758   -2.792968
 H   -0.732529   -2.643773    1.717047
 H   -2.128113   -1.332721   -2.097189
 H    5.037976   -2.358367    2.172020
 H    1.626233    3.080901   -0.921301
 H    1.375303    4.417867    0.195335
 H   -3.329845    0.125761   -0.623831
 H   -2.574931    0.394454    0.956440
 H   -4.965790    1.090787    0.930914
 H   -4.680169   -0.222936    2.096368
 H    0.968369    3.019594    3.248586
 H   -6.197747   -2.713215   -0.094389
 H   -5.408872   -2.486485    1.483950
 H   -3.857739   -3.553030   -0.125282
 H   -4.097568   -2.219597   -1.263725
