69 
5lo6_ligand_dft.xyz
 C   -1.821988    0.003789   -2.339543
 C   -2.864717    0.313943   -1.470976
 C   -2.845912    1.536403   -0.808873
 C    0.740362    2.711313   -1.442098
 C   -4.869447   -1.013262   -2.105869
 C   -3.804433   -1.324726    0.085290
 C   -2.650802   -0.886530    0.959202
 C   -1.373043   -1.246772    0.632406
 C   -1.859307    0.715836    2.644637
 C   -2.884036    0.072140    2.001939
 C    1.081665   -0.527737    1.015398
 C    1.953607   -1.343649    0.120183
 C    2.997038   -3.709503   -0.229674
 C    4.540608    3.043909    0.662419
 C    4.384754   -3.129009   -0.537646
 C    3.166001   -5.038023    0.522166
 C    2.246868   -3.974610   -1.543386
 C   -1.718275    2.345708   -0.870169
 C   -0.591592    1.974000   -1.609895
 C   -0.704261    0.827960   -2.407207
 N   -3.848381   -0.666474   -1.134366
 O   -4.610253   -2.180198    0.399472
 O   -4.195643    0.352702    2.238310
 C   -0.532883    0.431804    2.226286
 C   -0.292607   -0.584265    1.257322
 N    1.535621    0.454973    1.813702
 N    0.597600    1.073041    2.561945
 C    2.191609   -2.756017    0.677328
 C    0.850638    3.304652   -0.022590
 C    2.260693    3.731208    0.368535
 N    3.224958    2.647700    0.187599
 C    3.267482    2.295466   -1.227698
 C    1.923251    1.761745   -1.705893
 H   -1.839302   -0.935682   -2.885580
 H   -3.673143    1.794084   -0.154670
 H    0.802427    3.538514   -2.165208
 H   -5.516358   -1.766049   -1.655300
 H   -5.460056   -0.129463   -2.369209
 H   -4.419976   -1.419950   -3.019510
 H   -1.195395   -1.943876   -0.181742
 H   -2.047476    1.476999    3.397041
 H    2.908786   -0.825091   -0.025403
 H    1.473568   -1.405270   -0.863940
 H    4.940038    3.922992    0.122968
 H    4.489664    3.291513    1.727390
 H    5.245889    2.216129    0.534618
 H    4.924654   -2.887483    0.386005
 H    4.988274   -3.851129   -1.099468
 H    4.320643   -2.216977   -1.142042
 H    3.726375   -5.761003   -0.081940
 H    3.709438   -4.892188    1.463099
 H    2.192461   -5.481681    0.761261
 H    2.157660   -3.069902   -2.155158
 H    2.776640   -4.722694   -2.144288
 H    1.236562   -4.354655   -1.349710
 H   -1.701758    3.244563   -0.263910
 H    0.121171    0.518071   -3.039622
 H   -4.251595    1.008462    2.943842
 H    1.216440   -3.212756    0.891761
 H    2.704605   -2.663248    1.643918
 H    0.501118    2.569948    0.707919
 H    0.200643    4.181477    0.071748
 H    2.259314    4.022651    1.424348
 H    2.573825    4.619163   -0.218132
 H    2.430733    0.921639    1.698878
 H    4.033805    1.525003   -1.374819
 H    3.570572    3.172606   -1.835294
 H    2.004703    1.535894   -2.774970
 H    1.725975    0.820048   -1.188864
