42 
5lom_ligand_xtb.xyz
 O   -2.661244   -2.010729   -0.996103
 C   -2.676891   -0.635140   -0.699875
 C   -3.884330   -0.280471    0.190399
 O   -5.072598   -0.531663   -0.497047
 C   -3.748021    1.182295    0.636960
 O   -3.852602    1.958391   -0.535127
 C   -2.400830    1.358569    1.349371
 O   -1.311771    0.975239    0.522601
 C   -1.363641   -0.329583    0.042315
 O   -1.189199   -1.246172    1.097363
 C   -0.153557   -0.475174   -0.913922
 N    1.045126   -0.508813   -0.064431
 C    2.241373   -1.160575   -0.625552
 C    3.107146   -1.750697    0.498600
 O    2.365555   -2.086205    1.550858
 C    3.032589   -0.217308   -1.543292
 C    3.930863    0.819741   -0.856543
 C    3.225962    1.909550   -0.078409
 O    2.082877    1.806520    0.366476
 N    3.939793    3.014563    0.125310
 O    4.287288   -1.912331    0.419433
 H   -3.570070   -2.272692   -1.201744
 H   -2.725064   -0.030256   -1.616325
 H   -3.890343   -0.936258    1.068991
 H   -5.240801    0.213566   -1.090334
 H   -4.559778    1.425647    1.337859
 H   -3.781188    2.892817   -0.313347
 H   -2.397451    0.772875    2.275350
 H   -2.210548    2.407687    1.580445
 H   -1.660026   -2.059717    0.855787
 H   -0.128659    0.371775   -1.596954
 H   -0.264909   -1.410823   -1.466225
 H    0.740369   -0.989594    0.803772
 H    1.339898    0.513767    0.196732
 H    1.918622   -2.025738   -1.221955
 H    2.896764   -2.505370    2.248006
 H    3.684800   -0.834891   -2.161988
 H    2.327973    0.287963   -2.205203
 H    4.614818    0.311039   -0.172536
 H    4.545387    1.287676   -1.626908
 H    4.880477    3.123893   -0.212689
 H    3.534865    3.764731    0.665150
