84 
5lp1_ligand_dft.xyz
 N   27.651784  -32.536212    3.953152
 N   23.517512  -28.988639    2.199097
 C   27.329918  -34.641541    5.203138
 C   27.773948  -33.166980    5.264799
 C   28.862090  -32.403324    3.151428
 C   29.685208  -31.201763    3.548247
 C   31.043857  -30.750443    2.951260
 C   29.244186  -29.716116    3.487084
 C   30.856312  -27.225026    4.443183
 C   32.907937  -26.218574    5.195646
 C   32.806903  -28.589188    4.799579
 C   26.276107  -31.445904    2.203731
 C   23.867071  -31.670296    1.797053
 C   23.834672  -33.119395    1.601721
 C   21.656044  -32.269542    1.430509
 C   22.360913  -29.742996    1.888813
 C   25.283498  -26.916321    2.990715
 F   29.409978  -23.472773    4.646696
 C   28.415677  -24.288885    4.251661
 C   27.806621  -25.105374    5.192518
 C   26.781542  -25.946616    4.774135
 C   28.044773  -24.295496    2.916840
 C   27.017563  -25.144752    2.518942
 C   26.370997  -25.973453    3.438181
 S   26.085070  -28.528326    2.688578
 C   24.678040  -29.533022    2.268458
 O   21.267215  -29.214483    1.801116
 C   22.613793  -31.156365    1.704294
 C   22.555211  -33.472717    1.385419
 N   24.961351  -30.865224    2.030314
 C   26.427493  -32.057207    3.609293
 O   25.455569  -32.135621    4.344925
 N   27.282722  -35.358427    6.462504
 C   28.460375  -35.228817    7.304746
 C   29.727781  -35.732054    6.618412
 C   26.010594  -35.285307    7.169925
 C   25.552322  -33.908155    7.667816
 C   30.279093  -30.884803    4.947260
 C   30.690328  -29.689029    4.036755
 C   31.464892  -28.480860    4.427408
 C   33.528145  -27.466606    5.181123
 C   33.698644  -24.990556    5.552840
 F   34.251191  -24.423998    4.463794
 F   32.932624  -24.053293    6.134633
 F   34.705399  -25.270994    6.399257
 C   31.571655  -26.096153    4.825833
 H   26.328848  -34.672043    4.761748
 H   27.999822  -35.165764    4.505792
 H   28.819963  -33.087703    5.573636
 H   27.173433  -32.605031    5.980482
 H   28.609258  -32.347391    2.088384
 H   29.450552  -33.320191    3.276898
 H   31.908050  -31.392774    3.153009
 H   31.037265  -30.399875    1.913887
 H   29.095678  -29.282477    2.491623
 H   28.451067  -29.412086    4.176248
 H   29.812147  -27.126402    4.157950
 H   33.289012  -29.563156    4.792235
 H   26.412196  -32.224283    1.445586
 H   27.037664  -30.689090    2.005755
 H   24.686809  -33.785957    1.652574
 H   21.108352  -32.124248    0.490379
 H   20.896547  -32.358875    2.218099
 H   24.795866  -26.587932    2.071614
 H   24.511079  -27.058254    3.748723
 H   28.131346  -25.071700    6.226511
 H   26.292815  -26.593953    5.497311
 H   28.550556  -23.643327    2.213757
 H   26.714632  -25.162896    1.475681
 H   22.200872  -34.482303    1.215961
 H   28.628121  -34.196239    7.665379
 H   28.284302  -35.835908    8.200275
 H   30.566036  -35.728476    7.322188
 H   29.579169  -36.752874    6.253446
 H   30.013330  -35.105441    5.765644
 H   25.239552  -35.694530    6.504989
 H   26.079932  -35.974829    8.020310
 H   24.652007  -34.014182    8.283033
 H   26.321359  -33.428575    8.284481
 H   25.306233  -33.244372    6.832714
 H   29.566921  -30.657321    5.746799
 H   31.088050  -31.535036    5.299306
 H   34.568700  -27.558493    5.473418
 H   31.090835  -25.124388    4.841346
