87 
5lp1_ligand_xtb.xyz
 N    1.291469    1.292507   -1.440498
 N    2.958455   -3.219530    0.838537
 C    2.448733    3.408615   -1.037635
 C    1.335786    2.453428   -0.568814
 C    0.316018    1.287626   -2.515972
 C   -1.074952    0.924071   -2.040964
 C   -2.338544    0.831808   -2.915129
 C   -1.516281   -0.391489   -1.377190
 C   -5.208090    0.999230   -1.192769
 C   -6.693330   -0.555662   -0.142950
 C   -4.382295   -1.116180   -0.406750
 C    2.011099   -1.040932   -1.892972
 C    4.148457   -2.086657   -1.292199
 C    4.946580   -1.516551   -2.425975
 C    6.376272   -2.596048   -0.737560
 C    4.355281   -3.169387    0.879547
 C    0.319770   -2.951628    1.828522
 F    0.896479    2.471582    3.035415
 C    0.729464    1.123906    2.877516
 C    1.822878    0.291811    3.015922
 C    1.665276   -1.054609    2.742452
 C   -0.523932    0.651547    2.539547
 C   -0.663981   -0.696694    2.267178
 C    0.432628   -1.552116    2.331464
 S    0.511401   -2.852292    0.005578
 C    2.272801   -2.688645   -0.087500
 O    4.960681   -3.496443    1.872826
 C    4.930145   -2.670768   -0.360714
 C    6.335423   -2.148444   -2.210496
 N    2.776029   -2.037574   -1.183271
 C    2.122453    0.273401   -1.114985
 O    2.937844    0.408479   -0.220783
 N    2.880753    4.457289   -0.060943
 C    1.791444    4.986236    0.808821
 C    0.798089    5.812352    0.010325
 C    4.105648    4.072990    0.716208
 C    3.916786    2.898808    1.655248
 C   -1.933489    1.662256   -0.997681
 C   -2.793915    0.467558   -1.479228
 C   -4.151858    0.109769   -1.021078
 C   -5.648424   -1.451561    0.034871
 C   -8.066855   -0.891696    0.368357
 F   -9.040675   -0.379901   -0.397176
 F   -8.285097   -2.210441    0.445759
 F   -8.264508   -0.400708    1.608739
 C   -6.476470    0.672064   -0.755125
 H    2.120999    3.905116   -1.953461
 H    3.322832    2.798523   -1.273214
 H    1.548994    2.089490    0.438568
 H    0.358516    2.932497   -0.589381
 H    0.629745    0.585384   -3.289259
 H    0.296390    2.286714   -2.964767
 H   -2.372401    0.031785   -3.649265
 H   -2.719092    1.760559   -3.332774
 H   -1.132710   -0.585076   -0.379297
 H   -1.486811   -1.289593   -1.988867
 H   -5.036443    1.950386   -1.672697
 H   -3.566341   -1.811085   -0.279925
 H    0.970547   -1.360642   -1.955744
 H    2.419382   -0.919466   -2.899340
 H    4.987672   -0.426206   -2.341819
 H    4.531429   -1.770391   -3.402706
 H    6.876716   -3.553876   -0.603713
 H    6.885515   -1.869789   -0.099745
 H   -0.661554   -3.389746    1.997238
 H    1.116827   -3.601078    2.183946
 H    2.777484    0.686081    3.322928
 H    2.509830   -1.719858    2.827819
 H   -1.364942    1.325958    2.494077
 H   -1.633085   -1.085691    1.991222
 H    7.138334   -1.454704   -2.449863
 H    6.438781   -3.019178   -2.857266
 H    3.175702    5.257296   -0.630716
 H    2.255461    5.619441    1.567502
 H    1.298512    4.161123    1.318025
 H    1.287205    6.653731   -0.477095
 H    0.281545    5.224052   -0.742348
 H    0.049366    6.213950    0.687083
 H    4.412549    4.955645    1.282595
 H    4.891764    3.844787   -0.007034
 H    3.153485    3.104021    2.398477
 H    3.681901    1.981609    1.121145
 H    4.853939    2.736751    2.181401
 H   -2.291299    2.656352   -1.259583
 H   -1.604287    1.616566    0.037909
 H   -5.829565   -2.403655    0.509044
 H   -7.297936    1.358505   -0.889857
