41 
5lpk_ligand_dft.xyz
 N  -33.159080   50.561376   -1.901333
 C  -28.874386   50.695902   -3.230333
 C  -27.871371   50.885758   -4.293239
 C  -28.296047   51.152724   -5.725270
 C  -30.311199   50.682988   -3.258869
 C  -31.223656   50.873962   -4.441623
 C  -31.994855   50.411548   -1.206081
 C  -30.724215   50.490864   -1.950672
 C  -34.435785   50.698804   -1.232519
 C  -35.025735   52.085812   -1.391394
 C  -36.381022   52.257537   -1.666345
 C  -36.918700   53.534996   -1.797272
 C  -36.110319   54.658336   -1.665596
 C  -34.757776   54.477484   -1.394500
 O  -31.973800   50.225769    0.009068
 C  -31.693930   52.327151   -4.605164
 O  -26.677565   50.832051   -4.032789
 C  -28.479314   50.498186   -1.898778
 C  -27.128821   50.415748   -1.270757
 N  -29.598449   50.381381   -1.167053
 C  -34.209314   53.210124   -1.253250
Cl  -33.722366   55.877645   -1.229928
 H  -33.114418   50.841059   -2.867526
 H  -27.402613   51.397064   -6.302068
 H  -28.761483   50.260934   -6.160120
 H  -29.012941   51.976420   -5.794877
 H  -32.086399   50.202174   -4.352084
 H  -30.726021   50.553721   -5.357682
 H  -35.139510   49.949581   -1.612615
 H  -34.252341   50.475645   -0.177830
 H  -37.021197   51.386923   -1.781986
 H  -37.975340   53.659225   -2.013168
 H  -36.516551   55.657784   -1.773875
 H  -32.348272   52.432987   -5.476369
 H  -32.239854   52.679092   -3.722224
 H  -30.838062   52.996929   -4.735436
 H  -26.556912   51.327128   -1.461011
 H  -27.217789   50.265986   -0.189823
 H  -26.550413   49.594418   -1.700478
 H  -29.672255   50.234278   -0.169196
 H  -33.151923   53.097507   -1.034936
