41 
5lpk_ligand_xtb.xyz
 N  -33.261468   50.521243   -2.375353
 C  -28.837478   50.684441   -3.002276
 C  -27.671064   51.016618   -3.820046
 C  -27.850932   51.826864   -5.084515
 C  -30.243363   50.795682   -3.228456
 C  -30.943461   51.282919   -4.458606
 C  -32.230642   50.202118   -1.556745
 C  -30.865155   50.350259   -2.072426
 C  -34.627697   50.555922   -1.902370
 C  -35.132091   51.973227   -1.813090
 C  -34.417024   52.912464   -1.077906
 C  -34.849842   54.223480   -1.007689
 C  -36.002314   54.618000   -1.666804
 C  -36.712584   53.679104   -2.395684
 O  -32.406623   49.788593   -0.416994
 C  -31.410454   52.735000   -4.306580
 O  -26.554414   50.669455   -3.482124
 C  -28.669876   50.157775   -1.712668
 C  -27.432800   49.831651   -0.968371
 N  -29.883431   49.981045   -1.185619
 C  -36.284846   52.363826   -2.478294
Cl  -38.154938   54.153609   -3.224739
 H  -33.079342   50.940863   -3.269712
 H  -26.876270   52.198159   -5.393785
 H  -28.234798   51.187368   -5.877429
 H  -28.528139   52.660938   -4.932873
 H  -31.798720   50.635048   -4.671492
 H  -30.281343   51.209516   -5.317792
 H  -35.262762   49.963218   -2.567725
 H  -34.617529   50.092791   -0.910249
 H  -33.523005   52.605230   -0.555807
 H  -34.290451   54.946708   -0.434107
 H  -36.347352   55.638285   -1.615440
 H  -31.947107   53.056458   -5.196604
 H  -32.064108   52.854974   -3.444536
 H  -30.557098   53.393825   -4.164116
 H  -26.741997   50.671959   -0.998037
 H  -27.664851   49.579154    0.064265
 H  -26.922287   48.993680   -1.440887
 H  -30.119071   49.624401   -0.269658
 H  -36.853276   51.649130   -3.053657
