121 
5lrj_ligand_dft.xyz
 C   -5.770873    0.876657    2.108376
 C   -5.890589   -2.214443    1.731863
 C   -5.370436   -2.939120    0.482492
 C   -6.420815   -3.886884   -0.098247
 N   -4.950160   -2.100107   -0.636882
 C   -3.686647   -1.596232   -0.696342
 O   -3.056967   -1.248663    0.310869
 O   -6.908935   -4.713206    0.820519
 O   -6.751963   -3.883993   -1.261068
 C   -7.069180   -1.255510    1.516397
 C   -6.706063    0.179012    1.111221
 N   -4.366412    0.904437    1.604601
 N   -3.159014   -1.449439   -1.960051
 C   -1.728427   -1.216014   -2.152224
 C   -1.314836    0.175951   -1.640581
 O   -0.312146    0.364986   -0.959652
 C   -0.821408   -2.335979   -1.629262
 C    0.550749   -2.318569   -2.312414
 C    1.344918   -3.622024   -2.188035
 C    1.705493   -4.043012   -0.763619
 N    2.271038   -2.903017   -0.006062
 N   -2.099947    1.173171   -2.108518
 C   -1.878799    2.558100   -1.748040
 C   -2.684299    2.857175   -0.492292
 O   -3.906668    2.682242   -0.486964
 C   -2.210414    3.538501   -2.901250
 C   -3.612450    3.360758   -3.490864
 C   -1.141665    3.423237   -3.991433
 N   -2.043892    3.345048    0.599740
 C   -0.726320    2.953778    1.080368
 C   -0.949652    1.935355    2.217000
 C    0.061374    4.193154    1.548709
 C    0.805288    4.885414    0.393857
 C    2.056194    4.138993   -0.016914
 C    3.211415    4.216220    0.770335
 C    4.366729    3.516210    0.443562
 C    4.391989    2.720916   -0.704603
 C    3.255790    2.630099   -1.508085
 C    2.105410    3.335705   -1.157987
 O    5.479172    1.979995   -1.064604
 O   -2.045673    1.893605    2.785186
 N    0.056322    1.122192    2.597373
 C   -0.231372    0.218915    3.716589
 C    1.390666    1.175242    2.024753
 C    2.463317    1.536438    3.067981
 C    1.799472   -0.131086    1.349519
 O    1.388498   -1.225221    1.741631
 N    2.709462    0.014526    0.355759
 C    3.843214   -0.838966    0.007215
 C    3.567492   -2.325820   -0.262901
 O    4.190897   -2.865088   -1.322592
 C    4.989320   -0.715969    1.034024
 C    6.181600   -1.554228    0.629457
 C    6.550571   -2.677668    1.370731
 C    6.883515   -1.254449   -0.548076
 C    7.605339   -3.485660    0.951661
 C    7.931011   -2.070048   -0.971536
 C    8.292496   -3.187851   -0.220938
 O    3.391656   -3.173961    0.853647
 H   -5.765974    0.377759    3.080675
 H   -6.053993    1.918276    2.269030
 H   -5.040958   -1.707973    2.202358
 H   -6.186535   -2.997229    2.435876
 H   -4.526838   -3.566665    0.801226
 H   -5.414926   -2.369306   -1.500013
 H   -7.560416   -5.293590    0.391179
 H   -7.639203   -1.205393    2.451025
 H   -7.760492   -1.665984    0.770626
 H   -6.254595    0.199011    0.112457
 H   -7.630558    0.758614    1.036711
 H   -4.299086    1.560954    0.799680
 H   -4.016043   -0.013551    1.267635
 H   -3.675266    1.243809    2.294901
 H   -3.596704   -1.993139   -2.691501
 H   -1.605958   -1.164837   -3.241401
 H   -0.736865   -2.244890   -0.541458
 H   -1.320953   -3.289211   -1.845099
 H    1.133299   -1.469178   -1.936353
 H    0.417720   -2.136071   -3.385741
 H    2.266760   -3.538124   -2.768623
 H    0.774064   -4.452172   -2.618760
 H    0.838076   -4.366881   -0.183813
 H    2.456826   -4.832564   -0.756357
 H    1.638657   -2.279222    0.572200
 H   -2.996132    0.925513   -2.506121
 H   -0.813957    2.652693   -1.540365
 H   -2.148092    4.542846   -2.461306
 H   -3.805322    4.153025   -4.219400
 H   -4.389713    3.400469   -2.725602
 H   -3.698413    2.409958   -4.032031
 H   -1.354881    4.118741   -4.807908
 H   -1.118182    2.411557   -4.411431
 H   -0.141858    3.659250   -3.609889
 H   -2.684068    3.539442    1.364793
 H   -0.207110    2.442260    0.268090
 H    0.778598    3.921613    2.331166
 H   -0.646931    4.887597    2.012140
 H    1.073039    5.900052    0.705556
 H    0.126298    4.994668   -0.460539
 H    3.213995    4.844433    1.657849
 H    5.251572    3.604940    1.069435
 H    3.292853    2.036372   -2.416065
 H    1.240547    3.271901   -1.811905
 H    6.267648    2.305530   -0.610386
 H   -0.554336    0.792653    4.588044
 H   -1.023545   -0.476403    3.433034
 H    0.657457   -0.357964    3.956916
 H    1.411313    1.953896    1.264154
 H    3.428024    1.686858    2.577018
 H    2.187117    2.467785    3.569241
 H    2.576025    0.757533    3.826282
 H    2.833582    0.961262    0.009686
 H    4.193501   -0.445799   -0.950386
 H    5.141962   -2.641429   -1.282832
 H    4.614749   -1.021199    2.016552
 H    5.251529    0.345688    1.087069
 H    6.014372   -2.921555    2.283972
 H    6.618432   -0.370413   -1.125411
 H    7.887744   -4.350991    1.542470
 H    8.471442   -1.826130   -1.880704
 H    9.111259   -3.820163   -0.547942
