61 
5lss_ligand_xtb.xyz
 C    2.166803   -1.961063    0.011178
 C    3.085296   -0.896311   -0.029184
 C    4.094284   -0.896189    0.971009
 C    1.720131   -0.682978   -1.707225
 N    4.031712   -1.861638    1.887510
 N    2.137698   -2.909201    0.933795
 O    0.183007    4.487727    0.879323
 C    1.215230    4.107916    0.403612
 C    1.406008    2.678856   -0.139961
 N    2.579098    2.522269   -1.008335
 C    0.125562    2.223257   -0.862433
 C   -0.990175    1.842472    0.115214
 C   -2.281081    1.388701   -0.588224
 N   -3.292151    1.008996    0.446727
 C   -4.716873    1.082055    0.017776
 C   -5.648125    0.890659    1.209870
 C   -5.559003   -0.502367    1.822955
 C   -2.160316    0.300436   -1.666085
 C   -1.827971   -1.158724   -1.288339
 O   -0.739070   -1.617037   -2.100067
 C   -1.403264   -1.511823    0.153218
 O   -2.479418   -1.566929    1.039418
 C   -0.691757   -2.857232   -0.091096
 O   -1.698808   -3.800039   -0.296306
 C    0.075635   -2.500297   -1.389711
 N    1.315798   -1.783051   -1.061053
 N    2.757719   -0.114191   -1.115507
 C    3.099517   -2.786566    1.840881
 N    5.068183    0.008667    1.072533
 O    2.316463    4.832156    0.293483
 H    1.260871   -0.347776   -2.617378
 H    1.572955    2.046542    0.744461
 H    2.945655    0.940825   -1.218885
 H    2.416548    2.992692   -1.896331
 H    3.370095    2.997985   -0.578506
 H   -0.223791    3.029264   -1.510366
 H    0.381432    1.368990   -1.486546
 H   -0.622536    1.078168    0.799858
 H   -1.217148    2.730673    0.709280
 H   -2.678910    2.270185   -1.106272
 H   -3.111425    0.033996    0.789998
 H   -3.186052    1.637284    1.252138
 H   -4.891444    2.058225   -0.438740
 H   -4.900040    0.305898   -0.725512
 H   -6.666564    1.058666    0.859593
 H   -5.440950    1.648353    1.968106
 H   -5.742842   -1.265095    1.070618
 H   -6.319649   -0.607866    2.590154
 H   -4.595180   -0.688169    2.291331
 H   -1.405664    0.619536   -2.383916
 H   -3.097843    0.287017   -2.222101
 H   -2.695408   -1.794262   -1.518234
 H   -0.678092   -0.801457    0.556956
 H   -2.900719   -2.437933    0.948737
 H   -0.006495   -3.145533    0.712089
 H   -1.346644   -4.697467   -0.296149
 H    0.311634   -3.374644   -2.006661
 H    3.119259   -3.532214    2.621984
 H    5.761581   -0.149855    1.788805
 H    5.281545    0.654119    0.331995
 H    2.202617    5.729052    0.652263
