61 
5lss_ligand_dft.xyz
 C    1.815205   -2.102932    0.116980
 C    2.798471   -1.241114   -0.367770
 C    3.835870   -0.924252    0.522015
 C    1.360599   -1.422467   -1.923087
 N    3.818600   -1.430119    1.746302
 N    1.788189   -2.639848    1.335208
 O    1.101621    3.966796    1.280115
 C    1.981072    3.500785    0.609332
 C    1.830891    2.164026   -0.114929
 N    3.011285    1.887599   -0.997454
 C    0.529658    2.061130   -0.926558
 C   -0.738222    2.001658   -0.060836
 C   -1.991874    1.591122   -0.863218
 N   -3.158441    1.544865    0.097814
 C   -4.526454    1.451572   -0.526744
 C   -5.620184    1.582449    0.525529
 C   -5.620789    0.466206    1.571355
 C   -1.914356    0.297358   -1.696210
 C   -2.006128   -1.065742   -0.984364
 O   -1.285308   -2.040677   -1.749905
 C   -1.464514   -1.201568    0.451188
 O   -2.403415   -0.798918    1.419269
 C   -1.106374   -2.686498    0.494529
 O   -2.336485   -3.360493    0.566436
 C   -0.475631   -2.811875   -0.903959
 N    0.884475   -2.203816   -0.904537
 N    2.489163   -0.811249   -1.646986
 C    2.817034   -2.257584    2.087747
 N    4.840509   -0.013352    0.181560
 O    3.180572    4.045362    0.399968
 H    0.819497   -1.329511   -2.853985
 H    1.845389    1.379036    0.649052
 H    2.826641    1.042575   -1.591061
 H    3.261379    2.691541   -1.579266
 H    3.844183    1.606211   -0.432480
 H    0.463727    2.892743   -1.638491
 H    0.618577    1.142383   -1.511259
 H   -0.581677    1.321898    0.782380
 H   -0.907483    2.988183    0.381473
 H   -2.226224    2.405015   -1.557765
 H   -3.024642    0.736046    0.746760
 H   -3.136258    2.387024    0.682106
 H   -4.587445    2.243098   -1.277882
 H   -4.580826    0.483450   -1.030042
 H   -6.570330    1.578185   -0.017905
 H   -5.555547    2.566157    1.007611
 H   -5.660775   -0.520248    1.095356
 H   -6.500204    0.554965    2.212886
 H   -4.745673    0.501472    2.230911
 H   -0.975866    0.323442   -2.252472
 H   -2.689873    0.331601   -2.467037
 H   -3.053808   -1.389639   -0.952643
 H   -0.557844   -0.616582    0.612344
 H   -2.988869   -1.562220    1.574196
 H   -0.423845   -2.950713    1.304025
 H   -2.212675   -4.254999    0.908215
 H   -0.423628   -3.829364   -1.292023
 H    2.857233   -2.658632    3.095387
 H    5.544367    0.032486    0.915605
 H    5.281804   -0.230275   -0.709862
 H    3.242701    4.885914    0.889453
