64 
5lsy_ligand_xtb.xyz
 C   -6.935506    0.619924    0.505287
 C   -5.510772    0.504371    1.044766
 C   -5.301508   -0.851667    1.714163
 C   -2.114148    1.213834   -0.652891
 C   -0.877639    1.763984    0.079232
 C    0.238013    2.203683   -0.873450
 C    1.177791    4.163414    0.400410
 C   -1.888379    0.125066   -1.713361
 C   -1.477656   -1.305955   -1.306438
 C    2.021133   -0.599827   -1.689732
 C    3.393908   -0.720667   -0.008740
 C    4.398182   -0.652094    0.993656
 C    2.551380   -1.846435    0.027931
 C   -4.532449    0.716180   -0.116004
 N   -3.123119    0.774806    0.359939
 C    1.469942    2.745651   -0.127295
 N    2.668358    2.659327   -0.970999
 O    0.111156    4.484231    0.842139
 O    2.237330    4.951200    0.317946
 O   -0.360548   -1.716476   -2.105886
 C    0.505410   -2.529153   -1.373643
 C   -0.246882   -2.910711   -0.073214
 O   -1.193226   -3.916668   -0.266790
 C   -1.040881   -1.607262    0.143391
 O   -2.117108   -1.714623    1.024716
 N    1.692588   -1.726246   -1.046127
 N    3.015406    0.038904   -1.094475
 N    5.307168    0.317880    1.097517
 N    4.399970   -1.620277    1.909286
 C    3.533698   -2.607172    1.859538
 N    2.585384   -2.795371    0.949544
 H   -7.106310    1.593197    0.053535
 H   -7.128847   -0.147574   -0.239242
 H   -7.649978    0.494566    1.312443
 H   -5.357471    1.298209    1.784216
 H   -5.417281   -1.655491    0.991185
 H   -6.053282   -0.993250    2.484626
 H   -4.327456   -0.936732    2.191083
 H   -2.558384    2.059466   -1.192417
 H   -0.481379    1.036190    0.787248
 H   -1.180713    2.643438    0.651848
 H   -0.143928    2.978789   -1.540393
 H    0.562945    1.360231   -1.479655
 H   -1.132681    0.485056   -2.410253
 H   -2.804068    0.045408   -2.299449
 H   -2.306525   -1.993940   -1.527421
 H    1.543086   -0.297197   -2.601621
 H   -4.630963   -0.101895   -0.830088
 H   -4.765964    1.654980   -0.622405
 H   -3.096933    1.430659    1.149634
 H   -2.869219   -0.171643    0.734093
 H    1.658806    2.130959    0.764959
 H    2.498265    3.125552   -1.859841
 H    3.421927    3.176027   -0.521638
 H    3.131063    1.105133   -1.191898
 H    2.059845    5.841329    0.667465
 H    0.804628   -3.396851   -1.972101
 H    0.449542   -3.143100    0.738406
 H   -0.786346   -4.790536   -0.252393
 H   -0.363875   -0.846164    0.538336
 H   -2.480647   -2.612664    0.948208
 H    5.478257    0.975392    0.356615
 H    6.008444    0.207069    1.815023
 H    3.602488   -3.350078    2.640462
