64 
5lsy_ligand_dft.xyz
 C   -6.852810    0.965766   -0.149599
 C   -5.504601    1.113925    0.563706
 C   -5.328873    0.044060    1.646768
 C   -1.885100    1.404785   -0.848064
 C   -0.662558    1.918220   -0.056585
 C    0.594538    2.069229   -0.927008
 C    1.949857    3.578463    0.633250
 C   -1.710579    0.115958   -1.673951
 C   -1.682803   -1.244097   -0.951395
 C    1.683128   -1.340848   -1.930910
 C    3.133237   -1.059294   -0.401661
 C    4.158185   -0.666591    0.472000
 C    2.228034   -1.996752    0.094779
 C   -4.395467    1.056752   -0.487094
 N   -3.035368    1.269089    0.123505
 C    1.890294    2.251279   -0.120935
 N    3.081183    2.079443   -1.015426
 O    1.039931    3.971421    1.310008
 O    3.113521    4.202390    0.443436
 O   -0.899956   -2.165726   -1.722288
 C   -0.023368   -2.869169   -0.883928
 C   -0.639760   -2.779356    0.523799
 O   -1.814259   -3.543321    0.621052
 C   -1.108382   -1.325700    0.475158
 O   -2.057304   -0.984657    1.456730
 N    1.287907   -2.162233   -0.909308
 N    2.767099   -0.646929   -1.671869
 N    5.079111    0.325053    0.120802
 N    4.204355   -1.180659    1.692074
 C    3.277167   -2.086403    2.044938
 N    2.266345   -2.542048    1.309082
 H   -6.995414    1.734549   -0.915452
 H   -6.941569   -0.017128   -0.625802
 H   -7.667955    1.059740    0.571935
 H   -5.477273    2.107044    1.034985
 H   -5.284400   -0.957034    1.199769
 H   -6.181771    0.059347    2.329793
 H   -4.433507    0.194582    2.261629
 H   -2.189355    2.192918   -1.544993
 H   -0.450990    1.260857    0.792457
 H   -0.905910    2.892052    0.379166
 H    0.469741    2.900379   -1.631561
 H    0.742350    1.163655   -1.520248
 H   -0.783549    0.214797   -2.241089
 H   -2.495277    0.080921   -2.435357
 H   -2.700634   -1.649877   -0.898848
 H    1.119463   -1.285040   -2.851240
 H   -4.377950    0.079118   -0.976358
 H   -4.524917    1.828941   -1.250630
 H   -3.078911    2.114238    0.702100
 H   -2.825874    0.479994    0.775842
 H    1.967810    1.453209    0.625956
 H    3.260786    2.906071   -1.591361
 H    3.939714    1.860342   -0.460950
 H    2.958117    1.227671   -1.615147
 H    3.120582    5.033260    0.952876
 H    0.097540   -3.883066   -1.265977
 H    0.073405   -2.985257    1.323850
 H   -1.617451   -4.423245    0.966410
 H   -0.244977   -0.673285    0.614368
 H   -2.581247   -1.787558    1.629836
 H    5.520401    0.150356   -0.779788
 H    5.789980    0.423941    0.842741
 H    3.368319   -2.490708    3.047963
