15 
5lud_ligand_xtb.xyz
 N   -1.730685    1.374490   -0.045624
 C   -0.506338    0.712339    0.001393
 C   -0.463766   -0.701595   -0.002574
 N   -1.641387   -1.431736    0.045172
 C    0.704509    1.382679   -0.023204
 C    1.891335    0.658032   -0.017284
 C    1.817288   -0.718787    0.021276
 N    0.667242   -1.382243    0.018443
 H   -2.463329    0.920435    0.480414
 H   -1.665072    2.361254    0.160915
 H   -2.386838   -1.073195   -0.533189
 H   -1.475345   -2.419684   -0.083375
 H    0.717261    2.464291   -0.038440
 H    2.844070    1.163290   -0.032827
 H    2.704897   -1.335975    0.042924
