32 
5lvn_ligand_xtb.xyz
 O    1.834111   -1.593820    1.663659
 C    2.961785   -1.829194    0.848680
 C    3.074987   -0.724048   -0.206745
 O    2.023063   -0.824073   -1.161523
 C    2.986048    0.688305    0.388264
 O    3.738211    1.585754   -0.376708
 C    1.482717    0.986622    0.295957
 O    1.243794    2.351905    0.148574
 C    1.058057    0.157054   -0.941770
 N   -0.247127   -0.422111   -0.724536
 C   -0.673947   -1.708935   -0.880965
 N   -1.927951   -1.886288   -0.595109
 C   -2.384608   -0.646912   -0.221421
 C   -3.628722   -0.143042    0.197593
 N   -4.724181   -0.908852    0.318934
 N   -3.719098    1.158092    0.493487
 C   -2.648393    1.923233    0.387041
 N   -1.429453    1.581183    0.006164
 C   -1.332774    0.280712   -0.295489
 H    1.725917   -2.335399    2.268737
 H    3.880970   -1.836810    1.450046
 H    2.868608   -2.788812    0.324870
 H    4.016014   -0.845899   -0.751807
 H    3.328286    0.699107    1.431632
 H    3.242310    2.417886   -0.395382
 H    0.979409    0.578941    1.182085
 H    0.271180    2.459271    0.102125
 H    0.996662    0.815640   -1.826368
 H   -0.008616   -2.478996   -1.214848
 H   -5.589909   -0.484171    0.597935
 H   -4.673484   -1.880447    0.073680
 H   -2.786995    2.964613    0.645843
