55 
5lwd_ligand_xtb.xyz
 O    0.296788   -1.301446   -2.313513
 C   -0.942178    0.405795    1.866459
 C    0.869799    0.931905    0.333244
 O   -1.534725   -1.160282   -0.996273
 C    2.362972    0.714506    0.052962
 N    2.584701   -0.530141   -0.667875
 C    2.952828    1.883587   -0.739128
 C    3.510222    3.002338    0.146643
 N    0.051715   -2.631250   -0.485178
 C    2.423326    3.621825    1.020786
 O   -1.179605   -1.998304    1.923972
 C    4.154679    4.074438   -0.730318
 C    1.393709   -3.135993   -0.554542
 C   -0.332090   -1.655678   -1.341133
 N   -3.048305   -0.754320    1.975243
 C   -2.031209   -0.109163   -1.836001
 C   -3.233815    0.475043   -1.154993
 C   -3.189340    1.758488   -0.625793
 C   -1.712550   -0.907897    1.896773
 N    0.418782    0.267057    1.415067
 O    0.161445    1.655968   -0.342103
 P    2.620674   -1.962286    0.184066
 O    2.588473   -1.750467    1.640671
 O    3.974095   -2.700112   -0.286284
 C   -4.387715   -0.284811   -1.006264
 C   -5.482399    0.230382   -0.334283
 C   -5.433201    1.510725    0.194123
 C   -4.286796    2.274153    0.044978
 H   -1.435019    1.111479    1.192060
 H   -0.953769    0.816764    2.885147
 H    2.879845    0.604519    1.011892
 H    2.143725   -0.564241   -1.578926
 H    2.172238    2.286560   -1.388155
 H    3.755484    1.494852   -1.368201
 H    4.282721    2.575629    0.797670
 H   -0.410452   -2.652417    0.422223
 H    1.597633    3.968176    0.404255
 H    2.821474    4.467981    1.577017
 H    2.034734    2.897759    1.732935
 H    3.410621    4.522804   -1.384555
 H    4.589872    4.859584   -0.116349
 H    4.941367    3.646113   -1.347146
 H    1.669982   -3.293363   -1.599293
 H    1.458621   -4.080491   -0.013842
 H   -3.490758    0.132119    1.806129
 H   -3.623314   -1.580917    1.942818
 H   -1.245859    0.641833   -1.965187
 H   -2.286354   -0.529221   -2.816314
 H   -2.291778    2.347464   -0.742399
 H    1.005736   -0.431825    1.857153
 H    4.680691   -2.508488    0.332723
 H   -4.420951   -1.282638   -1.417098
 H   -6.377675   -0.364157   -0.225757
 H   -6.288738    1.913949    0.715686
 H   -4.247676    3.274337    0.450882
