56 
5lwm_ligand_xtb.xyz
 C   41.001723   23.838492   54.172256
 C   37.214836   22.366067   55.074080
 C   37.713735   21.331603   55.809374
 N   39.074477   21.385307   55.820101
 C   38.804343   26.032855   52.550543
 C   38.553112   27.171746   51.717829
 N   37.876370   25.187477   53.124783
 C   39.497749   28.079107   51.273842
 C   38.819426   29.001141   50.473932
 C   37.490273   28.615846   50.462932
 C   36.319353   29.116688   49.831212
 N   40.043184   25.699915   52.828802
 C   36.232609   30.198378   49.023152
 C   37.346180   31.183442   48.773513
 C   38.765208   32.260837   47.148524
 N   37.792016   31.253622   47.503044
 N   34.029759   30.854560   47.912143
 C   35.009041   30.551612   48.431852
 O   37.774623   31.878814   49.674541
 C   37.301376   30.441532   46.417518
 O   37.342204   27.495587   51.225437
 C   39.962190   24.592586   53.610647
 N   40.764422   22.779315   54.906726
 C   38.598424   24.247988   53.811735
 C   38.324301   23.115494   54.593422
 C   39.483121   22.456671   55.090446
 C   36.436012   25.315356   53.047220
 C   35.832905   25.527558   54.438892
 C   34.314955   25.648768   54.342081
 C   33.716957   24.423421   53.657566
 C   34.304434   24.257666   52.259538
 C   35.821666   24.112340   52.326165
 H   42.034075   24.110028   54.014103
 H   36.171603   22.546911   54.909403
 H   37.185445   20.555697   56.328827
 H   39.697528   20.746349   56.283193
 H   40.538256   28.050785   51.518959
 H   39.238370   29.853061   49.981476
 H   35.422996   28.535138   50.013704
 H   39.001462   32.834840   48.042533
 H   39.674333   31.792491   46.764908
 H   38.357205   32.927037   46.385813
 H   36.861025   29.519866   46.792747
 H   36.547373   30.978421   45.833770
 H   38.135077   30.186904   45.761019
 H   36.225317   26.207190   52.452676
 H   36.096992   24.698116   55.093169
 H   36.253534   26.438106   54.873322
 H   34.057098   26.542470   53.768905
 H   33.894290   25.761463   55.342866
 H   32.632548   24.528541   53.592931
 H   33.928532   23.531639   54.251880
 H   34.049291   25.132608   51.656908
 H   33.874295   23.380282   51.773083
 H   36.084278   23.191831   52.845979
 H   36.237093   24.052434   51.316973
