47 
5lxb_ligand_xtb.xyz
 C   -4.807001   -0.518002   -0.252759
 C    1.783293    2.412974    0.093166
 C   -4.051328   -1.445307    0.709246
 C    4.670150   -0.768804    0.138109
 C    4.042403    1.651942    0.299774
 C   -2.695468   -0.109507   -1.401470
 C   -2.663867   -0.856725    0.970384
 C   -2.817757    0.578931    1.465660
 O   -0.811257    1.752297   -0.715491
 C   -0.061490    0.848304   -0.358207
 N   -0.495455   -0.436415   -0.196517
 C   -1.870831   -0.883403   -0.354606
 C   -3.455804    1.416663    0.352486
 N   -3.873038    0.517663   -0.753304
 C    0.424004   -1.425680    0.350450
 C    1.369429    1.098633   -0.101433
 C    3.122384    2.684705    0.298301
 C    3.648382    0.331930    0.094082
 C    4.142733   -2.086967   -0.420418
 C    2.302352    0.058998   -0.106241
 C    1.781687   -1.331175   -0.340070
 C    2.764877   -2.385760    0.160123
 H   -5.635491   -0.015823    0.249434
 H   -5.209790   -1.070950   -1.103082
 H    1.046090    3.200813    0.081822
 H   -3.956421   -2.445954    0.287716
 H   -4.593221   -1.537625    1.649447
 H    4.967600   -0.911047    1.182132
 H    5.562702   -0.459613   -0.408835
 H    5.088526    1.865541    0.462026
 H   -2.084479    0.677957   -1.845537
 H   -3.052254   -0.779190   -2.185158
 H   -2.141605   -1.455415    1.717970
 H   -1.844356    0.992885    1.725185
 H   -3.431352    0.586364    2.366161
 H   -1.802293   -1.928462   -0.681241
 H   -4.329999    1.963919    0.706136
 H   -2.722560    2.118670   -0.051880
 H   -4.349734    1.085893   -1.456674
 H    0.554941   -1.259855    1.428120
 H    0.001026   -2.422082    0.207872
 H    3.449907    3.700593    0.454463
 H    4.069819   -2.024881   -1.507994
 H    4.836837   -2.891468   -0.176801
 H    1.633514   -1.471235   -1.419536
 H    2.430119   -3.380166   -0.139220
 H    2.813099   -2.356484    1.250692
