46 
5lyr_ligand_dft.xyz
 C   -0.715888   -0.587320    1.131764
 C   -1.632862   -1.716029    0.649305
 C   -2.475078   -1.294961   -0.563776
 C   -3.124992    0.078419   -0.339166
 C   -2.008284    1.046648    0.024694
 C   -2.405173    2.489531    0.210777
 O   -2.481063   -2.107423    1.712252
 O   -3.440208   -2.266061   -0.868973
 O   -3.748214    0.533806   -1.508732
 O   -1.404623    0.613245    1.253704
 O   -1.187000    3.230529    0.341486
 C    1.381157    0.442461    0.712896
 C    1.801315    1.456944   -0.364437
 C    2.605306   -0.340742    1.220061
 O    0.385245   -0.451423    0.239430
 O    0.797826    2.057689   -1.081170
 N    2.614099    0.764397   -1.428044
 O    3.383462    0.620187    1.903976
 C    3.428118   -0.987047    0.082286
 C    2.766481   -2.176940   -0.639745
 C    3.852387    0.097974   -0.908606
 O    1.780957   -1.794619   -1.592591
 H   -0.348059   -0.824235    2.136698
 H   -1.042610   -2.603105    0.401749
 H   -1.831780   -1.202642   -1.447940
 H   -3.846144    0.017846    0.494289
 H   -1.264428    1.006794   -0.777399
 H   -2.976721    2.812925   -0.664983
 H   -3.016004    2.606968    1.113254
 H   -2.851474   -1.310567    2.118214
 H   -3.773141   -2.600848   -0.021536
 H   -4.288294   -0.197046   -1.842956
 H   -1.385940    4.174149    0.338098
 H    0.977271    1.033594    1.540551
 H    2.487254    2.170392    0.111932
 H    2.242967   -1.124812    1.899499
 H    0.174144    2.566278   -0.505251
 H    2.043976    0.002961   -1.851396
 H    2.819862    1.456448   -2.153385
 H    4.016131    0.176059    2.481710
 H    4.345414   -1.376352    0.541611
 H    3.533858   -2.713287   -1.203585
 H    2.347239   -2.875783    0.094251
 H    4.469560    0.860474   -0.430782
 H    4.382204   -0.316947   -1.768590
 H    0.960043   -1.631111   -1.099116
