44 
5lyx_ligand_xtb.xyz
 C    2.485543    0.729601    0.664738
 C    3.644035    1.320626    1.098072
 C    4.893948    0.762784    0.787866
 O    1.260159    1.279313    1.000080
 C    3.806819   -1.009493   -0.421419
 C    3.821255   -2.193929   -1.193708
 C    1.553919   -2.299205   -1.286799
 C    1.392091   -1.157174   -0.549767
 C   -0.756415    2.422880    0.365847
 C   -1.274501    3.679444   -0.335853
 C   -1.713225    3.147794   -1.696597
 C   -2.324193    1.792392   -1.350006
 C   -1.672575   -1.325579    2.356354
 C   -1.323417   -0.121934    1.752713
 C   -3.123129   -1.844012    0.738759
 N   -2.824644   -0.641514    0.064768
 N   -4.025268   -2.501960    0.034959
 C    4.979163   -0.373344    0.033939
 C    2.536054   -0.465507   -0.099571
 N    2.751733   -2.807424   -1.612671
 N   -1.649613    1.387318   -0.123121
 C    0.710320    2.123919    0.006742
 C   -1.921991    0.249556    0.547238
 N   -2.549522   -2.178780    1.878644
 N   -3.565606   -0.594033   -1.056963
 C   -4.251881   -1.716517   -1.019061
 H    3.586538    2.222215    1.689765
 H    5.787515    1.249885    1.148347
 H    4.768163   -2.643099   -1.467758
 H    0.703991   -2.861809   -1.648753
 H    0.409435   -0.794061   -0.293241
 H   -0.820616    2.507093    1.454401
 H   -0.521473    4.460795   -0.404285
 H   -2.135067    4.070500    0.208011
 H   -0.849408    3.027120   -2.350381
 H   -2.430169    3.799411   -2.190197
 H   -2.178231    1.051215   -2.136895
 H   -3.399299    1.878904   -1.168933
 H   -1.205712   -1.613430    3.287999
 H   -0.567663    0.498366    2.197282
 H    5.936877   -0.803432   -0.218620
 H    0.768044    1.646000   -0.979832
 H    1.282311    3.063085   -0.030319
 H   -4.946992   -1.972327   -1.793477
