44 
5lz5_ligand_dft.xyz
 C   -4.221163   -1.096765   -0.888509
 C   -3.011344   -0.492405   -0.151656
 C   -1.716664   -0.796002   -0.950345
 N   -1.343156   -2.120262   -0.488809
 C   -0.316901   -2.932050   -1.095820
 C    1.066560   -2.653782   -0.531625
 C    2.542381   -0.787409   -0.356304
 C    4.621727   -0.858033    0.876182
 C    4.833084    0.475852    0.588687
 C    3.910534    1.199013   -0.172414
 C    4.142928    2.583529   -0.464146
 C    2.763922    0.559936   -0.642097
 C   -2.757863   -1.276808    1.152773
 C   -3.872056    1.475367    1.199934
 C   -4.124184    2.834049    1.363972
 C   -3.752406    3.739265    0.374954
 C   -3.134584    3.273338   -0.781674
 C   -2.886986    1.913818   -0.942188
 O    1.402247   -1.315697   -0.863000
 C    3.476447   -1.495330    0.403947
 F    5.929788    1.090379    1.038930
 N    4.315128    3.702299   -0.710499
 C   -1.850911   -2.425894    0.742238
 O   -1.581554   -3.428571    1.379446
 C   -3.242443    0.995300    0.049397
 H   -4.375971   -0.597290   -1.850554
 H   -5.132083   -0.972204   -0.294361
 H   -4.070964   -2.166738   -1.072112
 H   -1.886178   -0.805617   -2.033343
 H   -0.927669   -0.065243   -0.733438
 H   -0.557661   -3.981953   -0.904137
 H   -0.322245   -2.762093   -2.176910
 H    1.046581   -2.788538    0.556897
 H    1.799301   -3.349679   -0.963821
 H    5.353742   -1.395098    1.468466
 H    2.036159    1.105022   -1.232238
 H   -2.213644   -0.670712    1.887444
 H   -3.663052   -1.654945    1.634002
 H   -4.170528    0.780932    1.980636
 H   -4.609379    3.185748    2.269686
 H   -3.942242    4.800302    0.504730
 H   -2.840868    3.970220   -1.561069
 H   -2.408824    1.567304   -1.854951
 H    3.327615   -2.542878    0.636456
