44 
5lz7_ligand_xtb.xyz
 C    4.211167   -0.888860   -1.114114
 C    3.045218   -0.410729   -0.238341
 C    1.706789   -0.728749   -0.937780
 N    1.416660   -2.077384   -0.513524
 C    0.369558   -2.871390   -1.093428
 C   -0.988543   -2.605191   -0.436918
 C   -2.551858   -0.805791   -0.278129
 C   -4.535043   -0.876901    1.089540
 C   -4.866863    0.396868    0.676686
 C   -4.052320    1.091932   -0.220935
 C   -4.389766    2.395825   -0.655787
 C   -2.895531    0.481128   -0.690815
 C    2.957985   -1.286797    1.021917
 C    3.987452    1.477492    1.141597
 C    4.199239    2.822849    1.385271
 C    3.667684    3.777041    0.535760
 C    2.931726    3.374181   -0.564474
 C    2.721973    2.028174   -0.807898
 O   -1.403650   -1.300492   -0.798676
 C   -3.382999   -1.481452    0.614754
 F   -5.988759    0.970854    1.144883
 N   -4.654731    3.449970   -1.016375
 C    2.051254   -2.436910    0.625219
 O    1.899759   -3.490633    1.203118
 C    3.235890    1.061511    0.048750
 H    5.155400   -0.742324   -0.594571
 H    4.244647   -0.324827   -2.043868
 H    4.099858   -1.946220   -1.344835
 H    0.913720   -0.043561   -0.613020
 H    1.782504   -0.688795   -2.027201
 H    0.624272   -3.922278   -0.931876
 H    0.309498   -2.660586   -2.163344
 H   -0.877951   -2.689936    0.650957
 H   -1.719109   -3.346219   -0.786199
 H   -5.181816   -1.392027    1.781879
 H   -2.252653    0.999559   -1.384707
 H    2.476949   -0.753382    1.845263
 H    3.921679   -1.656571    1.366544
 H    4.416773    0.746581    1.809777
 H    4.783603    3.125728    2.241630
 H    3.830302    4.827131    0.726670
 H    2.520056    4.110235   -1.239218
 H    2.155271    1.733160   -1.678127
 H   -3.144627   -2.477853    0.948801
