97 
5m0m_ligand_dft.xyz
 C    3.072731    4.439367    0.287518
 C    2.433828    3.645531   -0.859383
 C    0.922982    3.937616   -0.947519
 C    0.108302    3.480497    0.259852
 C   -1.376288    3.772848    0.091687
 O   -1.875311    4.151559   -0.956575
 N   -2.133798    3.573032    1.210287
 C   -3.578725    3.717644    1.172008
 N   -4.386509    1.541470    1.467640
 C   -4.569257    0.219348    1.271249
 O   -4.626216   -0.609258    2.164237
 O   -4.673992   -0.066778   -0.049909
 C   -4.900285   -1.442595   -0.371395
 C   -6.375908   -1.754030   -0.448333
 C   -7.092243   -2.043662    0.714768
 C   -8.452197   -2.307263    0.622537
Cl   -9.355956   -2.674407    2.071353
 C   -9.121942   -2.292749   -0.596417
 C   -8.388882   -2.000483   -1.739271
Cl   -9.202870   -1.974727   -3.284198
 C   -7.026938   -1.730962   -1.680022
 C    2.722497    2.134549   -0.789942
 C    2.052827    1.350051   -1.951343
 C    2.943821    0.120173   -2.241135
 C    3.974081    0.136382   -1.106510
 C    5.269410   -0.674676   -1.235474
 C    5.005922   -2.148639   -1.556620
 O    4.453012   -2.219930   -2.864224
 C    6.280541   -2.991026   -1.498820
 C    7.049725   -2.850832   -0.183827
 C    6.304149   -3.538203    0.973527
 C    7.045112   -3.424451    2.296437
 O    6.240930   -4.050137    3.281021
 C    7.331569   -1.960516    2.621951
 C    8.101740   -1.301253    1.478776
 C    7.386465   -1.362176    0.108660
 C    8.390363   -0.837370   -0.934190
 C    6.068387   -0.531536    0.091295
 C    6.275095    0.946454    0.458860
 C    4.973316    1.756018    0.493619
 C    4.198344    1.644863   -0.824752
 C    4.964525    2.345456   -1.959654
 C   -4.254254    2.557587    0.426704
 C   -4.161863    3.586229    2.583584
 C   -4.230588    2.071291    2.817336
 H    4.154368    4.534920    0.160714
 H    2.659478    5.453809    0.333973
 H    2.897237    3.960404    1.258301
 H    2.859604    4.020766   -1.800469
 H    0.781028    5.017071   -1.075223
 H    0.496242    3.478264   -1.843402
 H    0.465055    3.956019    1.182508
 H    0.215143    2.397719    0.411487
 H   -1.701534    3.178702    2.032377
 H   -3.812151    4.673676    0.699080
 H   -4.425632   -1.585634   -1.344088
 H   -4.406886   -2.070819    0.372864
 H   -6.587690   -2.046502    1.674795
 H  -10.183107   -2.503234   -0.653313
 H   -6.480783   -1.503953   -2.589835
 H    2.310218    1.761552    0.160732
 H    1.028899    1.061694   -1.691140
 H    1.973636    1.987060   -2.840303
 H    2.382340   -0.815132   -2.269724
 H    3.440824    0.205713   -3.211705
 H    3.462118   -0.255097   -0.210099
 H    5.857957   -0.277841   -2.073108
 H    4.273690   -2.531206   -0.824907
 H    4.286584   -3.150104   -3.057745
 H    6.023876   -4.047630   -1.663079
 H    6.910145   -2.688938   -2.343733
 H    8.009163   -3.377069   -0.301185
 H    6.156127   -4.598142    0.735812
 H    5.305027   -3.110600    1.118360
 H    8.010965   -3.953106    2.203070
 H    6.695501   -3.966594    4.127755
 H    7.913560   -1.889368    3.551098
 H    6.377255   -1.451372    2.806571
 H    8.351174   -0.266281    1.734212
 H    9.066178   -1.818613    1.367784
 H    7.956453   -0.727956   -1.931608
 H    9.241450   -1.523593   -1.017590
 H    8.787696    0.139494   -0.639143
 H    5.413567   -0.946378    0.872189
 H    6.746134    1.017052    1.444831
 H    6.973846    1.411982   -0.246418
 H    5.212174    2.796616    0.734918
 H    4.337582    1.381996    1.309635
 H    5.939347    1.887317   -2.147534
 H    5.144621    3.396838   -1.708779
 H    4.409934    2.322864   -2.903125
 H   -3.653790    2.203666   -0.411179
 H   -5.236945    2.859794    0.042994
 H   -5.168591    4.014467    2.592429
 H   -3.568788    4.109514    3.338501
 H   -5.067619    1.773259    3.454320
 H   -3.316040    1.676142    3.279018
