43 
5m17_ligand_dft.xyz
 C   -0.904404   -0.779753    1.004466
 C   -1.907309   -1.816236    0.493063
 C   -2.638364   -1.272997   -0.728697
 C   -3.233262    0.095151   -0.430702
 C   -2.141660    1.041052    0.081229
 C   -2.700131    2.362817    0.590281
 O   -2.813846   -2.089430    1.533246
 O   -3.659855   -2.198376   -1.048176
 O   -3.824217    0.535264   -1.634207
 O   -1.485222    0.481040    1.210500
 O   -3.422604    2.978135   -0.467554
 O    2.561041   -2.130370    0.014632
 C    2.463478   -0.761364   -0.297532
 C    3.794690   -0.092628    0.039358
 C    4.959793   -0.619236   -0.783024
 O    6.150035    0.056682   -0.455890
 C    1.336185   -0.095751    0.485831
 O    0.138822   -0.743280    0.070011
 C    1.341405    1.411342    0.245689
 C    2.737555    1.959535    0.535566
 O    3.718507    1.298306   -0.237257
 H   -0.534255   -1.074367    1.993819
 H   -1.348639   -2.720486    0.210158
 H   -1.928952   -1.167796   -1.561509
 H   -3.986390   -0.022099    0.364528
 H   -1.426942    1.229283   -0.731924
 H   -3.349433    2.153823    1.451724
 H   -1.872237    3.000513    0.928152
 H   -3.574490   -2.507616    1.102911
 H   -4.252459   -1.741576   -1.661594
 H   -4.070146    1.464654   -1.503039
 H   -3.867667    3.759586   -0.122779
 H    1.672702   -2.493168   -0.102041
 H    2.263313   -0.612212   -1.371866
 H    4.013987   -0.246530    1.108938
 H    4.714135   -0.511288   -1.852186
 H    5.109414   -1.679691   -0.571712
 H    5.934841    0.998157   -0.502425
 H    1.497573   -0.302998    1.555797
 H    0.598507    1.899148    0.883458
 H    1.081581    1.608702   -0.800871
 H    2.805860    3.019271    0.278965
 H    2.970559    1.851318    1.607900
