90 
5m25_ligand_dft.xyz
 N   -0.089407    4.044456   -0.076267
 C   -1.405898    3.554799   -0.101616
 C   -2.359738    4.164856    0.724863
 C   -3.661328    3.693441    0.757310
 C   -1.793121    2.457436   -0.873301
 C   -3.106528    1.983209   -0.816205
 C   -4.061415    2.596721   -0.014148
 C   -5.519391    2.165580    0.012194
 N   -5.770567    0.856478   -0.553378
 C   -5.750240   -0.258462    0.216831
 O   -5.634402   -0.235860    1.434050
 C   -5.834976   -1.604314   -0.524202
 C   -7.082868   -2.374936   -0.115877
 N   -4.631178   -2.343627   -0.149409
 C   -3.428311   -1.923354   -0.615012
 O   -3.296197   -1.270866   -1.644946
 C   -2.225657   -2.193022    0.291145
 C   -2.277852   -1.115175    1.398412
 C   -1.096536   -1.145641    2.383489
 C   -0.452804    0.237491    2.541443
 N    0.117720    0.738988    1.300822
 C    1.192464    0.159811    0.696687
 N    1.317154    0.422576   -0.638769
 N    2.059034   -0.614509    1.295842
 N   -1.044133   -2.089574   -0.538425
 C    0.023453   -2.902235   -0.439257
 O    0.204963   -3.695298    0.481208
 C    1.031976   -2.815912   -1.594186
 C    0.648365   -3.789470   -2.709947
 N    2.322134   -3.140319   -1.003848
 C    3.333711   -2.257053   -0.984346
 O    3.431619   -1.282084   -1.721816
 C    4.433636   -2.469678    0.064750
 N    4.619357   -1.143270    0.711691
 C    4.159694   -3.489144    1.164133
 O    5.220790   -3.345255    2.086579
 C    6.148427    2.171020    0.232541
 O    6.345544    0.854058   -0.301001
 C    4.746179    2.612167   -0.076693
 C    3.804331    2.818054    0.927869
 C    2.501805    3.210568    0.633528
 C    4.358489    2.820503   -1.404372
 C    3.066632    3.207448   -1.715800
 C    2.122694    3.385636   -0.696221
 N    0.779934    3.602276   -1.064027
 H   -0.018377    5.036778    0.125947
 H   -2.074525    5.010503    1.345678
 H   -4.383554    4.189539    1.401213
 H   -1.085922    1.987045   -1.548141
 H   -3.366006    1.111736   -1.410547
 H   -5.880556    2.138722    1.043159
 H   -6.129166    2.895865   -0.531224
 H   -5.753753    0.749387   -1.556342
 H   -5.803554   -1.468006   -1.607466
 H   -7.980644   -1.834670   -0.428513
 H   -7.120494   -2.488089    0.972070
 H   -7.088510   -3.362758   -0.583626
 H   -4.647878   -2.710735    0.793971
 H   -2.252839   -3.195724    0.729054
 H   -2.325424   -0.145536    0.886524
 H   -3.228394   -1.198115    1.934560
 H   -1.433851   -1.490778    3.366699
 H   -0.339399   -1.861260    2.047483
 H    0.319817    0.226734    3.318551
 H   -1.197179    0.972399    2.861312
 H   -0.543476    1.186375    0.677536
 H    2.204131    0.160565   -1.057338
 H    0.956992    1.313792   -0.957409
 H    1.794803   -0.804512    2.256440
 H   -1.153494   -1.491869   -1.349611
 H    1.089919   -1.795996   -1.978982
 H    0.591346   -4.811706   -2.323672
 H   -0.325686   -3.524642   -3.132376
 H    1.396453   -3.753635   -3.505539
 H    2.217446   -3.795926   -0.236044
 H    5.363255   -2.731879   -0.448394
 H    5.104469   -0.455881    0.107270
 H    5.182149   -1.280121    1.555652
 H    3.614088   -0.782512    0.978444
 H    4.136732   -4.495082    0.724812
 H    3.186188   -3.282607    1.632542
 H    5.082533   -3.944988    2.828734
 H    6.320636    2.174188    1.317292
 H    6.873965    2.854912   -0.224908
 H    7.292670    0.674430   -0.342035
 H    4.083369    2.668845    1.968158
 H    1.766667    3.333948    1.419589
 H    5.077439    2.666436   -2.203841
 H    2.778256    3.346507   -2.754864
 H    0.669323    4.074356   -1.958120
