32 
5m2v_ligand_xtb.xyz
 N   -1.593102    0.487432    0.783195
 C   -2.442563    0.195863   -0.398876
 C   -3.899036    0.190777    0.086745
 C    1.626525   -0.711283   -0.294201
 C    2.293894   -1.916720   -0.130274
 C    3.634452   -1.927800    0.214905
 C    3.673816    0.466052    0.225995
 O   -4.742338   -0.206240   -0.833799
 O   -4.169546    0.533019    1.206515
 C   -1.954072   -1.160081   -0.940969
 C   -1.020459   -0.802416    1.218571
 C   -0.671467   -1.416742   -0.143883
 O    0.332222   -0.627806   -0.748481
 C    4.327106   -0.738958    0.386355
 C    2.314447    0.498133   -0.093486
 C    1.628921    1.799935   -0.189185
 O    2.431296    2.794291   -0.495750
 O    0.437480    1.993596    0.033098
 H   -2.186526    0.928648    1.503521
 H   -0.770212    1.118843    0.494764
 H   -2.330040    0.986843   -1.144451
 H    1.777243   -2.848644   -0.298776
 H    4.141892   -2.872167    0.334303
 H    4.199956    1.397330    0.361899
 H   -5.667157   -0.185166   -0.531194
 H   -2.681957   -1.949627   -0.763787
 H   -1.740476   -1.114010   -2.005779
 H   -1.763760   -1.400804    1.746561
 H   -0.147922   -0.646947    1.853089
 H   -0.401708   -2.474160   -0.087851
 H    5.374615   -0.754663    0.640560
 H    1.965474    3.647055   -0.528081
