33 
5m4f_ligand_dft.xyz
 C   -2.849325    1.404438    0.197437
 C    4.443976   -0.363648   -0.066591
 C    2.374142   -1.553504    0.138320
 C   -0.421682    0.747886    0.219271
 C    1.651074    2.161017    0.323229
 C    2.391500    0.859690    0.188761
 O   -6.927472    0.100280    0.338890
 O    2.082238    3.152062   -0.611408
 O   -6.335680   -1.712498   -0.789939
 O   -0.523985    3.108880    0.005032
Cl    6.177248   -0.386894   -0.260558
Cl    1.491506   -3.047514    0.190521
 C   -3.579267   -1.252461   -0.192547
 C   -4.188928    1.054980    0.096147
 C   -2.240812   -0.913506   -0.080682
 C    3.750652   -1.571431   -0.011585
 C    3.777716    0.845526    0.032044
 O    0.344358   -0.394048    0.385095
 C   -5.998623   -0.706047   -0.222653
 C   -4.569853   -0.275145   -0.090868
 C   -1.853403    0.421605    0.113484
 C    0.168363    1.954397    0.171927
 C    1.682033   -0.338371    0.237019
 H   -2.577915    2.442077    0.336014
 H    1.858287    2.628921    1.294401
 H   -6.498452    0.767829    0.889810
 H    2.075901    2.743782   -1.489815
 H    0.129497    3.763439   -0.295657
 H   -3.876889   -2.282182   -0.359716
 H   -4.930487    1.850167    0.127896
 H   -1.484960   -1.686615   -0.146766
 H    4.275148   -2.516260   -0.090391
 H    4.319998    1.783797   -0.012797
