45 
5m4k_ligand_xtb.xyz
 C   -2.950694   -1.948093    0.585723
 N    0.774515    0.138122    1.086163
 O    1.792648   -1.863109    0.915219
 C   -2.926474   -3.101759   -0.201997
 N    3.430616    0.142129   -0.253500
 O   -2.850013    3.709600   -1.158805
 C   -1.713000   -3.644436   -0.587180
 O    0.628081   -3.645720   -0.572022
 C   -0.513815   -3.045293   -0.211435
 O   -4.106525   -3.668613   -0.543220
 C   -0.536848   -1.834995    0.513651
 O    3.136951    2.342900    0.201053
 C   -1.772361   -1.331496    0.928394
 C    0.746075   -1.195235    0.841817
 C   -0.170826    1.048144    0.550263
 C   -0.540252    0.960645   -0.789843
 C   -1.437866    1.856967   -1.322199
 C   -1.978142    2.876568   -0.534843
 C   -1.598134    2.971486    0.799732
 C   -0.701795    2.062334    1.332776
 C   -3.402154    4.778898   -0.428193
 C    2.927479    1.172626    0.442460
 C    4.338798    0.301328   -1.365430
 C    2.008982    0.721078    1.590669
 C    5.682836   -0.357564   -1.077756
 H   -3.901377   -1.561225    0.912298
 H    3.204890   -0.799157    0.050449
 H   -1.666293   -4.556167   -1.165148
 H    1.361327   -3.183872   -0.100511
 H   -3.951883   -4.461585   -1.071978
 H   -1.804919   -0.453044    1.552115
 H   -0.118110    0.185195   -1.411012
 H   -1.731423    1.799157   -2.357782
 H   -1.990766    3.747393    1.437180
 H   -0.428153    2.142675    2.374251
 H   -4.004766    4.422108    0.413338
 H   -2.625524    5.456560   -0.060144
 H   -4.043272    5.312883   -1.127600
 H    4.460888    1.375534   -1.521168
 H    3.891164   -0.138960   -2.263787
 H    2.518130   -0.031381    2.197882
 H    1.769692    1.593756    2.198362
 H    6.143213    0.092977   -0.202034
 H    5.552321   -1.422078   -0.894228
 H    6.348943   -0.230205   -1.926581
