43 
5m55_ligand_xtb.xyz
 C   28.719960   10.487005  -22.010067
 C   25.473206    8.055851  -20.235399
 C   26.647643    9.270172  -22.080589
 C   27.778993    9.691597  -21.383723
 C   26.823585   12.536563  -19.627172
 C   26.319890   11.541069  -18.589621
 N   27.236206   11.319084  -17.487390
 C   27.891392   12.475791  -16.912355
 C   26.932748   13.366364  -16.119077
 C   27.178354   10.203189  -16.732701
 C   26.585265    8.990668  -16.890119
 C   25.905977    8.349999  -17.979705
 N   26.104111    8.704204  -19.253586
 N   25.676474    8.454920  -21.526709
 C   28.557401   10.878474  -23.328142
 C   27.439602   10.454281  -24.028001
 C   26.495618    9.655221  -23.414972
 N   24.604044    7.055158  -20.117688
 C   24.400810    6.660847  -18.865085
 C   25.047118    7.264248  -17.759374
 N   24.575834    6.588204  -16.660695
 C   23.713032    5.650860  -17.136044
 N   23.578538    5.661278  -18.427197
 H   29.598518   10.798093  -21.462368
 H   27.911657    9.384196  -20.360471
 H   26.171071   12.489036  -20.495145
 H   26.819699   13.560650  -19.259606
 H   27.826124   12.274086  -19.952990
 H   25.348164   11.876330  -18.199843
 H   26.173417   10.574376  -19.080022
 H   28.692376   12.130479  -16.253989
 H   28.352440   13.053645  -17.714687
 H   27.477189   14.197161  -15.678207
 H   26.155457   13.767482  -16.763880
 H   26.459964   12.796532  -15.321954
 H   27.708517   10.318642  -15.791977
 H   26.658929    8.351653  -16.017837
 H   25.049698    7.993442  -22.172101
 H   29.296783   11.501349  -23.808801
 H   27.304268   10.745056  -25.059670
 H   25.629001    9.319396  -23.967217
 H   24.821313    6.754969  -15.699518
 H   23.195615    4.970379  -16.487304
