75 
5m6h_ligand_xtb.xyz
 C    0.656199   -3.289187    3.262882
 C    1.798570   -2.546191    2.584021
 C    1.573802   -1.014961    2.504608
 N    1.194750   -0.530749    1.179685
 C   -0.203997   -0.374020    0.856190
 C   -0.960291   -1.582429    0.323564
 C   -4.223384   -2.163180   -1.231597
 C   -5.438063   -2.842381   -0.595851
 C   -4.254406   -2.345492   -2.751009
 C   -4.203380   -0.703057   -0.882216
 C   -4.974039    1.419562   -0.840964
 C   -3.870717    1.878783   -0.118555
 C   -1.373267    3.612551   -0.630654
 C    0.498540    4.008075    0.818416
 C   -0.360401    4.066083    1.903067
 C   -1.721993    3.881686    1.723311
 C   -2.894691    0.954415    0.249816
 C   -3.042619   -0.354338   -0.177712
 C    2.112761   -0.862993    0.101014
 C    2.884242   -2.170127    0.448207
 O    2.901302    1.327459    0.741078
 C    5.647113   -0.948568   -1.960793
 C    4.175652   -0.494127   -2.113794
 O   -0.398088   -2.741089    0.205111
 N   -2.203045   -1.477503   -0.069680
 C   -2.895667   -2.656365   -0.617443
 N   -5.142698    0.157138   -1.194433
 C   -3.698761    3.326388    0.252702
 C   -2.241287    3.646090    0.456977
 C   -0.013241    3.791188   -0.451831
 N    1.955319   -3.008241    1.195574
 C    3.032403    0.345967   -0.110486
 N    3.887374    0.474632   -1.076450
 C    4.789350    1.618424   -1.150707
 C    6.235829    1.094564   -1.034153
 O    6.496697    0.153629   -2.036254
 H   -0.299167   -3.093309    2.783711
 H    0.590080   -2.986435    4.303761
 H    0.836111   -4.360800    3.241295
 H    2.719903   -2.732865    3.152566
 H    2.497963   -0.508035    2.799172
 H    0.803480   -0.716234    3.214320
 H    2.139940    1.148894    1.340639
 H   -0.709566   -0.032739    1.764079
 H   -0.297061    0.423334    0.106044
 H   -5.436006   -2.718770    0.484730
 H   -5.442310   -3.902936   -0.831482
 H   -6.345831   -2.394379   -0.988136
 H   -5.155597   -1.887699   -3.147282
 H   -4.261158   -3.402077   -3.003430
 H   -3.395080   -1.872650   -3.222160
 H   -5.762261    2.095041   -1.141991
 H   -1.770561    3.448828   -1.622094
 H    1.559020    4.157608    0.958375
 H    0.028017    4.262048    2.890767
 H   -2.385201    3.928317    2.574324
 H   -2.077913    1.302989    0.855974
 H    1.546725   -1.019377   -0.824937
 H    3.781635   -1.939450    1.037139
 H    3.190268   -2.696101   -0.455577
 H    5.770699   -1.480551   -1.004732
 H    5.919356   -1.612309   -2.782343
 H    4.081439    0.011526   -3.078872
 H    3.496207   -1.340832   -2.084173
 H   -3.064144   -3.368428    0.193509
 H   -2.250386   -3.135339   -1.356316
 H   -4.262165    3.533080    1.166126
 H   -4.119841    3.949959   -0.538267
 H    0.646976    3.776624   -1.307132
 H    2.223159   -3.987751    1.172940
 H    0.592314   -2.855151    0.626348
 H    4.663036    2.095140   -2.124891
 H    4.570844    2.330957   -0.358137
 H    6.939124    1.914330   -1.182833
 H    6.391203    0.660461   -0.035469
