32 
5m7s_ligand_xtb.xyz
 C   -0.184988   -0.637050   -1.387202
 C    0.013478    0.873147   -1.226193
 C   -0.700910    1.390524    0.033451
 C   -2.126858    0.828193    0.128309
 C   -2.066056   -0.702437    0.044956
 C   -3.456526   -1.342584    0.051934
 C    2.100974    0.131443   -0.390615
 C    5.278352   -0.194327    1.284058
 N    1.439943    1.054980   -1.150690
 O   -0.710994    2.792764   -0.016207
 O   -2.671991    1.294756    1.336345
 O   -1.466592   -1.102474   -1.175580
 N    3.242766    0.299131    0.081272
 O   -4.077792   -1.086765    1.294132
 S    1.085327   -1.370952   -0.261609
 C    3.948589   -0.737679    0.781106
 H    0.080146   -0.960273   -2.398885
 H   -0.377631    1.413266   -2.094639
 H   -0.148184    1.048657    0.926083
 H   -2.714625    1.204648   -0.727840
 H   -1.487099   -1.085420    0.899452
 H   -4.044364   -0.921065   -0.774518
 H   -3.334274   -2.417820   -0.119740
 H    5.870289    0.165195    0.446941
 H    5.108482    0.633844    1.966445
 H    5.830353   -0.974588    1.801315
 H    1.767765    2.005438   -1.049100
 H   -1.304962    3.094935    0.682767
 H   -3.355055    0.669846    1.621132
 H   -4.910514   -1.568245    1.335598
 H    4.116671   -1.588578    0.108299
 H    3.341429   -1.105015    1.619999
