46 
5m7t_ligand_xtb.xyz
 O    3.294506    3.600347    0.175182
 C    2.129234    3.399762   -0.120417
 C    1.197562    4.504539   -0.560254
 N    1.550262    2.183582   -0.111201
 C    2.108183    0.937196    0.401023
 C    3.464051    0.545916   -0.216857
 O    4.540899    1.262513    0.313408
 C    3.765500   -0.927550    0.115225
 O    5.030101   -1.280428   -0.377502
 C    2.745866   -1.895757   -0.492047
 C    2.877663   -3.266126    0.185452
 O    2.470920   -3.131126    1.527221
 C    1.099350   -0.119463    0.094791
 N    1.415731   -1.367589   -0.328976
 C    0.240201   -2.005188   -0.579524
 C   -0.757100   -1.105761   -0.298079
 N   -0.196061    0.073471    0.115715
 C   -2.214986   -1.294380   -0.406777
 O   -2.714732   -2.310984   -0.847117
 N   -2.886031   -0.196469    0.040371
 C   -4.255777    0.044502    0.105769
 C   -5.203580   -0.878404   -0.328606
 C   -6.549200   -0.573173   -0.239028
 C   -6.967887    0.641276    0.277913
 C   -6.026162    1.560373    0.710911
 C   -4.679310    1.266942    0.626611
 H    1.753759    5.434918   -0.626958
 H    0.764182    4.270386   -1.529458
 H    0.393937    4.620087    0.163730
 H    0.561762    2.112786   -0.311956
 H    2.254165    1.023628    1.490403
 H    3.409747    0.675357   -1.312679
 H    4.299900    2.217887    0.320624
 H    3.740809   -1.030307    1.212073
 H    5.614719   -0.536418   -0.172897
 H    2.971978   -2.011361   -1.560494
 H    3.929192   -3.568388    0.110380
 H    2.256094   -4.005672   -0.337089
 H    2.616816   -3.963697    1.986811
 H    0.175225   -3.012112   -0.931149
 H   -2.282712    0.542986    0.381773
 H   -4.877542   -1.823092   -0.729990
 H   -7.277891   -1.294704   -0.577665
 H   -8.020462    0.871789    0.344397
 H   -6.342067    2.510365    1.116637
 H   -3.944114    1.983810    0.965973
