51 
5mae_ligand_dft.xyz
 C   -4.189323    0.003288   -0.529256
 C   -0.016559   -4.121374   -0.277544
 C   -0.071008   -4.007907   -1.661683
 C   -1.703129   -1.107236    0.870263
 C   -1.108927   -2.144855   -0.058175
 C   -1.163324   -2.038270   -1.451075
 C    2.822761   -1.190019    0.443080
 C    3.925515   -1.444378    1.463351
 C    5.098540    0.454935    0.811247
 C    4.059396    0.808691   -0.246952
 O    5.167947   -0.939130    1.021751
 N    2.777546    0.232257    0.129760
 N    1.458130    4.845331   -1.346675
 C    0.430831    4.155750   -1.071747
 N   -0.647597   -2.962037   -2.257534
 N   -0.532452   -3.193280    0.530001
 C   -5.385146   -0.070272    0.438091
 C   -5.233873    1.178638    1.316740
 C   -3.724392    1.242351    1.557652
 C   -3.112371    0.867853    0.190463
 N   -1.806195    0.222024    0.294659
 N    0.481656    0.227728    0.254294
 C   -0.654007    0.900260    0.055310
 N   -0.730300    2.179049   -0.375002
 C    0.453134    2.734340   -0.602732
 N    1.648138    2.169590   -0.464572
 C    1.607858    0.892380   -0.033433
 H   -4.479663    0.491244   -1.464887
 H   -3.814337   -0.988190   -0.801023
 H    0.457175   -4.977624    0.196387
 H    0.358446   -4.770886   -2.305627
 H   -1.094044   -1.095130    1.779085
 H   -2.710109   -1.424925    1.159440
 H   -1.620244   -1.171770   -1.921921
 H    1.853349   -1.504830    0.828816
 H    3.032627   -1.756414   -0.475841
 H    4.059290   -2.518078    1.616395
 H    3.648441   -0.981830    2.424727
 H    4.850758    0.969418    1.754101
 H    6.092446    0.773758    0.487607
 H    4.371962    0.400592   -1.218705
 H    3.949692    1.888393   -0.341882
 H    2.288016    4.258906   -1.191965
 H   -0.564031    4.593364   -1.171252
 H   -5.307941   -0.966429    1.067310
 H   -6.346600   -0.120748   -0.080578
 H   -5.814465    1.126614    2.242382
 H   -5.566390    2.067994    0.766523
 H   -3.441938    0.496326    2.311994
 H   -3.366393    2.214459    1.907870
 H   -2.937973    1.779149   -0.379089
