27 
5mar_ligand_dft.xyz
 C   -5.751305   -0.729381    0.031299
 C   -4.349645   -0.234641    0.349153
 C   -3.470770   -0.181835   -0.908711
 C   -2.092085    0.291446   -0.609347
 C    4.075065   -0.280151    0.141672
 C    3.617643    1.004595    0.420793
 C    1.848408   -0.998140   -0.378809
 C    1.371678    0.284082   -0.103457
 C    2.263880    1.282644    0.296847
 C    3.202244   -1.285906   -0.257519
 C   -0.062847    0.569098   -0.237188
 N   -0.577350    1.747882    0.002446
 N   -0.982683   -0.379337   -0.625705
 O   -1.928743    1.566069   -0.244046
 O   -6.479670   -0.746881    1.239851
Cl    5.778828   -0.634377    0.296557
 H   -5.695181   -1.733843   -0.419577
 H   -6.218931   -0.061552   -0.711025
 H   -3.899056   -0.901506    1.091979
 H   -4.418646    0.759410    0.802585
 H   -3.919616    0.488147   -1.651609
 H   -3.380585   -1.173147   -1.361276
 H    4.314555    1.775054    0.731102
 H    1.150900   -1.768915   -0.688642
 H    1.892870    2.279464    0.511297
 H    3.577934   -2.280518   -0.470157
 H   -7.370378   -1.062367    1.051829
