65 
5mat_ligand_dft.xyz
 C    3.101149    2.017852    0.648861
 C    2.031736    2.383430    1.428725
 C    1.264932    1.391543    2.072847
 C    1.555738    0.058779    1.903267
 C    2.638463   -0.356717    1.082885
 C    3.433157    0.652311    0.470836
 C    2.959336   -1.736572    0.851638
 C    4.066522   -2.041929    0.101538
 C    4.892128   -1.053107   -0.476760
 C    4.573697    0.273953   -0.315449
 C    2.058197   -2.849493    1.327963
 C    0.920574   -3.200909   -0.811685
 C    6.416887    1.014556   -1.611470
 C   -0.407244   -2.548771    1.110876
 C   -1.458389   -2.372229    0.132792
 C   -1.201595   -2.660547   -1.194187
 C   -2.741691   -1.772569    0.340877
 C   -3.430405   -1.638138   -0.831599
 C   -4.707539   -0.848015   -0.939230
 C   -4.599349    0.301490    0.080367
 C   -4.426796   -0.259058    1.491681
 C   -3.231496   -1.223871    1.653286
 C   -2.671709    2.015359    0.622376
 C   -1.603239    2.766317   -0.089118
 C   -1.461521    4.182383   -0.231423
 C   -0.526404    2.255873   -0.762900
 C   -0.056280    0.873126   -1.043623
 C   -2.338016    5.265816    0.307543
 N    0.817461   -2.904404    0.514879
 N   -0.030908   -3.129021   -1.692154
 N   -3.410860    1.142488   -0.366433
 N   -0.394822    4.472553   -0.928277
 O    5.262427    1.301681   -0.844049
 O    0.181492    3.260313   -1.269054
 O   -0.515666   -2.362874    2.314184
 S   -2.552059   -2.252212   -2.211610
 H    3.711713    2.769316    0.162622
 H    1.788282    3.433332    1.558230
 H    0.446959    1.683753    2.726430
 H    0.957106   -0.681872    2.421801
 H    4.327640   -3.084557   -0.065988
 H    5.757385   -1.361262   -1.050426
 H    2.562142   -3.815114    1.239074
 H    1.732304   -2.739005    2.362267
 H    1.908699   -3.508733   -1.140471
 H    6.814910    1.979157   -1.924506
 H    6.164223    0.418248   -2.496261
 H    7.166892    0.486380   -1.011701
 H   -5.592702   -1.444127   -0.692918
 H   -4.861842   -0.463379   -1.954045
 H   -5.468533    0.962175    0.040335
 H   -4.370440    0.548633    2.227385
 H   -5.365200   -0.782253    1.700931
 H   -2.391878   -0.743591    2.165320
 H   -3.511727   -2.049166    2.315210
 H   -2.273714    1.342151    1.384197
 H   -3.401927    2.681781    1.086342
 H   -0.356153    0.544893   -2.045813
 H   -0.447592    0.170331   -0.301401
 H    1.034565    0.832585   -0.986810
 H   -2.417694    5.202797    1.397590
 H   -3.347747    5.203653   -0.112619
 H   -1.920162    6.240117    0.048409
 H   -2.722604    0.471744   -0.737675
 H   -3.687140    1.727938   -1.159986
