42 
5mek_ligand_xtb.xyz
 P   -2.707513    1.480592   -1.153394
 O   -2.086326    0.463295   -2.025384
 O   -2.417303    2.961543   -1.642952
 O   -4.263551    1.463710   -0.998691
 P   -2.734593   -1.922577   -0.053843
 O   -3.400824   -3.339706    0.165045
 O   -2.036789   -2.051289   -1.447083
 O   -3.686627   -0.821977    0.142756
 O   -1.508503   -1.899266    1.002623
 C   -1.631849   -1.090269    2.154102
 C   -0.922943    0.261510    2.006454
 O    0.447207    0.156212    2.360864
 C   -0.933514    0.829720    0.585927
 O   -2.110780    1.543760    0.323968
 C    0.315859    1.723992    0.588073
 O    0.067586    2.961129    1.179667
 C    1.259818    0.899742    1.486517
 N    2.095352    0.016098    0.715374
 C    1.810255   -1.237425    0.234348
 N    2.777645   -1.770830   -0.442884
 C    3.781796   -0.833826   -0.432404
 C    5.080113   -0.782850   -0.970270
 N    5.605467   -1.777604   -1.706215
 N    5.812721    0.312348   -0.752235
 C    5.296180    1.304680   -0.045222
 N    4.100952    1.384428    0.508925
 C    3.367304    0.292937    0.296578
 H   -2.628503    3.078703   -2.567652
 H   -4.511186    0.623829   -0.582286
 H   -2.825113   -4.053864   -0.108986
 H   -1.987027   -1.152938   -1.854726
 H   -1.167475   -1.634113    2.980025
 H   -2.689114   -0.913623    2.361838
 H   -1.406851    0.984660    2.678855
 H   -0.803328    0.032834   -0.151968
 H    0.731170    1.846981   -0.423253
 H   -0.780684    3.288553    0.848139
 H    1.922174    1.565278    2.055066
 H    0.874460   -1.722148    0.430444
 H    5.087476   -2.630030   -1.814868
 H    6.559591   -1.706090   -2.009870
 H    5.940210    2.162117    0.095927
