32 
5mf6_ligand_xtb.xyz
 N    4.334861   -0.484062   -0.780161
 C    3.080094   -0.346916   -1.168926
 C    4.571697   -0.720026    0.498026
 C    3.567185   -0.829999    1.448897
 C    2.254953   -0.682578    1.035868
 C    1.994004   -0.436111   -0.307185
 C    0.576421   -0.245365   -0.786876
 N   -0.274776   -1.272901   -0.213971
 C    0.075740    1.095793   -0.342502
 C   -1.636259   -1.084633   -0.122843
 C   -2.155403    0.217014   -0.003974
 N   -1.239276    1.270559   -0.012275
 C   -3.521334    0.408246    0.129407
 C   -1.429898    2.576055    0.333343
 C   -0.238748    3.234715    0.219036
 C    0.721633    2.295487   -0.213739
 C   -4.379419   -0.677677    0.174682
 C   -3.871583   -1.962071    0.085610
 C   -2.512641   -2.164286   -0.067492
 H    2.935844   -0.152893   -2.224802
 H    5.614348   -0.825544    0.767493
 H    3.806265   -1.022212    2.483408
 H    1.435064   -0.756102    1.735583
 H    0.567219   -0.294474   -1.895935
 H    0.014579   -2.217907   -0.421282
 H   -3.918037    1.408679    0.199027
 H   -2.384113    2.942638    0.652276
 H   -0.064892    4.272643    0.421255
 H    1.760403    2.479574   -0.405107
 H   -5.440878   -0.517294    0.281803
 H   -4.535783   -2.811985    0.126348
 H   -2.114330   -3.166183   -0.143211
