30 
5mfr_ligand_dft.xyz
 C    2.038202   -1.472007   -0.097488
 C   -0.981938    1.804551    0.134749
 C   -1.958582    0.691955   -0.221229
 C    3.505696    0.325060    0.530320
 C    3.257102   -1.036732    0.416394
 C    1.063603   -0.558160   -0.504458
 C    1.312258    0.819609   -0.381959
 C    2.535767    1.242412    0.134003
 C   -0.257027   -1.063166   -1.038057
 C    0.264212    1.837385   -0.770244
 C   -1.444399   -0.761010   -0.115828
 N   -3.115248    0.710942    0.751571
 O   -2.581874   -1.508313   -0.464518
 O   -1.158202   -1.023305    1.236465
 H    1.849727   -2.537630   -0.201815
 H   -0.666089    1.699781    1.180018
 H   -1.510367    2.761486    0.045152
 H   -2.389597    0.845899   -1.214247
 H    4.452093    0.677955    0.926787
 H    4.006352   -1.760157    0.719839
 H    2.735866    2.306460    0.227169
 H   -0.214338   -2.151490   -1.153005
 H   -0.480542   -0.657653   -2.031599
 H   -0.038626    1.707518   -1.817967
 H    0.698611    2.838052   -0.704064
 H   -3.587759    1.615853    0.806993
 H   -2.747324    0.449217    1.676391
 H   -3.777226   -0.025952    0.475634
 H   -2.417316   -2.437705   -0.250593
 H   -0.195479   -1.034661    1.361509
