26 
5mgj_ligand_dft.xyz
 C    4.301006   -1.773299   -0.000951
 C    3.688562   -0.389055   -0.000185
 O    2.262261   -0.552175   -0.000446
 C    1.542688    0.586422    0.000565
 O    2.046903    1.683063    0.001565
 C    0.083559    0.271564    0.000153
 C   -0.267297   -1.196409   -0.000162
 N   -1.681146   -1.511639    0.000893
 C   -1.987748   -2.928945    0.001141
 C   -2.702636   -0.613534   -0.000352
 O   -3.880178   -0.935239   -0.000699
 C   -2.337798    0.859826   -0.000972
 C   -0.881974    1.198295   -0.000168
Cl   -0.598914    2.911401   -0.000010
 H    3.995702   -2.334865    0.886713
 H    3.995881   -2.333808   -0.889344
 H    5.392274   -1.694054   -0.000794
 H    3.977500    0.188807   -0.883044
 H    3.977310    0.187762    0.883418
 H    0.199554   -1.669997    0.874427
 H    0.198371   -1.669410   -0.875745
 H   -1.568683   -3.409943   -0.890899
 H   -1.563486   -3.410426    0.890419
 H   -3.070409   -3.044424    0.004146
 H   -2.823890    1.312300    0.870865
 H   -2.822632    1.311336   -0.874017
