26 
5mgj_ligand_xtb.xyz
 C    4.379051   -1.531421    0.051146
 C    3.639666   -0.211510    0.159661
 O    2.256975   -0.448180   -0.109964
 C    1.448894    0.621134   -0.014572
 O    1.849639    1.720857    0.277329
 C    0.048034    0.275606   -0.314061
 C   -0.310962   -1.134380   -0.711966
 N   -1.547745   -1.552441   -0.087294
 C   -1.623924   -2.899309    0.425315
 C   -2.598004   -0.718225    0.027317
 O   -3.652167   -1.018310    0.543675
 C   -2.346648    0.667029   -0.575179
 C   -0.974368    1.145763   -0.245807
Cl   -0.809658    2.774328    0.226527
 H    3.989386   -2.241427    0.775791
 H    4.257850   -1.948291   -0.945114
 H    5.435895   -1.373000    0.243426
 H    4.019160    0.520534   -0.562016
 H    3.735526    0.221171    1.161792
 H    0.482923   -1.815061   -0.404675
 H   -0.404089   -1.192186   -1.807593
 H   -1.474572   -3.623578   -0.378024
 H   -0.869817   -3.058988    1.198495
 H   -2.615487   -3.033793    0.854082
 H   -3.112404    1.352066   -0.214400
 H   -2.451964    0.573007   -1.661106
