18 
5mgl_ligand_xtb.xyz
 C    4.207388   -0.087742   -0.007268
 N    2.825795    0.312522   -0.014535
 C    1.804388   -0.560457    0.003408
 O    1.923922   -1.770381    0.021014
 C    0.461682    0.115923    0.000305
 N    0.440748    1.445523    0.004359
 C   -0.731403    2.050454    0.007462
 C   -1.944765    1.377892    0.005929
 C   -1.913024   -0.009910   -0.001076
 C   -0.690594   -0.662184   -0.003420
Cl   -3.381919   -0.910973   -0.006049
 H    4.721150    0.313804    0.868352
 H    4.234463   -1.176022    0.025844
 H    4.715933    0.259356   -0.908986
 H    2.583935    1.293508   -0.025525
 H   -0.699536    3.131834    0.012253
 H   -2.879527    1.913677    0.009949
 H   -0.602998   -1.736729   -0.007967
