26 
5mgm_ligand_xtb.xyz
 C   -4.032294    1.259587    0.364069
 C   -2.720849    1.509742    0.731364
 C   -2.061776   -0.457952   -0.160663
 C   -4.254290    0.060650   -0.302221
 C    2.241835    2.576972   -0.362628
 C    3.021013    1.305800   -0.137570
 O    4.226620    1.307796   -0.032058
 C    2.239065    0.042376   -0.039031
 C    0.867418   -0.012127   -0.278758
 C    0.198501   -1.219031   -0.152308
 C    0.891299   -2.378534    0.187288
 C    2.253792   -2.323779    0.415433
 C    2.924894   -1.120623    0.308726
 O   -1.145722   -1.387507   -0.416933
 N   -1.737750    0.664388    0.471324
 N   -3.284989   -0.792874   -0.563658
 H   -4.828209    1.951637    0.578817
 H   -2.428570    2.413700    1.250394
 H   -5.238869   -0.233552   -0.641463
 H    2.923451    3.423455   -0.340514
 H    1.749154    2.542524   -1.332009
 H    1.485279    2.695468    0.409302
 H    0.316959    0.867927   -0.561646
 H    0.344814   -3.305113    0.264245
 H    2.789188   -3.222706    0.680054
 H    3.987140   -1.054719    0.488881
