76 
5mhp_ligand_xtb.xyz
 C    7.822450   -1.053597   -0.778778
 C    8.747237    0.002892   -0.102852
 O    9.549829   -0.480928    0.918496
 C    7.469334    0.664762    0.449492
 N    6.679924   -0.358794   -0.218625
 C    5.389817   -0.584586   -0.201106
 O    4.543804    0.099113    0.367527
 C    4.858492   -1.824214   -0.972739
 N    3.416874   -1.826584   -0.686768
 C    2.960110   -2.952847    0.151232
 C    1.513413   -2.712504    0.569074
 C    2.538407   -1.682874   -1.862963
 C    1.095552   -1.463880   -1.405505
 N    0.689066   -2.607037   -0.620862
 C   -0.694213   -2.804530   -0.392018
 C   -1.623993   -1.820783   -0.579617
 N   -2.922130   -2.074955   -0.267223
 C   -1.108632   -4.088275    0.043698
 C   -2.422952   -4.370367    0.300890
 C   -2.910036   -5.712800    0.724742
 C   -3.356299   -3.323694    0.167387
 N   -4.646850   -3.304584    0.442335
 C   -5.075315   -2.047309    0.227724
 C   -6.491971   -1.653248    0.461843
 C   -7.413847   -2.248250   -0.603996
 C   -4.022042   -1.255759   -0.212088
 N   -3.964015    0.102737   -0.519172
 C   -4.824368    0.669509   -1.541689
 C   -3.070037    0.911559    0.074126
 N   -2.837543    2.127459   -0.294645
 S   -2.087798    0.351433    1.439566
 C   -1.291878    1.916832    1.397850
 C   -0.168135    2.091405    2.194702
 N    0.795193    2.136931    2.822952
 C   -1.860148    2.727127    0.428615
 C   -1.506322    4.103221    0.118809
 C   -2.098771    4.708206   -0.993618
 C   -1.805950    6.014084   -1.326284
 C   -0.914064    6.718499   -0.534945
 F   -0.617861    7.989600   -0.856376
 C   -0.318426    6.149227    0.577953
 C   -0.618451    4.841441    0.903310
 H    7.956251   -2.061898   -0.381649
 H    7.834722   -1.071030   -1.869463
 H    9.300485    0.620876   -0.815044
 H   10.412620   -0.753122    0.587817
 H    7.253042    1.674730    0.104971
 H    7.398659    0.618545    1.536477
 H    5.340027   -2.735093   -0.616119
 H    5.053638   -1.716082   -2.040426
 H    3.357876   -0.913923   -0.094048
 H    3.595969   -3.024277    1.034670
 H    3.030151   -3.874033   -0.432545
 H    1.457354   -1.796815    1.182680
 H    1.168276   -3.547359    1.177707
 H    2.598092   -2.596163   -2.460098
 H    2.871626   -0.831166   -2.457711
 H    0.458080   -1.389348   -2.287410
 H    1.036094   -0.516489   -0.841500
 H   -1.397358   -0.843610   -0.972692
 H   -0.365988   -4.863971    0.146114
 H   -2.082892   -6.371247    0.973685
 H   -3.572647   -5.607360    1.580096
 H   -3.493766   -6.161011   -0.077500
 H   -6.574632   -0.565291    0.474718
 H   -6.793007   -2.038671    1.437221
 H   -7.163126   -1.872216   -1.594111
 H   -7.314458   -3.330042   -0.610537
 H   -8.447394   -1.991140   -0.389522
 H   -5.479991   -0.109392   -1.919436
 H   -5.417033    1.483673   -1.123619
 H   -4.219458    1.070773   -2.357204
 H   -2.793374    4.134772   -1.586337
 H   -2.257443    6.491851   -2.181138
 H    0.363295    6.730925    1.177347
 H   -0.164670    4.398103    1.775335
