47 
5mi5_ligand_xtb.xyz
 C    4.225274    3.715521    0.144136
 C    3.209199    2.637447    0.239323
 O    2.057008    2.964406    0.679927
 N    3.533493    1.422916   -0.123233
 C    2.753980    0.205425    0.020315
 C    3.509600   -0.933917   -0.668589
 O    4.864192   -0.834944   -0.324690
 C    2.868229   -2.248401   -0.206280
 O    3.475609   -3.261448   -0.963374
 C    1.330612   -2.165477   -0.407830
 C    0.562155   -2.408484    0.897695
 O    0.969497   -1.471354    1.881962
 O    0.925090   -0.976702   -1.077509
 C    1.345619    0.264561   -0.605043
 N    0.475786    0.902645    0.386137
 O   -0.763737    1.298594   -0.180540
 C   -1.845366    0.525802    0.238439
 O   -1.697020   -0.332987    1.071065
 N   -2.937314    0.935207   -0.405488
 C   -4.263002    0.471480   -0.267702
 C   -5.222857    1.019180   -1.112148
 C   -6.537628    0.601998   -1.024543
 C   -6.901890   -0.359700   -0.096368
 C   -5.944520   -0.899628    0.744957
 C   -4.624499   -0.490351    0.666036
 H    4.593544    3.941565    1.145634
 H    5.065089    3.436093   -0.483484
 H    3.760696    4.625567   -0.230402
 H    4.494466    1.213976   -0.389332
 H    2.659643   -0.037492    1.088206
 H    3.387562   -0.863095   -1.761223
 H    5.298920   -1.654538   -0.593625
 H    3.088864   -2.379873    0.863804
 H    3.163559   -4.128815   -0.684131
 H    1.032648   -2.944979   -1.117868
 H    0.766585   -3.430314    1.239237
 H   -0.509340   -2.305026    0.698009
 H    0.391152   -1.577314    2.646599
 H    1.339623    0.914361   -1.492772
 H    0.237005    0.216944    1.131223
 H    1.343135    2.215897    0.699932
 H   -2.800907    1.677508   -1.079866
 H   -4.937967    1.769871   -1.835193
 H   -7.277843    1.029705   -1.682654
 H   -7.928048   -0.685179   -0.029528
 H   -6.223414   -1.646279    1.472286
 H   -3.883275   -0.911211    1.324106
