47 
5mi5_ligand_dft.xyz
 C    4.205273    3.769402    0.178461
 C    3.201831    2.654919    0.278616
 O    2.122617    2.813928    0.863499
 N    3.532156    1.473852   -0.297633
 C    2.799231    0.250172   -0.034778
 C    3.535214   -0.928200   -0.662453
 O    4.882924   -0.837654   -0.287729
 C    2.890287   -2.214185   -0.166756
 O    3.517648   -3.256581   -0.882141
 C    1.355943   -2.179186   -0.394263
 C    0.549220   -2.433641    0.866211
 O    0.880151   -1.432146    1.827234
 O    0.916855   -0.978065   -1.063336
 C    1.384731    0.250038   -0.655267
 N    0.438885    0.862955    0.345557
 O   -0.748703    1.243973   -0.277324
 C   -1.850846    0.527687    0.225687
 O   -1.720305   -0.245462    1.147220
 N   -2.928648    0.889389   -0.471554
 C   -4.270844    0.445542   -0.290743
 C   -5.203664    0.888746   -1.228134
 C   -6.533533    0.507044   -1.109774
 C   -6.934715   -0.316416   -0.061717
 C   -5.995260   -0.752911    0.866042
 C   -4.658497   -0.377996    0.764189
 H    4.683813    3.894431    1.155053
 H    4.976526    3.584266   -0.572240
 H    3.681632    4.698583   -0.053361
 H    4.489798    1.330008   -0.596286
 H    2.731406    0.085885    1.049765
 H    3.429608   -0.886361   -1.757800
 H    5.333752   -1.608944   -0.659625
 H    3.103839   -2.294054    0.907261
 H    3.511133   -4.064381   -0.356026
 H    1.116785   -2.962662   -1.116336
 H    0.803894   -3.429727    1.250945
 H   -0.520106   -2.402625    0.633782
 H    0.329523   -1.563680    2.610144
 H    1.352884    0.916043   -1.520765
 H    0.232743    0.156898    1.093434
 H    0.925123    1.732837    0.717577
 H   -2.773842    1.557608   -1.214914
 H   -4.895055    1.531708   -2.048912
 H   -7.255545    0.855920   -1.840543
 H   -7.973829   -0.613249    0.032119
 H   -6.300337   -1.393303    1.687368
 H   -3.936215   -0.718606    1.493475
