32 
5mi6_ligand_dft.xyz
 C    0.400648   -0.873144    1.008186
 C   -0.123961    0.581626    1.037248
 C    0.579974    1.457525   -0.006331
 C    2.081139    1.240860    0.001728
 C    2.346180   -0.237345   -0.258162
 C    3.820460   -0.603982   -0.253316
 C   -1.916523   -0.428642    0.106637
 C   -5.576008   -0.170311   -0.480364
 N   -1.550558    0.599613    0.783370
 O    0.336299    2.828516    0.230448
 O    2.706301    1.992327   -1.011825
 O    1.759774   -1.014257    0.792599
 N   -3.181967   -0.632380   -0.327725
 O    4.006593   -1.981892   -0.469932
 S   -0.703787   -1.697409   -0.257782
 C   -4.190436    0.410352   -0.238444
 H    0.202057   -1.373770    1.957420
 H    0.087694    1.007193    2.025122
 H    0.212825    1.174053   -1.005519
 H    2.481188    1.504981    0.995094
 H    1.902130   -0.531017   -1.219344
 H    4.323063   -0.071705   -1.063015
 H    4.264527   -0.277626    0.701029
 H   -5.653515   -0.617830   -1.478271
 H   -6.331780    0.617009   -0.412576
 H   -5.811529   -0.938954    0.262020
 H   -0.624459    2.937642    0.247802
 H    2.329721    2.881436   -0.956427
 H   -3.355916   -1.413432   -0.940390
 H    3.459194   -2.433060    0.186135
 H   -4.122185    0.850427    0.759967
 H   -3.975314    1.213382   -0.957456
