35 
5mih_ligand_dft.xyz
 O   -0.383228   -3.015385   -0.562473
 C   -0.858002   -1.822601    0.023257
 C   -2.171810   -1.479604   -0.661611
 O   -3.146427   -2.469326   -0.407220
 C    0.120173   -0.666682   -0.147538
 O   -0.413690    0.500720    0.421164
 C   -1.617286    0.915315   -0.208248
 C   -2.033769    2.201722    0.459046
 O   -2.901801    3.017180   -0.314235
 C   -1.581103    3.487995   -0.067080
 C   -2.708640   -0.155134   -0.120357
 O   -3.099910   -0.305728    1.223343
 O    1.284228   -1.019470    0.528503
 C    2.445394   -0.344552    0.241938
 C    3.625431   -0.989736    0.608194
 C    4.848407   -0.382499    0.356984
 C    4.902401    0.863543   -0.265299
 C    3.718598    1.499954   -0.620678
 C    2.482937    0.908847   -0.365426
 H    0.443209   -3.241674   -0.116769
 H   -1.037665   -1.942968    1.099842
 H   -1.987618   -1.385754   -1.743842
 H   -2.707992   -3.323694   -0.522828
 H    0.341090   -0.502393   -1.218331
 H   -1.432415    1.119083   -1.277150
 H   -2.292619    2.109626    1.511506
 H   -0.922757    3.511318   -0.935737
 H   -1.508764    4.345395    0.599359
 H   -3.554744    0.175316   -0.742050
 H   -3.588592   -1.141101    1.258474
 H    3.564201   -1.962189    1.085891
 H    5.764928   -0.889150    0.644114
 H    5.859160    1.336126   -0.462810
 H    3.747966    2.477149   -1.093534
 H    1.562850    1.431580   -0.597887
