47 
5mkj_ligand_xtb.xyz
 C   -0.035540   -0.127811    0.385826
 C    1.138815    0.359125   -0.155297
 C   -1.710995    1.608912   -0.192568
 C   -2.949401    2.009801   -0.677614
 C   -3.756680    3.865168    0.716404
 C   -3.477644   -0.305075   -1.110691
 C   -2.231976   -0.702220   -0.643007
 O   -1.767061   -1.978847   -0.649407
 O   -1.115275   -1.429770    2.049446
 C    0.035659   -1.005450    1.478442
 C    1.279872   -1.391572    1.967624
 C    2.442027   -0.909084    1.405046
 C    2.396058   -0.012687    0.334387
 C    3.576010    0.542715   -0.284482
 C    4.859527    0.316321    0.036102
 C    5.934046    0.985096   -0.711992
 O    5.754645    1.750496   -1.622446
 O    7.194236    0.689174   -0.312331
 C   -1.346595    0.274620   -0.156934
 C   -3.330742    3.466956   -0.665578
 C   -3.154730    4.783070    1.447946
 C   -3.828568    1.035147   -1.118844
 C   -2.611285   -3.014315   -1.102731
 C   -1.824989   -4.321209   -1.045860
 C   -1.447777   -4.689344    0.382999
 H    1.078754    1.040094   -0.991811
 H   -1.019000    2.349249    0.182704
 H   -4.606565    3.320703    1.107218
 H   -4.186603   -1.031816   -1.475391
 H   -0.921016   -2.025960    2.783614
 H    1.329370   -2.075574    2.805850
 H    3.389927   -1.229532    1.807787
 H    3.403404    1.228088   -1.105999
 H    5.147953   -0.349481    0.838406
 H    7.206416    0.065601    0.424811
 H   -4.159215    3.632626   -1.359140
 H   -2.483785    4.079552   -0.979795
 H   -2.303830    5.333434    1.080089
 H   -3.487583    5.031566    2.441469
 H   -4.804620    1.318254   -1.486811
 H   -2.930700   -2.819312   -2.136561
 H   -3.503772   -3.081814   -0.464458
 H   -0.919213   -4.203783   -1.642699
 H   -2.432836   -5.110215   -1.492129
 H   -0.854786   -3.889939    0.817157
 H   -2.339853   -4.831907    0.989258
 H   -0.865354   -5.607230    0.399270
