56 
5mks_ligand_xtb.xyz
 C   -3.776860   -2.456055    1.189233
 C   -2.915524   -1.815874    0.287802
 C   -3.064942   -0.427689    0.165834
 C   -1.955508    1.357419   -1.158689
 C   -1.937837    2.272655    0.092764
 C   -0.877973    3.321613   -0.278256
 C    0.075626    2.518009   -1.169106
 C    1.194207    1.818047   -0.393237
 C    2.308205    2.778741    0.014236
 C    3.285688    2.106951    0.972403
 C    3.429439    1.196674    3.131542
 N   -3.716010   -3.780075    1.450725
 O   -3.163880    2.870413    0.360892
 O    2.598124    1.770916    2.156769
 C   -4.714439   -0.415304    1.644760
 N   -2.136558   -0.022990   -0.760731
 C    2.772054   -1.660477   -2.120707
 N   -0.594121   -1.173296   -2.174091
 C    0.334137   -2.275862   -2.323776
 C    1.587099   -2.055226   -1.513786
 C   -1.498146   -1.181175   -1.172157
 O   -1.438853    4.383478   -0.996168
 C    1.552101   -2.194946   -0.130561
 N   -1.924492   -2.255983   -0.555899
 O   -0.750891    1.559412   -1.841198
 C    3.913111   -1.436820   -1.370292
 C    3.861538   -1.601714    0.003788
 C    2.682253   -1.969213    0.632959
 N   -3.956166    0.308058    0.833090
Cl    5.298733   -1.359126    0.941410
 N   -4.675022   -1.716236    1.849942
 H   -2.794473    1.645091   -1.816583
 H   -1.583140    1.684659    0.952179
 H   -0.371195    3.697497    0.620764
 H    0.494060    3.160717   -1.949938
 H    1.609149    1.027937   -1.023931
 H    0.786209    1.350073    0.503765
 H    1.880838    3.647609    0.514702
 H    2.849965    3.122130   -0.867829
 H    4.116435    2.792059    1.203515
 H    3.708769    1.200530    0.512854
 H    2.795726    0.966403    3.985534
 H    3.899561    0.277888    2.763326
 H    4.219374    1.893069    3.440258
 H   -4.460801   -4.185867    1.989490
 H   -3.173201   -4.357285    0.833679
 H   -3.768693    2.142253    0.626932
 H   -5.458980    0.132245    2.206422
 H    2.811179   -1.536607   -3.193126
 H   -0.267779   -0.253268   -2.441050
 H    0.577546   -2.371970   -3.385077
 H   -0.186893   -3.173305   -1.984904
 H   -2.344883    4.492176   -0.671157
 H    0.628929   -2.489296    0.345410
 H    4.835532   -1.142508   -1.846059
 H    2.653483   -2.085712    1.704730
