56 
5mks_ligand_dft.xyz
 C   -3.562967   -2.685823    1.115350
 C   -2.770903   -1.953201    0.221292
 C   -3.042869   -0.596394    0.143905
 C   -2.081713    1.330945   -1.143191
 C   -2.098355    2.230134    0.120060
 C   -1.117158    3.335017   -0.266918
 C   -0.095218    2.569970   -1.101734
 C    0.989250    1.849989   -0.303024
 C    2.008481    2.803524    0.321170
 C    2.995232    2.088260    1.229036
 C    3.104267    0.953351    3.275445
 N   -3.420242   -4.022455    1.272975
 O   -3.349231    2.775909    0.409859
 O    2.273568    1.470728    2.269602
 C   -4.665273   -0.740018    1.647819
 N   -2.144277   -0.088558   -0.773335
 C    2.974389   -1.496166   -2.203147
 N   -0.488899   -1.063697   -2.212924
 C    0.521524   -2.092264   -2.391462
 C    1.774321   -1.831553   -1.579479
 C   -1.411147   -1.182577   -1.219392
 O   -1.758461    4.284963   -1.080389
 C    1.736140   -1.889667   -0.182501
 N   -1.739823   -2.310594   -0.625183
 O   -0.894128    1.612712   -1.830885
 C    4.125325   -1.240816   -1.461561
 C    4.062609   -1.320591   -0.077146
 C    2.871877   -1.631219    0.573872
 N   -3.981635    0.067555    0.831212
Cl    5.514588   -1.035598    0.860412
 N   -4.511352   -2.050032    1.826483
 H   -2.936533    1.563731   -1.786960
 H   -1.700114    1.660516    0.970093
 H   -0.670343    3.802779    0.620120
 H    0.345483    3.231232   -1.853286
 H    1.507334    1.154317   -0.975561
 H    0.536346    1.236952    0.484266
 H    1.500967    3.572371    0.915114
 H    2.567351    3.325176   -0.466184
 H    3.715998    2.813413    1.641704
 H    3.569218    1.336639    0.663449
 H    2.458307    0.465600    4.009445
 H    3.820860    0.218901    2.879417
 H    3.674387    1.751331    3.776937
 H   -3.913871   -4.469768    2.028109
 H   -2.627418   -4.484315    0.858542
 H   -3.906637    2.009743    0.663597
 H   -5.443983   -0.267722    2.240708
 H    3.021523   -1.438460   -3.287825
 H   -0.222405   -0.108876   -2.416714
 H    0.769867   -2.146100   -3.456211
 H    0.067420   -3.044559   -2.108761
 H   -2.661423    4.360071   -0.735101
 H    0.804923   -2.147147    0.314254
 H    5.059766   -0.992609   -1.952859
 H    2.837732   -1.683465    1.656262
