19 
5mkx_ligand_xtb.xyz
 C    3.510842   -0.838200    0.350055
 N    2.397907    0.005200    0.621508
 C    1.227234   -0.179068    0.171130
 C    0.696752   -1.253495   -0.661118
 N   -0.548901   -1.521736   -0.759962
 N   -1.470238   -0.825398   -0.086098
 C   -2.820315   -1.342766   -0.176882
 C   -1.216353    0.278281    0.685675
 O   -2.059631    0.791665    1.382219
 C    0.184535    0.837970    0.525545
Cl    0.027909    1.941254   -0.901892
 H    3.879573   -1.207142    1.308966
 H    3.319518   -1.685483   -0.314867
 H    4.294870   -0.208601   -0.074486
 H    1.349244   -1.908178   -1.217396
 H   -3.343089   -1.115649    0.750031
 H   -3.348192   -0.875041   -1.009320
 H   -2.768808   -2.416669   -0.336782
 H    0.471930    1.459328    1.373685
