29 
5mkz_ligand_dft.xyz
 C   -0.784691   -0.355997   -0.463416
 C   -3.518026    2.669863    0.495026
 C   -3.075568    0.287888    0.193974
 C   -2.078008   -0.698113   -0.148378
 C    3.663225    1.286174   -1.796309
 C    3.382668    0.587146   -0.493175
 C    4.119479    0.844316    0.707647
 C    3.706373    0.092430    1.763383
 S    2.405551   -0.950120    1.332244
 C    2.421895   -0.370810   -0.301543
 C    1.475917   -0.950411   -1.318775
 N    0.167429   -1.276809   -0.785597
 C   -0.474150    1.048454   -0.429006
 N   -1.339526    1.968388   -0.129673
 N   -2.583630    1.603241    0.164119
 O   -4.243087    0.077304    0.483493
Cl   -2.583724   -2.356515   -0.155044
 H   -3.906443    2.524250    1.505514
 H   -2.972885    3.609562    0.423770
 H   -4.359533    2.656958   -0.201262
 H    4.163487    2.242682   -1.620006
 H    4.315337    0.687186   -2.442494
 H    2.746409    1.493973   -2.358825
 H    4.917403    1.576473    0.769136
 H    4.078914    0.107458    2.778313
 H    1.884629   -1.880701   -1.726912
 H    1.389481   -0.256019   -2.165846
 H   -0.151413   -2.229227   -0.874494
 H    0.529227    1.402258   -0.633514
