60 
5ml5_ligand_dft.xyz
 C   17.486161    7.861420  -26.392497
 O   18.739361    7.659646  -25.784145
 C   19.777619    8.460632  -26.172921
 C   19.689911    9.426214  -27.175470
 C   20.801334   10.190184  -27.509915
 C   22.011312   10.000436  -26.847901
 O   23.043400   10.795593  -27.243896
 C   24.281396   10.639989  -26.592036
 C   22.093272    9.034567  -25.842961
 C   20.987151    8.260732  -25.494984
 C   21.093711    7.206409  -24.421729
 C   21.139256    5.794980  -25.012677
 C   21.340484    4.731879  -23.944516
 O   21.759987    4.985828  -22.828114
 N   21.027393    3.461685  -24.368130
 C   21.110996    2.251909  -23.669715
 C   21.645803    2.145867  -22.383702
 N   20.638953    1.216074  -24.365415
 C   20.674088    0.019836  -23.773953
 C   21.158542   -0.202648  -22.495530
 C   21.667999    0.888367  -21.779355
 C   22.173498    0.742104  -20.414000
 N   22.004583    1.754731  -19.482400
 C   22.498768    1.309071  -18.300490
 S   22.447024    2.298371  -16.848673
 C   23.176775    1.111902  -15.687872
 N   22.995733    0.100660  -18.404261
 C   22.808937   -0.267964  -19.720110
 C   23.307302   -1.571273  -20.190606
 C   23.844798   -1.738519  -21.471361
 C   24.316637   -2.975856  -21.892861
 C   24.261897   -4.044927  -21.011880
 F   24.718332   -5.242909  -21.411595
 C   23.757006   -3.910351  -19.727351
 C   23.283207   -2.668700  -19.323161
 H   16.804098    7.150977  -25.923249
 H   17.116115    8.881350  -26.225058
 H   17.523518    7.665431  -27.472377
 H   18.760936    9.595949  -27.707728
 H   20.742344   10.943876  -28.287915
 H   24.957705   11.361903  -27.051791
 H   24.203482   10.853030  -25.517573
 H   24.687479    9.628757  -26.728775
 H   23.021157    8.868237  -25.305607
 H   21.992587    7.369688  -23.821191
 H   20.239516    7.276230  -23.740936
 H   20.220351    5.598038  -25.575688
 H   21.970901    5.715904  -25.726009
 H   20.648930    3.344686  -25.298636
 H   22.045825    3.027742  -21.902406
 H   20.277219   -0.806076  -24.359559
 H   21.135534   -1.194936  -22.061000
 H   21.513523    2.621762  -19.642336
 H   23.219084    1.618561  -14.721635
 H   22.556060    0.217967  -15.616350
 H   24.180081    0.833942  -16.012169
 H   23.905286   -0.889987  -22.145407
 H   24.736776   -3.115140  -22.882789
 H   23.739260   -4.768431  -19.064446
 H   22.891607   -2.535399  -18.320191
