45 
5mm9_ligand_xtb.xyz
 C   -4.503612   -1.758671    0.508066
 C   -3.154952   -2.391736    0.204951
 O   -2.360415   -1.532883   -0.601603
 P   -1.081323   -0.764421    0.023682
 O   -0.954026   -0.969928    1.471559
 O    0.172612   -1.279847   -0.833612
 C    1.017049   -2.285220   -0.290468
 C    0.454322   -3.676556   -0.526617
 C   -1.302325    0.925424   -0.665451
 C   -2.432861    1.557388    0.119941
 S   -2.756140    3.268535   -0.459635
 C    0.005809    1.707214   -0.629080
 C    0.502815    1.984369    0.787336
 C    1.977487    2.408077    0.795862
 C    2.870655    1.262500    0.415037
 C    3.422739    1.168860   -0.855345
 C    4.217652    0.090355   -1.203469
 C    4.472622   -0.909894   -0.281896
 C    3.928617   -0.825325    0.989222
 C    3.132022    0.251286    1.332047
 H   -4.370221   -0.885420    1.142148
 H   -5.134545   -2.475172    1.026921
 H   -4.992919   -1.457674   -0.415129
 H   -3.286931   -3.320411   -0.359239
 H   -2.625732   -2.603457    1.139897
 H    1.982152   -2.158327   -0.788745
 H    1.139589   -2.105819    0.782704
 H   -0.480708   -3.791715    0.017693
 H    1.162194   -4.424494   -0.179109
 H    0.263390   -3.828309   -1.586122
 H   -1.611582    0.793792   -1.706563
 H   -3.349834    0.984449   -0.022346
 H   -2.185401    1.595631    1.180788
 H   -3.785138    3.488458    0.355699
 H   -0.130148    2.652744   -1.162811
 H    0.755942    1.120985   -1.163859
 H   -0.093377    2.780072    1.238526
 H    0.387820    1.082220    1.389737
 H    2.237407    2.750998    1.800017
 H    2.117225    3.241385    0.104094
 H    3.235023    1.951086   -1.577883
 H    4.640043    0.031915   -2.196360
 H    5.095463   -1.750696   -0.550904
 H    4.126237   -1.602103    1.713786
 H    2.708524    0.312461    2.324434
