46 
5mmg_ligand_xtb.xyz
 C    1.672452    3.890178   -0.341904
 C    5.516291   -3.069084    0.743782
 C   -4.290774   -0.527805   -2.159486
 C    4.824228    0.495224   -0.444922
 C    3.771496    1.320972   -0.786319
 C   -0.029198    0.982261    1.243390
 C   -1.114005    1.691390    1.702195
 C   -3.719575    1.697432    1.685268
 C   -4.580981    0.818470    1.121112
 C    3.284611   -1.230242    0.172197
 C   -1.454265   -0.660446    0.165402
 C    1.478481    2.916548   -1.500053
 C    5.779273   -1.639843    0.330434
 C   -0.182530   -0.176013    0.460166
 C    4.601556   -0.799371    0.019045
 C    2.213099   -0.404716   -0.134194
 C    2.457559    0.884755   -0.666767
 C   -2.395661    1.239460    1.394683
 C   -2.537590    0.054164    0.639509
 N    0.918486   -0.882710    0.015423
 N   -3.885562   -0.200294    0.493307
 O    6.907722   -1.203072    0.253714
 O   -3.803279   -2.523014   -0.495721
 O   -5.964827   -1.359533   -0.279622
 O    1.360354    1.575158   -1.071908
 S   -4.564839   -1.316184   -0.556027
 H    0.842201    3.799928    0.353562
 H    2.596288    3.681365    0.192167
 H    1.708245    4.907296   -0.722171
 H    6.465434   -3.578997    0.886756
 H    4.956827   -3.088737    1.676484
 H    4.940750   -3.583745   -0.021902
 H   -3.230737   -0.333712   -2.259584
 H   -4.629442   -1.212222   -2.926629
 H   -4.865501    0.388467   -2.182985
 H    5.842442    0.836223   -0.549221
 H    3.988821    2.303034   -1.175033
 H    0.968561    1.296565    1.507879
 H   -0.977768    2.574381    2.308697
 H   -3.977757    2.572496    2.248066
 H   -5.651852    0.785491    1.104967
 H    3.066570   -2.219240    0.544961
 H   -1.592536   -1.574667   -0.390056
 H    2.282834    3.019757   -2.238767
 H    0.526248    3.120016   -1.997725
 H    0.780764   -1.870050   -0.137063
