13 
5mn1_ligand_dft.xyz
 N   -0.293983   -1.188881   -0.000200
 C   -0.897149    0.003740    0.009694
 C   -0.184883    1.216650    0.007491
 C    1.196689    1.166276   -0.003970
 C    1.839244   -0.072825   -0.006770
 C    1.041420   -1.207775   -0.002646
 N   -2.277564   -0.012695    0.068641
 H   -0.714558    2.164451    0.022804
 H    1.772398    2.087466   -0.007579
 H    2.920293   -0.153801   -0.013637
 H    1.493325   -2.197864   -0.007681
 H   -2.681858   -0.906686   -0.171775
 H   -2.760703    0.781063   -0.324018
