13 
5mnb_ligand_xtb.xyz
 N   -0.287478   -1.179925    0.008827
 C   -0.895017    0.004421    0.002331
 C   -0.183551    1.213658    0.002484
 C    1.192667    1.163610   -0.000463
 C    1.827410   -0.074202   -0.002441
 C    1.034772   -1.206887    0.002279
 N   -2.259789   -0.017193   -0.061975
 H   -0.715254    2.153352    0.003305
 H    1.771568    2.076608    0.001081
 H    2.902938   -0.149998   -0.004303
 H    1.471669   -2.197478    0.007617
 H   -2.690685   -0.908598    0.116591
 H   -2.767057    0.802351    0.222607
