17 
5mnh_ligand_dft.xyz
 C   -0.213888   -0.035531   -0.021860
 C    0.520607   -1.211221    0.152646
 C    1.908724   -1.173998    0.176565
 C    2.580694    0.036948    0.019575
 C    1.856220    1.209494   -0.168547
 C    0.464788    1.174293   -0.189162
 C   -1.705472   -0.111097   -0.035787
 N   -2.266966   -1.212677   -0.364100
 N   -2.353720    1.078455    0.275588
 H   -0.019041   -2.145429    0.264678
 H    2.469902   -2.092888    0.318174
 H    3.666266    0.064582    0.037936
 H    2.373289    2.154146   -0.308578
 H   -0.091579    2.089117   -0.371710
 H   -3.285004   -1.140544   -0.307708
 H   -3.348253    1.002041    0.439213
 H   -1.890822    1.675204    0.947000
