22 
5mno_ligand_xtb.xyz
 C   -2.514045    0.020092    0.014895
 C   -1.680138    1.280662   -0.194048
 C   -0.344541    1.142939    0.537018
 N    0.354384   -0.025270    0.049044
 C   -0.376904   -1.251341    0.292874
 C   -1.714957   -1.197873   -0.440084
 C    1.719802   -0.097123   -0.026319
 N    2.298394   -1.224653    0.089324
 N    2.378528    1.115488   -0.243500
 H   -3.450782    0.090217   -0.541251
 H   -2.758142   -0.080480    1.075143
 H   -2.211448    2.158227    0.178502
 H   -1.493443    1.419335   -1.260938
 H   -0.537065    1.035023    1.616815
 H    0.260792    2.038134    0.398365
 H   -0.547960   -1.385724    1.370638
 H    0.241577   -2.075173   -0.060654
 H   -1.531146   -1.131128   -1.513928
 H   -2.272975   -2.114467   -0.245044
 H    3.301021   -1.190939   -0.062417
 H    3.346741    1.003490   -0.506767
 H    1.898373    1.790398   -0.818561
