14 
5mny_ligand_dft.xyz
 C   -0.935607    0.000040    0.011632
 C   -0.221077    1.204804    0.006758
 C    1.168414    1.199149   -0.003704
 C    1.876132   -0.000013   -0.009935
 C    1.168366   -1.199190   -0.003707
 C   -0.221096   -1.204772    0.006805
 N   -2.330503   -0.000056    0.075972
 H   -0.762057    2.148128    0.017248
 H    1.702097    2.145483   -0.008461
 H    2.961287   -0.000042   -0.019300
 H    1.702041   -2.145521   -0.008444
 H   -0.762177   -2.148045    0.017404
 H   -2.769263    0.834224   -0.288201
 H   -2.769194   -0.833951   -0.289141
