61 
5mo8_ligand_xtb.xyz
Cl    3.779485    1.610187    0.998301
 C    3.596767   -0.051499    0.568394
 C    4.624689   -0.737750   -0.084919
 C    5.887786   -0.088711   -0.471468
 C    7.099958   -0.651723   -0.080985
 C    8.294152   -0.054054   -0.438759
 C    8.291688    1.102267   -1.201285
 C    7.089937    1.658581   -1.606350
 C    5.892710    1.070379   -1.242084
 C    4.431221   -2.090117   -0.356478
 C    3.256583   -2.734570   -0.018215
 C    2.423144   -0.693455    0.926005
 C    2.242336   -2.038701    0.627344
 C    0.948499   -2.717537    0.987507
 N   -0.163390   -2.179733    0.151233
 C   -1.414711   -2.965731    0.224060
 C   -2.511922   -2.350353   -0.637239
 C   -3.802635   -3.189465   -0.557656
 N   -4.964330   -2.433532   -0.964613
 C   -5.563793   -1.609639   -0.081137
 O   -5.157658   -1.495546    1.062884
 C   -6.691756   -0.749781   -0.616669
 C   -6.060225    0.626998   -0.850533
 O   -5.977744    1.143789   -1.934601
 N   -5.525421    1.138912    0.301474
 C   -4.400533    1.976906    0.238467
 C   -4.424139    3.210060   -0.404402
 C   -3.257412    3.951078   -0.505984
 C   -2.059132    3.465919   -0.011610
 C   -3.207090    1.489928    0.750354
 C   -2.028100    2.214061    0.606273
 C   -0.777250    1.536207    0.988206
 O   -0.700431    0.316754    0.995848
 O    0.292153    2.254356    1.288155
 H    7.099950   -1.546529    0.524507
 H    9.228571   -0.491917   -0.122288
 H    9.224306    1.567594   -1.481003
 H    7.084268    2.554791   -2.208222
 H    4.958040    1.497620   -1.574203
 H    5.217510   -2.634467   -0.856148
 H    3.137316   -3.783248   -0.245826
 H    1.659748   -0.135689    1.444715
 H    0.693443   -2.541496    2.034088
 H    1.028241   -3.793145    0.817009
 H    0.156213   -2.129757   -0.821621
 H   -0.352820   -1.192767    0.463716
 H   -1.738810   -2.988311    1.266189
 H   -1.207569   -3.989041   -0.099537
 H   -2.187504   -2.272909   -1.676865
 H   -2.732281   -1.346291   -0.271561
 H   -3.967882   -3.481287    0.483711
 H   -3.722727   -4.085208   -1.173219
 H   -5.258271   -2.452170   -1.927322
 H   -7.472662   -0.669079    0.139250
 H   -7.107356   -1.122194   -1.550362
 H   -5.519345    0.491327    1.087857
 H   -5.346183    3.570810   -0.829290
 H   -3.279767    4.911284   -0.996706
 H   -1.154269    4.038892   -0.159579
 H   -3.185350    0.531149    1.248960
 H    0.130764    3.208724    1.292658
