22 
5mos_ligand_dft.xyz
 C    2.287509    0.099517   -0.435736
 C    1.315802    1.272680   -0.596247
 C    0.316658    1.313904    0.565041
 N   -0.396365    0.043387    0.708247
 C    0.517123   -1.079647    0.911629
 C    1.525870   -1.214250   -0.231428
 C   -1.523396   -0.202786   -0.064582
 N   -2.360011    0.914709   -0.197864
 N   -1.724555   -1.357750   -0.586146
 H    2.930984    0.285442    0.436963
 H    2.949086    0.030363   -1.306574
 H    0.754649    1.166746   -1.533752
 H    1.859682    2.223634   -0.647016
 H   -0.395052    2.127849    0.423113
 H    0.849295    1.500056    1.507425
 H   -0.077045   -1.987311    1.015773
 H    1.045719   -0.895492    1.857495
 H    2.222627   -2.032389   -0.013977
 H    0.975952   -1.481624   -1.140647
 H   -3.250736    0.694289   -0.621447
 H   -2.481103    1.441894    0.658038
 H   -2.654945   -1.412392   -0.997112
