39 
5mpn_ligand_dft.xyz
 C  -15.802536  -14.960316   -2.134477
 C   -8.903010  -11.929156    2.519303
 C  -11.252297  -17.838304    1.472137
 C  -11.129528  -16.507969    1.082910
 C  -12.498148  -18.364928    1.784972
 C  -11.734988  -11.554661   -0.068819
 C  -12.749710  -12.288653   -0.664169
 C  -13.501115  -16.211910    1.328265
 C  -11.086562  -13.481195    1.206160
 C  -14.825620  -13.858346   -1.777640
 C   -9.817729  -11.297754    1.487830
 C  -10.888924  -12.137346    0.873857
 C  -12.251894  -15.676628    1.008192
 C  -13.627859  -17.546470    1.708818
 C  -12.936200  -13.631477   -0.322395
 C  -12.094256  -14.247248    0.629331
 C  -14.950981  -18.095706    2.025725
 N  -16.963754  -18.334192    2.302446
 N  -16.092138  -17.422023    1.910926
 N  -15.158199  -19.363943    2.469774
 N  -16.441512  -19.496859    2.639773
 O   -9.680707  -10.131561    1.167615
 O  -13.890586  -14.414530   -0.866597
 H  -16.558272  -14.582308   -2.829585
 H  -15.279041  -15.796288   -2.606123
 H  -16.303594  -15.330385   -1.235374
 H   -8.186602  -11.179693    2.857611
 H   -9.476693  -12.297493    3.377004
 H   -8.362969  -12.781825    2.092809
 H  -10.370935  -18.470282    1.520887
 H  -10.153927  -16.111188    0.815642
 H  -12.607652  -19.402555    2.082078
 H  -11.583280  -10.511695   -0.326732
 H  -13.388766  -11.813311   -1.398842
 H  -14.385669  -15.588230    1.279534
 H  -10.455120  -13.956594    1.951240
 H  -14.303044  -13.489496   -2.670467
 H  -15.342903  -13.010873   -1.308033
 H  -17.957278  -18.159608    2.343417
