21 
5mpz_ligand_dft.xyz
 C   -4.744754    0.113025   -0.000089
 C   -0.775582    1.396442    0.000047
 C    0.543091    1.850778    0.000061
 C   -0.060534   -0.937369   -0.000009
 C   -2.479631   -0.467002    0.000030
 C   -1.076709    0.030665    0.000003
 C    3.455637   -0.333908   -0.000045
 C    1.539667    0.889280    0.000050
 C    1.230508   -0.472391    0.000023
 N    2.921936    0.943078   -0.000012
 O   -2.785315   -1.638375    0.000150
 O    4.605159   -0.668593   -0.000058
 O   -3.379934    0.528610   -0.000109
 O    2.388129   -1.206320   -0.000028
 H   -4.963996   -0.483103   -0.889141
 H   -4.964261   -0.482011    0.889635
 H   -5.330750    1.031583   -0.000722
 H   -1.587293    2.113930    0.000060
 H    0.772218    2.910664    0.000090
 H   -0.302541   -1.993377   -0.000031
 H    3.508604    1.761072    0.000125
