17 
5mqe_ligand_dft.xyz
 C  -20.486283  -24.970988  -12.326966
 C  -18.443072  -29.934961  -15.008254
 C  -17.653711  -28.023212  -14.085629
 C  -20.057371  -27.113657  -13.452024
 C  -17.293525  -29.227722  -14.726719
 C  -19.033179  -28.030519  -13.993028
 N  -19.600857  -25.962533  -12.896499
 N  -19.484063  -29.191110  -14.555201
 O  -21.245675  -27.414187  -13.520999
Br  -15.550571  -29.784319  -15.132923
 H  -20.396908  -24.014686  -12.853089
 H  -21.505849  -25.342284  -12.433999
 H  -20.271443  -24.816365  -11.264376
 H  -18.576953  -30.891690  -15.488217
 H  -16.969106  -27.260291  -13.743084
 H  -18.608051  -25.792430  -12.881392
 H  -20.470382  -29.406046  -14.595602
