65 
5mqv_ligand_dft.xyz
 C   37.231454    3.922250   33.801297
 O   35.887838    3.728244   33.429689
 C   35.093289    4.828411   33.316337
 C   33.769370    4.594699   32.953140
 C   32.892038    5.659132   32.803138
 C   33.316695    6.971141   33.018035
 O   32.498762    8.056101   32.882953
 C   31.136274    7.832383   32.610988
 C   34.646690    7.224324   33.394945
 C   35.519299    6.136967   33.528293
 C   35.147220    8.580330   33.673899
 C   34.681612    9.790437   33.180744
 N   35.437120   10.805522   33.668495
 C   35.219874   12.206456   33.343055
 C   36.411670   10.279207   34.490348
 C   36.245269    8.904771   34.505047
 C   37.368077   11.133275   35.207433
 O   37.225142   12.345598   35.324649
 N   38.438570   10.446754   35.734099
 C   39.468684   10.918394   36.551078
 C   39.623272   12.262874   36.899142
 C   40.683347   12.610589   37.736888
 C   41.544181   11.597234   38.177968
 C   41.308072   10.302592   37.745539
 N   40.294530    9.949372   36.952385
 C   40.848873   13.999712   38.166652
 C   41.932320   14.789817   38.493512
 N   41.507382   16.032292   38.916089
 C   40.199459   16.005416   38.837367
 N   39.746065   14.813090   38.376227
 S   39.098628   17.311788   39.251312
 C   40.319721   18.520213   39.831007
 C   43.373714   14.499635   38.413620
 C   44.240816   15.069436   39.352191
 C   45.607933   14.828745   39.301425
 C   46.103761   14.012393   38.296089
 F   47.423809   13.771468   38.242586
 C   45.276684   13.444209   37.339436
 C   43.911977   13.699867   37.399802
 H   37.679260    2.928551   33.845570
 H   37.773156    4.528451   33.062901
 H   37.314337    4.398788   34.787409
 H   33.441403    3.574745   32.783836
 H   31.868133    5.450871   32.515587
 H   30.665820    8.816763   32.599678
 H   30.989917    7.353269   31.633863
 H   30.665346    7.217046   33.388518
 H   36.552247    6.341631   33.783900
 H   33.863002    9.987465   32.507343
 H   34.909033   12.763443   34.227380
 H   36.136047   12.656092   32.958339
 H   34.441358   12.254233   32.579450
 H   36.808673    8.202319   35.105815
 H   38.520329    9.458090   35.543431
 H   38.941412   12.996568   36.491960
 H   42.370282   11.815694   38.844204
 H   41.961436    9.492920   38.062107
 H   38.782551   14.525194   38.292164
 H   43.829286   15.711740   40.123645
 H   46.288397   15.262011   40.026218
 H   45.703722   12.827179   36.556617
 H   43.259082   13.279016   36.641727
 H   41.025076   18.757148   39.033894
 H   40.861723   18.130281   40.693387
 H   39.755480   19.411354   40.113161
