69 
5mra_ligand_xtb.xyz
 C    6.037713    1.509636    0.995571
 C    7.182153    0.761965    0.783145
 C    7.102370   -0.477444    0.181796
 C    5.869453   -1.007511   -0.217413
 O    5.736681   -2.201020   -0.804987
 C    4.691170   -0.250216   -0.001832
 C    3.388143   -0.773972   -0.407817
 O    3.247883   -1.915128   -0.862545
 C    2.227681    0.114010   -0.265914
 C    0.982487   -0.311322   -0.749554
 O    0.803201   -1.509306   -1.313088
 C   -0.137145    0.548069   -0.663322
 C   -1.432177    0.036743   -1.240579
 O   -1.817245   -1.071772   -0.430519
 C   -2.511800    1.118961   -1.326801
 C   -2.546350    1.966828   -0.049046
 O   -2.759869    1.140354    1.073618
 C   -3.668595    3.008138   -0.068736
 O   -4.354163    3.154046    0.920499
 C   -3.908541    3.845685   -1.296005
 O   -4.908715    4.791773   -1.086173
 C   -1.201567    2.709518    0.084541
 C   -0.037098    1.775902   -0.055353
 C    1.209131    2.208981    0.458177
 O    1.249697    3.406096    1.036670
 C    2.338485    1.386352    0.335637
 C    3.623505    1.864882    0.834747
 O    3.733713    2.948663    1.411266
 C    4.801012    1.013050    0.603365
 C    6.879824   -2.975701   -1.094021
 C   -2.590725   -2.049973   -1.025579
 C   -2.308376   -3.357076   -0.254251
 C   -2.801905   -3.169409    1.174308
 N   -2.810867   -4.501508    1.866886
 C   -4.283023   -2.728925    1.175974
 O   -5.036472   -3.836073    0.725207
 C   -4.451104   -1.476090    0.299590
 O   -3.971512   -1.774363   -1.007771
 C   -5.902412   -1.030795    0.200135
 H    6.080597    2.482404    1.459855
 H    8.143888    1.147120    1.084875
 H    8.007295   -1.041098    0.022943
 H    1.703700   -1.955321   -1.299544
 H   -1.231126   -0.342766   -2.254793
 H   -2.284492    1.763244   -2.174780
 H   -3.476308    0.637064   -1.491510
 H   -3.297764    1.661857    1.695950
 H   -2.980066    4.352476   -1.591635
 H   -4.202122    3.179693   -2.121346
 H   -5.240656    4.682018   -0.180254
 H   -1.140301    3.194269    1.061685
 H   -1.119117    3.491984   -0.673083
 H    2.184621    3.565345    1.340400
 H    6.502797   -3.867765   -1.590738
 H    7.562598   -2.448860   -1.766611
 H    7.410053   -3.266243   -0.182429
 H   -2.344667   -2.176779   -2.090735
 H   -2.837450   -4.173545   -0.747323
 H   -1.234752   -3.534586   -0.284342
 H   -2.171756   -2.447839    1.694801
 H   -3.711836   -4.913630    1.521536
 H   -2.011859   -5.085207    1.600304
 H   -2.852558   -4.411963    2.887026
 H   -4.609419   -2.505758    2.198140
 H   -5.262361   -3.685644   -0.203649
 H   -3.835946   -0.676142    0.733863
 H   -6.270045   -0.753776    1.183462
 H   -5.972534   -0.169164   -0.456137
 H   -6.531772   -1.818679   -0.206120
