28 
5mrh_ligand_xtb.xyz
 C   -3.962212    0.162193    0.599395
 C   -2.796824   -0.216334   -0.313428
 C   -2.611146    0.849378   -1.391096
 C   -1.526523   -0.399499    0.522418
 C   -0.331458   -0.902119   -0.295135
 C    1.452794   -0.308611    1.277411
 C    2.027662    0.810526    0.413239
 N    0.808505   -1.355361    0.491904
 N    2.725168    0.446874   -0.677711
 N    3.092470   -0.859215   -1.079764
 O    1.887721    1.985671    0.698252
 H   -4.115908   -0.595074    1.365290
 H   -3.762969    1.112169    1.090664
 H   -4.881147    0.259216    0.025883
 H   -3.033321   -1.170024   -0.800934
 H   -2.275395    1.783224   -0.945577
 H   -1.879404    0.537165   -2.131599
 H   -3.552701    1.032691   -1.904063
 H   -1.731683   -1.122689    1.318596
 H   -1.272183    0.553887    0.989569
 H    0.024458   -0.107550   -0.954509
 H   -0.643575   -1.750667   -0.912915
 H    0.788578    0.168660    2.010759
 H    2.286969   -0.762165    1.824205
 H    0.507249   -2.098481    1.117215
 H    3.212231    1.184847   -1.170987
 H    2.762804   -1.002064   -2.036272
 H    2.567477   -1.507796   -0.489167
