22 
5mrm_ligand_dft.xyz
 C   -0.821206   -1.336629   -0.003494
 C   -0.005840   -0.201200   -0.005598
 C    1.447766   -0.355239   -0.008804
 C    2.509405    0.499752   -0.020466
 C    3.622032   -0.375045   -0.023289
 C   -0.595873    1.074459   -0.003787
 C   -1.991991    1.165554   -0.000085
 F    5.290974    1.015193   -0.868829
 C    5.070180    0.018243    0.003188
 F    5.873406   -0.997288   -0.306124
 F    5.414401    0.469469    1.218939
 N    3.273993   -1.635242   -0.013580
 O    1.906352   -1.624870   -0.005097
 C   -2.200730   -1.211591    0.000231
Br   -3.285169   -2.759221    0.002918
 C   -2.801044    0.040898    0.001962
Br   -2.781288    2.888996    0.002260
 O    0.204591    2.155832   -0.005743
 H   -0.364717   -2.318808   -0.004819
 H    2.502819    1.575239   -0.030619
 H   -3.879632    0.141782    0.004837
 H   -0.343196    2.957113   -0.003878
