27 
5mro_ligand_dft.xyz
 N   -1.243139   -0.510235   -1.386705
 C   -0.159666   -1.326450   -1.116103
 C   -1.431869   -0.153774    1.069055
 C   -0.459365   -1.299761    1.324033
 C    1.490749   -2.596508   -1.187861
 C    0.524408    1.473598    0.821354
 C    2.901185    1.141934    0.497816
 C    1.646112    2.443710   -1.093029
 O   -0.206878   -1.723806    2.419034
 N    0.174642   -1.731915    0.155336
 N    1.248731   -2.562810    0.102100
 N    0.651847   -1.863522   -1.985029
 C   -1.830536   -0.018766   -0.378516
Cl   -3.223475    0.991379   -0.657975
 C   -0.746316    1.162201    1.574706
 C    0.488790    2.234073   -0.349586
 C    2.853641    1.894468   -0.672551
 C    1.744425    0.935775    1.241583
 H   -2.320266   -0.331932    1.681077
 H    2.308618   -3.177380   -1.589938
 H    3.839358    0.711133    0.833387
 H    1.601663    3.031479   -2.004624
 H   -1.472250    1.975394    1.481883
 H   -0.546060    1.012567    2.639440
 H   -0.452578    2.661096   -0.687244
 H    3.756276    2.053456   -1.254455
 H    1.785421    0.337557    2.148469
