29 
5mrp_ligand_xtb.xyz
Cl   -3.036671   -1.840970   -0.486154
 C   -1.777507   -0.899007    0.161263
 N   -0.651278   -1.458741    0.364851
 C    0.327959   -0.705206    0.916829
 C   -2.054479    0.554241    0.368451
 C   -1.142088    1.182727    1.412498
 O   -1.414601    2.162662    2.041998
 N    0.085406    0.530996    1.484177
 N    1.192645    1.031239    2.057222
 C    2.143332    0.168671    1.841852
 C    1.671052   -0.969386    1.126061
 C    2.416358   -2.073624    0.697759
 N    3.057360   -2.955877    0.344790
 C   -1.786628    1.311327   -0.978492
 C   -0.357689    1.147946   -1.413286
 C    0.027813    0.049935   -2.174158
 C    1.361324   -0.162850   -2.475904
 C    2.324190    0.723537   -2.024733
 C    1.946426    1.837799   -1.293370
 C    0.613635    2.049245   -0.989845
 H   -3.095759    0.729499    0.649091
 H    3.140302    0.347905    2.191945
 H   -2.467836    0.906008   -1.728502
 H   -2.021124    2.364170   -0.814777
 H   -0.718525   -0.648316   -2.524954
 H    1.649167   -1.028288   -3.052575
 H    3.365922    0.547743   -2.245335
 H    2.690638    2.539179   -0.947832
 H    0.326304    2.911852   -0.405269
