27 
5msb_ligand_dft.xyz
 O    3.045406    0.081146    1.472234
 S    2.659266    0.672090    0.192210
 O    2.910060    2.075007   -0.082068
 C    3.377573   -0.317948   -1.152436
 C    4.296025   -1.417174   -0.610886
 O    5.386643   -0.893799    0.096870
 C    0.871213    0.392028    0.047382
 C   -0.047890    1.436528   -0.040988
 F    0.315526    2.705156   -0.088242
 C   -1.409033    1.155979   -0.079358
 F   -2.250528    2.189152   -0.166575
 C   -1.902234   -0.142438   -0.012124
 S   -3.690862   -0.421295   -0.124402
 O   -3.940944   -1.764126    0.340959
 N   -4.363444    0.586918    0.985467
 O   -4.071622    0.054397   -1.433800
 C   -0.982475   -1.185777    0.068015
 F   -1.349719   -2.454682    0.100573
 C    0.379064   -0.907125    0.107545
 F    1.221261   -1.937369    0.172805
 H    3.947694    0.408463   -1.736687
 H    2.563675   -0.718964   -1.762792
 H    4.698640   -1.956476   -1.473653
 H    3.714901   -2.126913   -0.011329
 H    5.056443   -0.628692    0.967244
 H   -4.241461    0.299692    1.948952
 H   -4.248913    1.576003    0.801546
