47 
5mtv_ligand_dft.xyz
 P    3.423255   -0.256691   -1.188774
 S    5.307118   -0.017129   -1.071981
 O    2.628853    0.783683   -2.077736
 O    2.936976   -1.719939   -1.555186
 P    2.254476    1.045641    1.260187
 O    2.726949    2.408384    0.946424
 O    2.637571    0.431524    2.669634
 O    2.602457   -0.140597    0.293280
 P   -0.157372    1.866507    0.146311
 O    0.188635    3.389036    0.434789
 O    0.153173    1.381405   -1.218632
 O    0.618748    1.015702    1.291362
 O   -1.639667    1.710528    0.657412
 C   -2.720652    2.386348   -0.017493
 C   -3.661203    1.366490   -0.623005
 O   -2.981672    0.647586   -1.639949
 C   -4.200746    0.329815    0.369939
 O   -5.478152    0.744930    0.817234
 C   -4.273113   -0.945531   -0.488554
 O   -5.450891   -0.933907   -1.254667
 C   -3.108587   -0.739863   -1.458376
 N   -1.838461   -1.318485   -1.019027
 C   -0.775100   -1.468164   -1.865390
 N    0.303707   -1.913022   -1.279970
 C   -0.052197   -2.050678    0.049874
 C    0.648730   -2.502008    1.189494
 N    1.909664   -2.973745    1.146073
 N    0.009302   -2.492809    2.369010
 C   -1.260448   -2.084781    2.404162
 N   -2.032874   -1.671059    1.402459
 C   -1.373825   -1.669225    0.238649
 H    1.678660    0.941060   -1.841908
 H    1.929625   -1.807940   -1.634129
 H    2.736400    1.116251    3.346059
 H    1.162918    3.511149    0.442598
 H   -3.239770    2.979333    0.739090
 H   -2.336460    3.052766   -0.794365
 H   -4.509190    1.905788   -1.065390
 H   -3.506889    0.174691    1.199812
 H   -5.652375    0.322011    1.666487
 H   -4.177931   -1.862159    0.102374
 H   -6.090454   -0.413379   -0.742195
 H   -3.338530   -1.190105   -2.426098
 H   -0.852548   -1.212901   -2.912914
 H    2.495590   -2.768457    0.347172
 H    2.367722   -3.104946    2.035524
 H   -1.726384   -2.098213    3.386390
