47 
5mtv_ligand_xtb.xyz
 P   -3.288458    0.398663   -1.190653
 S   -5.164559    0.040214   -0.961984
 O   -2.486434   -0.525267   -2.175494
 O   -2.882337    1.884232   -1.471385
 P   -2.232507   -1.132824    1.022604
 O   -2.662007   -2.347708    0.335591
 O   -2.808445   -0.884416    2.456105
 O   -2.435583    0.214201    0.261331
 P    0.191071   -1.662364    0.028199
 O   -0.160692   -3.188278   -0.126392
 O   -0.085959   -0.864629   -1.173084
 O   -0.647588   -1.138182    1.299891
 O    1.622386   -1.655438    0.664904
 C    2.681845   -2.330164   -0.002554
 C    3.613854   -1.322493   -0.674773
 O    2.912840   -0.569166   -1.644640
 C    4.237625   -0.334840    0.326980
 O    5.563119   -0.727603    0.578526
 C    4.165285    1.025586   -0.406359
 O    5.356128    1.320102   -1.074289
 C    3.001839    0.811475   -1.395633
 N    1.755665    1.345238   -0.899565
 C    0.722438    1.754463   -1.687101
 N   -0.328180    2.132406   -1.023228
 C   -0.010001    1.940889    0.300129
 C   -0.701855    2.147197    1.510035
 N   -1.909804    2.731129    1.592541
 N   -0.080228    1.813359    2.644272
 C    1.146610    1.333695    2.593616
 N    1.909429    1.130057    1.534133
 C    1.291261    1.423291    0.389673
 H   -1.533524   -0.656018   -1.960842
 H   -1.884146    2.075395   -1.417107
 H   -3.562095   -1.446516    2.640937
 H   -1.124473   -3.300330   -0.192914
 H    3.233850   -2.889354    0.756824
 H    2.279383   -3.014996   -0.750169
 H    4.418126   -1.878859   -1.178855
 H    3.629612   -0.291429    1.236044
 H    5.910693   -0.207656    1.312815
 H    3.938841    1.848966    0.277869
 H    5.923447    0.533401   -1.035638
 H    3.209254    1.308762   -2.352385
 H    0.792050    1.764403   -2.756700
 H   -2.481494    2.784380    0.765243
 H   -2.368613    2.680609    2.487231
 H    1.595425    1.090981    3.547491
