76 
5mtx_ligand_xtb.xyz
 C   10.009281    0.496601   -1.798649
 C   11.108888   -0.551015   -1.669334
 O   12.243144   -0.039701   -1.000763
 C   11.948725    0.998888   -0.095258
 C   10.583681    0.809283    0.561758
 N    9.495587    0.836300   -0.451618
 C    8.697309    2.078329   -0.447912
 C    7.667173    2.061657    0.687456
 N    6.510725    1.224879    0.406780
 C    6.533233   -0.113760    0.279389
 O    7.601443   -0.736159    0.124713
 C    5.248450   -0.821333    0.292651
 C    4.089573   -0.266022    0.828409
 C    2.899614   -0.981093    0.851688
 C    1.738323   -0.291917    1.508775
 O    2.002057    0.504064    2.400380
 C    5.204915   -2.128039   -0.204756
 C    4.027817   -2.845428   -0.169099
 C    2.870675   -2.285849    0.360067
 C    1.581758   -3.049876    0.415536
 O    0.605738   -2.470849   -0.422448
 C   -0.083891   -1.395283    0.048999
 C   -1.361486   -1.270125   -0.470278
 C    0.381913   -0.467352    1.003742
 C   -0.550292    0.487212    1.464086
 C   -1.817523    0.597156    0.967492
 C   -2.242588   -0.268062   -0.056924
 N   -3.486035   -0.224432   -0.610211
 C   -4.488005    0.730101   -0.438381
 C   -5.808251    0.284811   -0.429350
 C   -4.209571    2.091847   -0.346810
 C   -5.249234    2.994259   -0.204094
 C   -6.547200    2.536372   -0.167434
 F   -7.565426    3.421961   -0.027431
 C   -6.862077    1.178111   -0.289362
 N   -8.196978    0.802851   -0.259943
 C   -8.725087   -0.459985   -0.359055
 O   -8.050180   -1.461101   -0.480219
 C  -10.210285   -0.501455   -0.279689
 C  -11.030552    0.531179   -0.728413
 C  -12.405552    0.410928   -0.636387
 C  -12.973481   -0.730881   -0.094821
 C  -12.163565   -1.767313    0.340188
 C  -10.790043   -1.656725    0.240426
 H    9.188779    0.105193   -2.401283
 H   10.411775    1.390775   -2.282174
 H   11.447150   -0.870481   -2.657653
 H   10.718212   -1.430735   -1.136823
 H   11.993845    1.974616   -0.602575
 H   12.734267    0.977104    0.663342
 H   10.421732    1.592826    1.301512
 H   10.566485   -0.158370    1.068072
 H    8.729930    0.048638   -0.162336
 H    8.171638    2.156164   -1.402492
 H    9.354615    2.944726   -0.342477
 H    7.301728    3.076247    0.844355
 H    8.144225    1.724765    1.615707
 H    5.605326    1.656340    0.512574
 H    4.070930    0.709672    1.294142
 H    6.104554   -2.564397   -0.610311
 H    4.003688   -3.856502   -0.545594
 H    1.216713   -3.089492    1.452187
 H    1.716065   -4.068060    0.042267
 H   -1.673060   -1.999440   -1.202567
 H   -0.212438    1.158324    2.239453
 H   -2.498148    1.323013    1.379512
 H   -3.771893   -1.053671   -1.112963
 H   -6.028835   -0.765890   -0.521779
 H   -3.195884    2.449838   -0.418378
 H   -5.061293    4.053261   -0.130810
 H   -8.846339    1.564675   -0.113993
 H  -10.611456    1.417674   -1.183935
 H  -13.037094    1.211326   -0.991787
 H  -14.047158   -0.815216   -0.020953
 H  -12.603635   -2.662403    0.752928
 H  -10.142147   -2.456697    0.565416
