62 
5mty_ligand_xtb.xyz
 C   -9.492822    0.515346    0.086414
 C  -10.808653    0.023873    0.132922
 C  -10.868141   -1.322674   -0.067162
 S   -9.326775   -2.020467   -0.314578
 C   -8.568980   -0.471775   -0.149511
 C   -7.109106   -0.449961   -0.275051
 O   -6.468933   -1.466462   -0.461333
 N   -6.556475    0.799375   -0.165854
 C   -5.213141    1.150551   -0.228153
 C   -4.179329    0.234593   -0.359625
 C   -4.878502    2.505306   -0.141392
 F   -5.877744    3.413153    0.001864
 C   -3.573829    2.939418   -0.218073
 C   -2.568147    2.003807   -0.368702
 F   -1.304828    2.455960   -0.517846
 C   -2.841180    0.631895   -0.410514
 N   -1.865632   -0.329897   -0.577205
 C   -0.596264   -0.359394   -0.027024
 C    0.325204   -1.274080   -0.531737
 C   -0.220234    0.433124    1.057392
 C    1.052832    0.320241    1.558678
 C    2.001277   -0.562899    1.025933
 C    3.329571   -0.478415    1.681654
 O    3.433428   -0.053469    2.816054
 C    1.614168   -1.393802   -0.034615
 C    2.475704   -2.454304   -0.665606
 C    3.582235   -3.005163    0.235739
 C    4.721029   -2.034092    0.260779
 C    5.924892   -2.310473   -0.370713
 C    6.950901   -1.382889   -0.384183
 C    4.560936   -0.811289    0.909152
 C    5.606286    0.103140    0.931893
 C    6.792405   -0.159516    0.259032
 C    7.889392    0.854217    0.303137
 O    8.130222    1.526389    1.284573
 N    8.566183    0.989886   -0.863927
 C    9.764903    1.783808   -0.963354
 C   10.869693    1.021790   -1.693292
 O   11.082075   -0.209199   -1.039747
 H   -9.259454    1.556543    0.226746
 H  -11.670927    0.641873    0.307413
 H  -11.740637   -1.945365   -0.082222
 H   -7.186552    1.578275   -0.034988
 H   -4.423026   -0.813335   -0.420379
 H   -3.338859    3.990323   -0.182704
 H   -2.180791   -1.191617   -0.999140
 H    0.016875   -1.920886   -1.342661
 H   -0.923438    1.109609    1.515638
 H    1.354741    0.924790    2.400771
 H    2.932697   -2.041417   -1.572104
 H    1.826777   -3.275777   -0.979251
 H    3.922348   -3.965957   -0.154680
 H    3.190122   -3.163326    1.242865
 H    6.063117   -3.268716   -0.851679
 H    7.889157   -1.631492   -0.859533
 H    5.497545    1.031682    1.471690
 H    8.342372    0.389987   -1.641135
 H   10.071316    2.013098    0.060512
 H    9.568321    2.722441   -1.496295
 H   11.779618    1.635320   -1.693975
 H   10.569023    0.847548   -2.739448
 H   11.889728   -0.614059   -1.369922
