62 
5mty_ligand_dft.xyz
 C   -9.301326    0.105172    0.970003
 C  -10.574760   -0.488740    1.173236
 C  -10.634107   -1.761345    0.677351
 S   -9.152973   -2.255485   -0.032288
 C   -8.424482   -0.727961    0.321454
 C   -7.010697   -0.541244   -0.080478
 O   -6.337608   -1.474918   -0.490028
 N   -6.544318    0.742772    0.041321
 C   -5.255818    1.211594   -0.244591
 C   -4.173215    0.414121   -0.614822
 C   -5.040697    2.585448   -0.117165
 F   -6.084041    3.353531    0.263179
 C   -3.818495    3.173657   -0.367173
 C   -2.773034    2.359925   -0.773038
 F   -1.593988    2.921729   -1.062017
 C   -2.922649    0.976490   -0.883192
 N   -1.864580    0.167668   -1.326946
 C   -0.624605    0.046141   -0.712592
 C    0.322557   -0.812507   -1.280457
 C   -0.285348    0.725888    0.462512
 C    0.971336    0.550210    1.003504
 C    1.941162   -0.289805    0.431614
 C    3.259655   -0.277517    1.147906
 O    3.355987    0.348311    2.193190
 C    1.590095   -0.997473   -0.737365
 C    2.491691   -1.979464   -1.450606
 C    3.339564   -2.849354   -0.516643
 C    4.584870   -2.124526   -0.084543
 C    5.836661   -2.642422   -0.421189
 C    7.008510   -1.973969   -0.095494
 C    4.523464   -0.917328    0.626771
 C    5.708252   -0.266261    0.977552
 C    6.950206   -0.763738    0.596938
 C    8.170014    0.021694    0.984207
 O    8.159893    0.808780    1.918998
 N    9.289191   -0.214487    0.231068
 C   10.473612    0.601307    0.409416
 C   10.450859    1.831732   -0.481982
 O   10.396136    1.372194   -1.822486
 H   -9.056480    1.103224    1.318076
 H  -11.402380    0.005073    1.667706
 H  -11.478592   -2.436989    0.697071
 H   -7.201239    1.460592    0.306295
 H   -4.312267   -0.655596   -0.694342
 H   -3.686678    4.244713   -0.276290
 H   -2.136785   -0.607657   -1.912469
 H    0.055740   -1.356823   -2.184312
 H   -1.001800    1.370717    0.957833
 H    1.241840    1.075355    1.912188
 H    3.157912   -1.442660   -2.139051
 H    1.864372   -2.626243   -2.072622
 H    3.624706   -3.769221   -1.036845
 H    2.738738   -3.149359    0.350772
 H    5.891591   -3.591765   -0.947388
 H    7.965698   -2.416908   -0.355997
 H    5.662655    0.644471    1.563977
 H    9.156590   -0.581368   -0.700269
 H   11.355402   -0.003668    0.174677
 H   10.518255    0.900641    1.457844
 H   11.353494    2.434854   -0.301016
 H    9.571417    2.439590   -0.227657
 H   10.210668    2.124496   -2.394323
