23 
5muc_ligand_xtb.xyz
 O   -2.525624    1.188647    0.010670
 C   -0.120871    0.977696    0.171973
 C    1.061722    0.108863   -0.274723
 O    0.134320    2.312718   -0.173315
 C    2.344812    0.475805    0.475768
 O    0.800147   -1.262126   -0.012354
 O    3.445948   -0.252232    0.010217
 C   -1.420708    0.482486   -0.494537
 C   -1.583129   -1.033356   -0.271257
 O   -1.842103   -1.287552    1.091028
 C   -0.309984   -1.749009   -0.729066
 H   -2.811969    0.733035    0.815883
 H   -0.232666    0.890639    1.268218
 H    1.219976    0.256508   -1.353850
 H   -0.710468    2.782656   -0.146158
 H    2.186632    0.299854    1.549842
 H    2.561653    1.531766    0.311613
 H    3.209233   -1.187451    0.037708
 H   -1.370837    0.702963   -1.567081
 H   -2.456485   -1.393766   -0.824597
 H   -0.989234   -1.360227    1.540901
 H   -0.168127   -1.610733   -1.809522
 H   -0.370271   -2.815794   -0.501868
