63 
5mw2_ligand_dft.xyz
 C   -5.177642    2.273975   -0.750668
 C   -3.933805    1.391290   -0.744660
 C   -3.468867   -4.376876    1.047164
 C   -3.877434   -2.105189    0.314126
 C    0.674361   -3.838706    0.346281
 C   -1.579667   -2.967592    0.323629
 C    0.294169   -1.578672   -0.364329
 C    3.365905   -1.428177   -0.186300
 C    3.651686    0.742854    0.492369
 C    5.456010   -0.308646   -0.380377
 C    1.687689    1.903648    1.396997
 C   -7.586327    2.349074   -0.316040
 N   -6.317894    1.658558   -0.373391
 O   -5.071933    3.447501   -1.071550
 O   -4.289807    0.073929   -0.389468
 O   -5.073974   -2.247586    0.516716
 N   -2.951241   -3.113162    0.541750
 C   -3.318991   -0.833154   -0.192949
 C   -1.999659   -0.661910   -0.410099
 C   -0.681386   -4.017394    0.556277
 C   -1.078377   -1.737615   -0.144218
 C    1.179822   -2.617037   -0.114645
 N    2.563464   -2.518071   -0.363307
 N    3.107866    1.839295    1.092920
Cl    5.457044   -2.906374   -1.225488
 N    2.846944   -0.320903    0.329232
 N    4.946639    0.808390    0.129878
 C    4.729101   -1.469067   -0.552021
 C    0.924148    2.681829    0.319361
 C    1.573305    4.058304    0.119852
 C    3.087192    3.977442   -0.119470
 C    3.745430    3.143391    0.988337
 C   -0.552997    2.800928    0.686825
 C    3.720962    5.363498   -0.209398
 H   -3.221031    1.810771   -0.023873
 H   -3.478524    1.425718   -1.742167
 H   -3.264154   -5.184677    0.337887
 H   -3.013482   -4.614582    2.013123
 H   -4.543862   -4.263084    1.168822
 H    1.357902   -4.657788    0.552088
 H    0.663548   -0.628045   -0.728179
 H    6.503910   -0.279401   -0.672104
 H    1.575927    2.416971    2.363116
 H    1.298686    0.891020    1.502583
 H   -8.039119    2.241852    0.674572
 H   -7.400664    3.405474   -0.514543
 H   -8.282492    1.961956   -1.067972
 H   -6.263798    0.676751   -0.138672
 H   -1.602075    0.272898   -0.791903
 H   -1.031391   -4.978067    0.912978
 H    3.030527   -3.366831   -0.646000
 H    1.017739    2.113822   -0.618339
 H    1.391714    4.664165    1.022103
 H    1.088404    4.585186   -0.711950
 H    3.261954    3.447146   -1.066612
 H    3.630963    3.656196    1.954156
 H    4.808651    3.000338    0.799801
 H   -0.995647    1.813833    0.865204
 H   -1.122422    3.298495   -0.106328
 H   -0.679952    3.388240    1.604286
 H    3.587286    5.914253    0.729965
 H    4.795734    5.295343   -0.409763
 H    3.263417    5.953735   -1.010426
