64 
5mwg_ligand_dft.xyz
 C    3.911943    0.706860    2.492929
 C    3.170898   -0.647704   -3.009449
 C   -3.736346   -1.344354    0.733352
 C   -3.343328   -0.195171    1.402380
 C   -1.095536   -1.086253    1.522813
 C    1.518521    1.367439    1.130924
 C    1.144621    0.702970   -1.532543
 C   -3.345438    1.974343   -3.274959
 C   -2.317731   -4.734576   -0.336729
 C   -0.893261   -4.244075   -0.592133
 C   -3.319426    0.857075   -2.229367
 C   -2.482876    3.154729   -2.820063
 C   -3.296166   -3.560096   -0.371696
 C   -0.456593   -3.299066    0.526822
 C   -1.883646    0.469502   -1.894721
 C   -1.074580    2.692887   -2.451706
 C   -2.825582   -2.361413    0.426341
 C   -1.487728   -2.230948    0.827925
 C    0.308621    1.655949    0.509102
 C   -2.011946   -0.077945    1.792312
 C    0.115862    1.329004   -0.836143
 C    4.770224   -0.260953    0.440915
 C    4.570169   -0.626557   -1.032533
 C    2.532189    0.704654    0.442581
 C    2.346873    0.368232   -0.912024
 N   -0.746605    2.280763    1.218629
 N   -1.143350    1.644863   -1.430681
 N    3.732077    0.376419    1.084667
 N    3.366011   -0.291040   -1.612596
 O    5.815106   -0.547668    0.983025
 O    5.458967   -1.195250   -1.628664
 O   -2.600987    2.236845    2.887792
 O   -0.376987    1.141339    3.450597
 S   -1.442909    1.447492    2.512529
 H    4.887699    0.331360    2.792994
 H    3.876922    1.790575    2.638687
 H    3.131383    0.234935    3.096772
 H    3.006841    0.249234   -3.614879
 H    4.074507   -1.152151   -3.345200
 H    2.314254   -1.320907   -3.115645
 H   -4.773936   -1.455286    0.428221
 H   -4.047541    0.597956    1.629552
 H   -0.064449   -0.979326    1.846269
 H    1.636461    1.644814    2.168785
 H    0.984873    0.459148   -2.575997
 H   -4.372968    2.302654   -3.464319
 H   -2.953772    1.586695   -4.226110
 H   -2.360686   -5.223921    0.645188
 H   -2.613102   -5.482909   -1.079408
 H   -0.856802   -3.718360   -1.556191
 H   -0.196612   -5.085866   -0.659850
 H   -3.861955   -0.025813   -2.586407
 H   -3.811387    1.193147   -1.308145
 H   -2.938023    3.626047   -1.939908
 H   -2.422982    3.916216   -3.605395
 H   -4.284274   -3.871315   -0.013770
 H   -3.437026   -3.241343   -1.414618
 H    0.496652   -2.819379    0.276332
 H   -0.276385   -3.881943    1.440701
 H   -1.405436    0.027725   -2.790687
 H   -1.858754   -0.283635   -1.104513
 H   -0.487499    3.524135   -2.049205
 H   -0.554232    2.330601   -3.359155
 H   -1.489373    2.520682    0.557336
