47 
5mwp_ligand_xtb.xyz
 C    6.724081   -2.466936   -1.195792
 C    4.674307   -1.580720   -0.186252
 O    5.000236   -1.901820    0.935945
 C    2.937368    0.139731    1.780698
 C    1.984728    1.862843    0.487461
 C    1.961343    3.202367    0.112666
 C    0.999642    3.639354   -0.773910
 C    0.069406    2.777811   -1.328206
 C    0.102518    1.446543   -0.962801
 C    1.025368    0.977250   -0.032326
 C   -1.314722   -0.718402    0.448538
 C   -1.645471    0.359241    1.265207
 C   -2.958377    0.776560    1.369612
 C   -3.959931    0.127101    0.659926
 C   -6.258522   -0.334621    0.418497
 N    5.441384   -1.810069   -1.272714
 C    3.365967   -0.867743   -0.516135
 C    2.437595   -0.819499    0.699869
 O    2.978777    1.478073    1.324434
 F    0.982016    4.940895   -1.123978
 N    1.102200   -0.375419    0.329262
 C    0.066967   -1.269570    0.390501
 O    0.275455   -2.465937    0.451995
 O   -5.236962    0.586547    0.746156
 C   -5.961629   -1.274617   -0.744898
 O   -6.827404   -1.762330   -1.431764
 N   -4.646003   -1.562445   -0.903040
 C   -3.631490   -0.959518   -0.159874
 C   -2.317789   -1.385375   -0.246839
 H    7.518060   -1.807054   -1.549875
 H    6.725192   -3.381693   -1.790797
 H    6.899301   -2.715509   -0.150686
 H    3.954385   -0.119387    2.078443
 H    2.276297    0.071305    2.654778
 H    2.694449    3.879109    0.518635
 H   -0.651960    3.143743   -2.039492
 H   -0.594877    0.755499   -1.407321
 H   -0.882336    0.865040    1.835510
 H   -3.230192    1.609894    1.996601
 H   -6.483897   -0.968205    1.292351
 H   -7.147071    0.255836    0.185029
 H    5.118618   -1.523389   -2.182795
 H    3.596093    0.144392   -0.859962
 H    2.860177   -1.400051   -1.324657
 H    2.350228   -1.825594    1.120112
 H   -4.391981   -2.250397   -1.600259
 H   -2.060670   -2.233100   -0.864143
