71 
5mwz_ligand_xtb.xyz
 N    3.816933   -2.284438   -0.710734
 C    2.726366   -3.098314   -1.189743
 C    1.270710   -2.628357   -1.056096
 O    0.369156   -3.384223   -1.364402
 C   -3.451624   -3.366698    1.164632
 C   -3.219160    3.515956    1.339705
 C    1.845183    0.067413    2.327100
 C   -1.314742   -1.293514   -0.414035
 C   -1.262100    1.455101   -0.426954
 C    3.490443    2.966492   -1.497085
 C    3.300508    1.526217   -1.959601
 C    2.735529    3.166323   -0.187769
 C   -3.790540   -2.717900   -0.173005
 C   -3.673619    2.968467   -0.009507
 C    1.810157    1.220290   -2.080278
 C    1.262840    2.799365   -0.367665
 C    3.126560   -1.880937    1.689203
 C    5.664490    0.959604    2.381691
 C    4.164811   -2.403771    0.685619
 C    6.031840    1.208377    1.140506
 C   -0.107779   -0.640630   -0.579282
 C   -0.072022    0.768387   -0.617598
 C   -4.893601   -0.611680    0.150005
 C   -4.859514    0.894875    0.196458
 C   -2.511777   -0.598623   -0.253462
 C   -2.480519    0.805063   -0.232339
 N    1.102399   -1.337942   -0.681120
 N    2.803011   -0.493691    1.393005
 N    1.158928    1.418443   -0.793633
 N   -3.718917   -1.264989   -0.101798
 N   -3.658984    1.513581   -0.035760
 O   -5.939495   -1.206799    0.318691
 O   -5.873325    1.527724    0.415747
 H    3.704169   -1.315004   -0.981709
 H    2.794279   -4.085457   -0.725488
 H    2.872095   -3.249074   -2.267667
 H   -2.445070   -3.107135    1.484170
 H   -4.156513   -3.034790    1.923038
 H   -3.521425   -4.447007    1.073591
 H   -3.897815    3.175741    2.117574
 H   -2.214395    3.179056    1.585437
 H   -3.232197    4.602431    1.319119
 H    0.907531   -0.482591    2.244010
 H    2.184021    0.017805    3.371091
 H    1.660766    1.105924    2.063622
 H   -1.296990   -2.367574   -0.410418
 H   -1.238733    2.529292   -0.451939
 H    3.098074    3.649330   -2.254215
 H    4.550676    3.188824   -1.364965
 H    3.751412    0.855780   -1.225193
 H    3.787008    1.362246   -2.922106
 H    2.811135    4.202916    0.144978
 H    3.169076    2.524786    0.581246
 H   -4.823830   -2.957944   -0.435821
 H   -3.131026   -3.071773   -0.966439
 H   -3.061187    3.351876   -0.827922
 H   -4.711616    3.262639   -0.183602
 H    1.652986    0.194682   -2.414359
 H    1.368007    1.890218   -2.837887
 H    0.812146    3.490522   -1.100709
 H    0.739255    2.913399    0.584326
 H    3.518931   -2.012146    2.711253
 H    2.203378   -2.463788    1.610634
 H    5.159809    1.696011    2.986811
 H    5.864472    0.013415    2.859348
 H    5.102154   -1.857012    0.827652
 H    4.355289   -3.460000    0.894248
 H    5.841978    2.159351    0.670325
 H    6.542914    0.476243    0.536307
 H    1.890378   -0.828524   -0.267714
 H    3.659951    0.057932    1.416379
