26 
5mxf_ligand_xtb.xyz
 C   -1.134563   -0.003416    0.659000
 C   -0.185891   -1.210326    0.588076
 C    0.756783   -1.029432   -0.608769
 C    1.494224    0.308960   -0.468638
 C    0.467941    1.444826   -0.329065
 C    1.147611    2.773107   -0.035131
 O   -1.979008   -0.101667   -0.464675
 O   -0.892891   -2.419531    0.492171
 O    1.713966   -2.063822   -0.644873
 O    2.347406    0.280534    0.644586
 O   -0.451251    1.204828    0.731400
 C   -3.063148    0.804938   -0.439198
 H   -1.735310   -0.044516    1.583109
 H    0.405817   -1.256610    1.507997
 H    0.159797   -1.028670   -1.534700
 H    2.081469    0.483330   -1.385916
 H   -0.089787    1.498008   -1.278047
 H    1.750980    2.665635    0.860355
 H    1.783132    3.055373   -0.868901
 H    0.396784    3.540000    0.129042
 H   -1.595140   -2.288887   -0.159649
 H    1.259847   -2.881000   -0.399398
 H    2.811796   -0.567124    0.609813
 H   -3.728239    0.585004    0.403014
 H   -2.709526    1.835498   -0.355070
 H   -3.595129    0.669278   -1.378173
