29 
5mxq_ligand_dft.xyz
 C   -1.986168    0.156264   -0.213763
 C   -1.148384   -0.966076   -0.150009
 C   -1.314251   -1.832513    0.938712
 C   -3.065865   -0.401852    1.736789
 C   -1.907008    1.177798   -1.317479
 O   -1.144735    1.099166   -2.260083
 N   -0.194739   -1.223044   -1.147498
 C    1.774079    0.138274    0.150091
 O   -2.746747    2.191320   -1.170203
 N   -2.923130    0.418835    0.705050
 C   -2.274729   -1.540708    1.890799
 S    1.433285   -1.376927   -0.725119
 O    1.546952   -2.473643    0.220225
 O    2.135979   -1.372138   -1.991245
 C    1.951642    0.105493    1.528824
 C    2.157360    1.303390    2.207479
 C    2.173183    2.507019    1.508697
 C    1.988954    2.523698    0.126726
 C    1.788975    1.335046   -0.564156
 H   -0.687138   -2.713020    1.014156
 H   -3.833065   -0.144997    2.461185
 H   -0.284889   -0.578031   -1.937407
 H   -3.252210    2.011111   -0.347987
 H   -2.423172   -2.195928    2.742259
 H    1.936015   -0.845295    2.050138
 H    2.304638    1.294198    3.282741
 H    2.330174    3.439287    2.042537
 H    2.001617    3.463748   -0.415075
 H    1.642234    1.336577   -1.639326
