26 
5mxr_ligand_xtb.xyz
 C    1.248408    0.546841    0.172755
 C    2.251827   -0.388003   -0.023786
 N    3.047121   -0.151003   -1.105315
 C    2.688044    0.907252   -1.727447
 C    2.426036   -1.570794    0.816132
 O   -0.979262    2.427272    0.226942
 C   -1.980743   -0.011418    0.009936
 C   -2.008496    0.129181   -1.363266
 O    1.693783   -1.821708    1.749525
 O    3.437048   -2.364513    0.462240
 S    1.312500    1.757759   -1.052063
 N    0.357236    0.548609    1.192636
 S   -1.178820    1.238481    0.997614
 O   -1.759722    1.314274    2.295160
 C   -2.481668   -1.133094    0.640943
 C   -3.032662   -2.143566   -0.129630
 C   -3.065733   -2.019018   -1.510639
 C   -2.558922   -0.886337   -2.128784
 H    3.179929    1.267575   -2.608230
 H   -1.613998    1.029733   -1.807034
 H    3.895113   -1.983876   -0.306747
 H    0.476025   -0.244219    1.824503
 H   -2.442299   -1.191721    1.716816
 H   -3.431880   -3.026386    0.345109
 H   -3.492033   -2.809802   -2.109289
 H   -2.591543   -0.793255   -3.203406
