44 
5myg_ligand_dft.xyz
 C    2.259213   -0.895394   -0.208462
 C   -2.476070    1.735998    0.795061
 C   -3.752326    1.980465    0.281110
 C    3.340605   -1.183201    0.698116
 C   -4.527944    0.951349   -0.251273
 C   -4.001863   -0.333609   -0.276273
 C    4.472483    0.881751    0.038280
 C    3.489689    2.346830   -1.638243
 C   -2.729595   -0.593071    0.220045
 C   -1.951815    0.442120    0.778756
 C   -4.264027    3.324521    0.306141
 C    2.320011    0.285572   -0.978184
 C    4.394540   -0.354593    0.834110
 N   -4.670794    4.409297    0.322610
 O   -0.745939    0.124710    1.263737
 C    0.120708    1.157973    1.692569
 S   -2.131571   -2.283041    0.071875
 O   -1.414142   -2.643372    1.274345
 O   -3.246448   -3.070421   -0.425187
 N   -1.042647   -2.266559   -1.206680
 C    0.104733   -1.425142   -1.165018
 C    1.156090   -1.746236   -0.325290
 C    1.263265    0.583270   -1.853643
 C    0.165197   -0.255877   -1.929620
 C    5.541771   -0.600943    1.765229
 O    5.411447    1.660283    0.136684
 N    3.414121    1.130015   -0.842466
 H   -1.908249    2.559269    1.209376
 H    3.283513   -2.097026    1.285495
 H   -5.519939    1.154074   -0.637043
 H   -4.577601   -1.158635   -0.680688
 H    4.422520    2.843892   -1.380841
 H    3.484207    2.107414   -2.705955
 H    2.648470    3.009438   -1.410355
 H    0.313729    1.868913    0.880576
 H   -0.286503    1.681909    2.564991
 H    1.051268    0.661754    1.966076
 H   -1.554705   -2.266424   -2.082896
 H    1.102302   -2.648594    0.274248
 H    1.283275    1.476838   -2.464685
 H   -0.662857    0.004814   -2.583271
 H    5.405469   -1.534040    2.318230
 H    6.483391   -0.649423    1.209045
 H    5.644743    0.224922    2.476354
