60 
5mym_ligand_dft.xyz
 C   -2.719697    1.898803   -0.950195
 C    0.022385   -0.736905   -0.523006
 C    1.464293   -1.600606    1.365813
 C    3.660200   -1.066401    0.552789
 C    5.801605   -0.017781    0.490770
 C    7.966937    0.019032   -0.715815
 C    8.862504    1.789514    0.352001
 C    1.177041   -1.049034   -1.482326
 C   -9.074334   -1.401807    0.508300
 C   -8.808548   -0.370306    1.406170
 C   -7.844323    0.585106    1.104699
 C   -7.128068    0.530159   -0.094668
 C   -7.406079   -0.506786   -0.986509
 C   -8.370835   -1.466492   -0.690117
 C   -6.051298    1.549051   -0.383074
 C   -4.773384    1.324185    0.445121
 C   -3.693248    2.378551    0.120313
 N   -2.009747    0.702139   -0.490519
 C   -0.785594    0.453497   -1.044689
 C    0.564807   -0.456751    0.892833
 N    2.547536   -1.850272    0.414283
 N    3.881709   -0.281792    1.567548
 N    5.120236    0.300685    1.535980
 N    7.061881    0.495651    0.215947
 C    9.085388    0.800357   -0.653796
 C    7.616429    1.580715    0.870480
 S    4.988399   -1.116087   -0.608725
 C    2.052990   -2.171190   -0.923240
 O   -0.326383    1.185396   -1.913397
 C   -2.702854   -0.142307    0.479146
 C   -4.207286   -0.092467    0.226610
 H   -1.973922    2.661514   -1.178460
 H   -3.248723    1.684489   -1.889982
 H   -0.621509   -1.626786   -0.472485
 H    0.887756   -2.530925    1.446426
 H    1.903576   -1.379024    2.338485
 H    7.736836   -0.842535   -1.325460
 H    9.546046    2.570034    0.654385
 H    1.776211   -0.145055   -1.630733
 H    0.786453   -1.332300   -2.465038
 H   -9.828587   -2.147645    0.740648
 H   -9.357108   -0.308100    2.341597
 H   -7.645260    1.390828    1.808211
 H   -6.862534   -0.561259   -1.926949
 H   -8.573978   -2.263983   -1.399016
 H   -6.431361    2.557110   -0.174438
 H   -5.791965    1.524811   -1.450025
 H   -5.042283    1.425310    1.504572
 H   -4.158479    3.312642   -0.213893
 H   -3.121025    2.621980    1.023254
 H   -0.251936   -0.320127    1.609054
 H    1.147715    0.471706    0.882930
 H    9.971969    0.678745   -1.259643
 H    7.053221    2.087229    1.638080
 H    2.896917   -2.381534   -1.586724
 H    1.480265   -3.103238   -0.838996
 H   -2.488630    0.184684    1.507703
 H   -2.350481   -1.171396    0.389665
 H   -4.390598   -0.414956   -0.806686
 H   -4.717399   -0.813708    0.871977
