28 
5myn_ligand_dft.xyz
 C    0.256080    0.188060    0.031121
 N   -0.818691    1.047244    0.139827
 C   -2.162553    0.749733    0.098740
 C   -4.449528    1.446931    0.175234
 C   -3.798029   -0.841872   -0.096596
 C    6.111345   -0.648515    0.437008
 C    6.492446    0.612032   -0.008746
 C    5.492101    1.489255   -0.416939
 N    4.193867    1.191446   -0.418596
 C    3.832811   -0.026225    0.003546
 C    4.762057   -0.972342    0.450940
 C    2.387376   -0.345847   -0.026895
 C    1.864401   -1.595198   -0.177032
 S    0.133946   -1.541960   -0.175822
 N    1.461451    0.666666    0.089742
 C   -3.111763    1.781208    0.219195
 C   -4.801805    0.105822    0.013915
 N   -2.502409   -0.526977   -0.055065
Cl   -6.475880   -0.373452   -0.047704
 H   -0.536037    2.010984    0.248488
 H   -5.215845    2.209421    0.264131
 H   -4.038398   -1.893757   -0.223328
 H    6.851854   -1.364887    0.780303
 H    7.534208    0.913945   -0.033563
 H    5.747454    2.488250   -0.765186
 H    4.426623   -1.934894    0.822951
 H    2.387725   -2.529155   -0.325318
 H   -2.799906    2.813244    0.343343
