35 
5mys_ligand_xtb.xyz
 C    1.369917   -0.318752   -1.238758
 C   -4.501347    0.148979    0.133350
 C   -6.731643    0.379094    0.962308
 C   -2.633486   -1.210203    1.156333
 C    6.455477   -0.058640   -0.051907
 C    5.448745   -0.960021   -0.326779
 C    4.116409   -0.639122   -0.061777
 C    3.808915    0.599202    0.487544
 C    4.842932    1.480447    0.749806
 C    6.165297    1.181730    0.495076
 F    4.529788    2.680298    1.285701
 O    3.208466   -1.615922   -0.340925
 C    1.844046   -1.333586   -0.204645
 N    0.043688    0.040040   -1.195444
 C   -1.017951   -0.330613   -0.417335
 N   -2.184169    0.160410   -0.621359
 C   -3.119169   -0.311780    0.247128
 C   -5.440639   -0.083639    1.141362
 C   -7.047248    1.057155   -0.205050
 C   -6.039935    1.241360   -1.142211
 N   -4.808727    0.803317   -0.982642
 S   -0.950335   -1.479907    0.924779
 O    2.095002    0.165821   -2.070264
 H   -7.480408    0.215501    1.724049
 H   -3.146678   -1.740087    1.931722
 H    7.480114   -0.320278   -0.265858
 H    5.664129   -1.925501   -0.754501
 H    2.800586    0.912953    0.703468
 H    6.935576    1.902337    0.715391
 H    1.333137   -2.286846   -0.375161
 H    1.603815   -0.984956    0.810006
 H   -0.223565    0.711178   -1.911975
 H   -5.163863   -0.603239    2.044868
 H   -8.042659    1.433494   -0.380890
 H   -6.228126    1.766071   -2.069936
