31 
5mzg_ligand_xtb.xyz
 C   -1.176659    0.093917    0.449135
 C   -4.145778   -2.935710    0.318319
 N   -2.369951    3.682401   -0.923609
 C   -1.968604    2.454319   -0.510124
 N   -0.660473    2.275492   -0.347620
 C   -0.273495    1.085265    0.117325
 C    1.182092    0.915807    0.296126
 C    1.901638    1.953214    0.882603
 C    3.263196    1.848416    1.089479
 C    3.937321    0.703112    0.703407
 C    3.239827   -0.327907    0.095258
Cl    4.090440   -1.740533   -0.412359
 C    1.867066   -0.227897   -0.112595
Cl    1.056499   -1.507438   -0.937814
 C   -2.533064    0.379369    0.215686
 N   -3.518130   -0.511624    0.471985
 C   -3.305856   -1.846894    0.910088
 C   -2.693448   -2.845864   -0.035106
 N   -2.923177    1.556309   -0.274145
 H   -0.869003   -0.846455    0.867940
 H   -4.866205   -2.657099   -0.435948
 H   -4.475370   -3.736006    0.962432
 H   -1.664115    4.287119   -1.304573
 H   -3.315627    3.772522   -1.249647
 H    1.361804    2.842290    1.167165
 H    3.806370    2.658626    1.550486
 H    5.000023    0.603751    0.857295
 H   -4.450525   -0.212747    0.230966
 H   -3.042415   -1.929369    1.962297
 H   -2.433578   -2.498582   -1.023004
 H   -2.012625   -3.581493    0.363633
