43 
5n17_ligand_xtb.xyz
 O    4.816807    1.757841    0.282464
 C    3.761949    1.161562    0.171836
 C    3.752703   -0.271952   -0.240310
 C    4.578634   -0.634030   -1.300846
 C    4.716219   -1.958628   -1.670086
 C    4.051456   -2.947540   -0.962509
 C    3.235192   -2.605548    0.099975
 C    3.082986   -1.274107    0.452088
 S    1.995149   -0.857241    1.802100
 C    0.870813    0.077995    0.779771
 C   -0.418357   -0.390923    0.615504
 C   -1.330037    0.307154   -0.171735
 C   -0.918285    1.478438   -0.803572
 C    0.371848    1.936959   -0.633807
 C    1.292942    1.252566    0.157668
 N    2.570914    1.795704    0.373629
 C    2.636916    3.214369    0.677914
 N   -2.619480   -0.202079   -0.290908
 C   -3.667986    0.273780   -1.002384
 O   -3.679166    1.275236   -1.684049
 C   -4.913211   -0.626177   -0.873515
 C   -6.150655    0.218984   -0.561304
 C   -6.147342    0.198232    0.965201
 C   -5.653926   -1.218877    1.249701
 O   -4.774874   -1.564903    0.184089
 H    5.118159    0.143725   -1.820023
 H    5.353851   -2.221731   -2.500398
 H    4.168990   -3.985315   -1.235963
 H    2.714842   -3.362569    0.666454
 H   -0.712506   -1.300031    1.118330
 H   -1.613370    2.020884   -1.422136
 H    0.676014    2.846355   -1.127481
 H    1.747101    3.506858    1.231353
 H    3.526780    3.386239    1.282501
 H    2.722752    3.815443   -0.230381
 H   -2.823389   -1.054262    0.224355
 H   -5.009641   -1.174790   -1.818578
 H   -6.056581    1.216103   -0.984770
 H   -7.049344   -0.258261   -0.951864
 H   -5.437683    0.932438    1.349317
 H   -7.125786    0.388027    1.398542
 H   -5.107015   -1.306570    2.191776
 H   -6.488890   -1.931003    1.258752
