44 
5n18_ligand_xtb.xyz
 C    0.463078    2.552834    0.043560
 C    0.188579    3.919420    0.260382
 C   -2.061288    3.497753   -0.532528
 C   -1.071984    4.369714   -0.027292
 C    1.319003    0.590939   -0.095900
 C    2.344168   -0.434205   -0.003037
 C    3.687031   -0.052051    0.027111
 C    4.689909   -0.991984    0.103794
 C    2.034122   -1.790410    0.071576
 C    3.037887   -2.736957    0.150358
 C   -1.855536   -1.152097   -0.512567
 C   -2.475722   -2.216190   -1.166092
 C   -2.434618   -0.655317    0.655540
 C   -3.612593   -1.196020    1.129531
 C   -4.245653   -2.244390    0.471949
 C   -5.526537   -2.812583    1.005084
 O    5.389191   -3.248762    0.227011
 C    4.371459   -2.346779    0.159059
 C   -0.002784    0.463545   -0.511925
 N   -0.700133   -0.609003   -1.049666
 C   -3.651714   -2.749052   -0.677286
 N    1.580432    1.882352    0.231636
 N   -0.546807    1.717866   -0.437635
 C   -1.787580    2.182600   -0.735001
 C    1.281117    4.792117    0.782134
 H   -3.042514    3.878612   -0.764371
 H   -1.320279    5.408620    0.126890
 H    3.918146    1.000408   -0.010384
 H    5.728997   -0.703967    0.122406
 H    1.004961   -2.115334    0.099659
 H    2.785406   -3.788352    0.211860
 H   -2.026660   -2.621356   -2.062483
 H   -1.953107    0.143842    1.199189
 H   -4.047824   -0.797654    2.035018
 H   -5.371886   -3.236781    1.996945
 H   -6.282881   -2.033295    1.091938
 H   -5.906848   -3.593295    0.351202
 H    5.030328   -4.143017    0.273104
 H   -0.188300   -1.191224   -1.695965
 H   -4.115676   -3.572414   -1.201875
 H   -2.499573    1.472746   -1.125276
 H    1.664184    4.385085    1.715650
 H    2.108595    4.807739    0.075219
 H    0.924914    5.805901    0.944131
