31 
5n1s_ligand_xtb.xyz
 S   -6.000246    0.856121   16.734641
 O   -5.144917    0.052624   17.559032
 O   -7.277689    1.272306   17.236563
 N   -6.264706    0.022808   15.290621
 C   -5.103983    2.268042   16.134876
 C   -5.804789    3.384076   15.725010
 C   -5.116166    4.471958   15.224543
 C   -3.719824    4.449184   15.130181
 C   -3.036168    3.303971   15.555229
 C   -3.725993    2.217339   16.054058
 C   -0.462870    8.948600   12.828002
 C   -1.606547    9.677639   13.173081
 C   -0.375297    7.597038   13.065126
 C   -1.460955    6.954019   13.664745
 C   -1.719297    5.617754   14.058426
 C   -2.614228    7.705186   14.003597
 C   -2.693932    9.071326   13.762904
 N   -3.519259    6.847655   14.551833
 C   -2.983418    5.580103   14.600704
 H   -5.786173   -0.863174   15.281171
 H   -7.247637   -0.090422   15.103360
 H   -6.879345    3.384207   15.813720
 H   -5.670310    5.333972   14.884071
 H   -1.959423    3.281890   15.502814
 H   -3.217664    1.331900   16.400483
 H    0.364441    9.466685   12.365935
 H   -1.633734   10.737910   12.970302
 H    0.509362    7.038959   12.797596
 H   -1.056669    4.786043   13.926936
 H   -3.576573    9.634412   14.028326
 H   -4.407990    7.113869   14.939112
