63 
5n1v_ligand_dft.xyz
 C    1.700252   -1.880499    0.058412
 C    1.698045   -0.653937   -0.609442
 C    2.878565    0.052402   -0.770521
 N    0.486506   -2.594146    0.252352
 C    6.376933   -1.193155    1.150790
 C    6.448120   -0.029759    0.176077
 C    2.088414    2.309642   -0.891125
 C    0.790322    2.482601   -1.687103
 C    0.242880    3.913554   -1.609966
 C   -0.272324    4.328227   -0.236633
 C   -1.814685    3.429650    1.340265
 C   -3.320237    3.282469    1.516619
 C   -3.644241    1.895783    0.938426
 C   -1.308077    2.022924    1.658972
 C   -0.707658   -1.974088    0.427338
 C   -3.069864   -2.085475    0.051577
 C   -3.922143   -3.090258   -0.428223
 C   -3.075501   -4.188466   -0.701531
 C   -4.060140    1.908629   -0.555837
 N   -6.473811   -2.926120   -0.739731
 C   -5.323933   -2.997954   -0.599030
 N   -1.803970   -3.945178   -0.434971
 N   -1.819341   -2.664722    0.033449
 C   -0.913381   -0.717463    0.939989
 N   -3.278646   -0.815305    0.415470
 C   -2.212547   -0.135098    0.856313
 N   -2.386480    1.163536    1.187707
 O   -5.109865    1.026741   -0.836187
 O   -1.537741    3.736041   -0.011358
 O    2.936800    1.269560   -1.387528
 C    4.088653   -0.500570   -0.332207
 N    5.278499    0.207939   -0.512216
 O    7.428775    0.670365    0.025735
 C    5.447285   -2.312101    0.672515
 C    4.102228   -1.757342    0.277726
 C    2.901361   -2.426954    0.498623
 H    0.777839   -0.244621   -1.006163
 H    0.419800   -3.542361   -0.099911
 H    6.013819   -0.788485    2.105093
 H    7.395537   -1.549861    1.313444
 H    2.688242    3.222496   -0.975649
 H    1.896330    2.132882    0.174981
 H    1.009786    2.239222   -2.732021
 H    0.019030    1.780338   -1.346646
 H   -0.578827    4.030915   -2.324118
 H    1.028049    4.618028   -1.913986
 H   -0.370877    5.421811   -0.178665
 H    0.441295    4.027451    0.546316
 H   -1.386323    4.187985    2.007649
 H   -3.867489    4.087704    1.023566
 H   -3.553578    3.311379    2.586361
 H   -4.461772    1.420402    1.489934
 H   -1.126543    1.881212    2.733405
 H   -0.372095    1.833195    1.123678
 H   -3.366804   -5.154563   -1.090262
 H   -4.423200    2.906143   -0.819896
 H   -3.165651    1.717832   -1.169852
 H   -0.063944   -0.169411    1.314702
 H   -4.809857    0.153407   -0.534585
 H    5.246961    1.042292   -1.082685
 H    5.339533   -3.075235    1.449139
 H    5.896761   -2.807006   -0.199446
 H    2.900976   -3.383425    1.013735
