28 
5n24_ligand_dft.xyz
 C   -0.423290   -0.017316    0.041196
 C    0.287344   -1.145658   -0.383063
 C    1.675625   -1.160894   -0.362795
 C   -2.605152    1.127580   -0.410041
 C   -3.991698    1.143566   -0.435046
 C   -4.706305    0.012643   -0.027369
 C   -4.021486   -1.128057    0.403546
 C   -2.634733   -1.132070    0.423803
 C    2.357988   -0.034603    0.083701
 C    1.676056    1.095779    0.521063
 C    0.287967    1.099225    0.495440
 S    4.139008   -0.041817    0.100682
 O    4.570950   -1.429979    0.133634
 O    4.572674    0.934692    1.087203
 N    4.544866    0.568603   -1.406314
 C   -1.906988   -0.007431    0.018141
 N   -7.301531    0.031187   -0.071002
 C   -6.142632    0.022833   -0.051282
 H   -0.251058   -2.014265   -0.750079
 H    2.227384   -2.038765   -0.681074
 H   -2.055097    1.999896   -0.749665
 H   -4.525661    2.024177   -0.775718
 H   -4.578719   -2.000638    0.727168
 H   -2.108897   -2.011648    0.782408
 H    2.227871    1.949973    0.898294
 H   -0.251089    1.967838    0.861494
 H    5.049921   -0.127244   -1.945801
 H    5.072699    1.429938   -1.307180
