66 
5n2d_ligand_xtb.xyz
 O   -3.704162    0.793315   -2.024065
 C    3.648179    0.206160   -0.564244
 C    5.022707    0.400156   -0.402099
 C    5.898659   -0.630617    0.191594
 C    6.667420   -0.330635    1.311699
 C    7.517583   -1.277882    1.852928
 C    7.619434   -2.532151    1.274855
 C    6.866773   -2.835429    0.152647
 C    6.009710   -1.892491   -0.384996
 C    5.608224    1.593723   -0.814356
 O   -5.061677   -1.768689   -1.172632
 C    4.851864    2.585948   -1.405448
 C    3.496410    2.387791   -1.593256
 C    2.894206    1.208356   -1.179133
 C    1.413449    1.031598   -1.398276
 C   -0.593013    1.231800   -0.110750
 C   -1.421973    0.966289   -1.198865
 C   -2.799494    1.033703   -1.041214
 O   -3.145100    1.861440    2.477637
 C   -3.244317    0.489637   -3.323292
 C   -3.358543    1.358482    0.201331
 N   -4.451590   -2.758451    0.755477
 C   -4.843337    1.501201    0.317134
 C   -4.830231   -2.793618   -0.536244
 C   -4.977506   -4.161298   -1.128958
 C   -4.043939   -1.546482    1.450821
 C   -5.190858   -0.560062    1.690464
 N   -5.528768    0.183253    0.453296
 C   -2.515845    1.594800    1.297673
 C   -2.361161    2.287563    3.575250
 C   -1.145112    1.529814    1.139669
 O    0.746755    1.212136   -0.150426
 C    2.975401   -1.038416   -0.062363
 H    6.585846    0.647894    1.762808
 H    8.105896   -1.035490    2.725549
 H    8.287212   -3.269498    1.694352
 H    6.950692   -3.808997   -0.307715
 H    5.435587   -2.124410   -1.270446
 H    6.670863    1.729179   -0.677408
 H    5.314974    3.507204   -1.723586
 H    2.899892    3.156065   -2.063475
 H    1.198137    0.028930   -1.791478
 H    1.055598    1.780706   -2.115115
 H   -0.998836    0.724511   -2.157610
 H   -2.651362    1.307351   -3.740584
 H   -2.659681   -0.434064   -3.332043
 H   -4.141845    0.349847   -3.922056
 H   -4.279126   -3.635860    1.220174
 H   -5.228091    1.966952   -0.591885
 H   -5.086286    2.115679    1.185528
 H   -5.336962   -4.076342   -2.150437
 H   -4.019082   -4.676669   -1.130235
 H   -5.683264   -4.752047   -0.548895
 H   -3.258606   -1.040189    0.879081
 H   -3.630610   -1.843869    2.413650
 H   -4.884089    0.155783    2.455510
 H   -6.070408   -1.103656    2.040731
 H   -5.257193   -0.474719   -0.378924
 H   -6.535662    0.341411    0.397789
 H   -1.699546    1.490778    3.924734
 H   -1.770534    3.170019    3.321555
 H   -3.070492    2.540254    4.361270
 H   -0.461197    1.718661    1.948359
 H    2.709197   -1.694239   -0.892578
 H    3.631308   -1.587537    0.607008
 H    2.065518   -0.780512    0.475443
