61 
5n2f_ligand_dft.xyz
 F   35.302132   10.803846  136.321705
 C   34.213013   10.098844  135.989276
 C   33.990791    8.859668  136.552419
 C   32.859037    8.109975  136.213190
 C   32.570309    6.754252  136.823503
 N   31.396247    6.702637  137.696408
 C   31.471349    7.574791  138.855076
 C   32.055184    6.877877  140.080689
 O   32.716031    7.475611  140.895910
 C   31.669277    5.413879  140.270770
 C   32.410408    4.504820  139.321617
 O   33.548920    4.667479  138.948075
 O   31.682156    3.428763  138.981676
 C   33.320824   10.658412  135.064492
 C   32.185139    9.928745  134.718091
 C   31.988419    8.683902  135.300495
 F   30.875815    7.998742  134.953194
 O   33.647667   11.875549  134.589000
 C   32.800903   12.468184  133.626695
 C   33.370733   13.804783  133.215158
 C   32.624343   14.618883  132.345689
 C   31.293802   14.124347  131.826466
 C   33.151682   15.864915  131.964940
 C   34.412872   16.251954  132.431198
 C   35.142591   15.433782  133.279894
 C   34.618214   14.210105  133.679492
 C   32.413146   16.808023  131.078558
 C   32.995252   17.247033  129.889532
 C   32.341171   18.156737  129.066009
 C   31.086730   18.657281  129.437005
 C   30.497311   18.218526  130.618225
 C   31.151373   17.302291  131.429706
 O   32.956741   18.538343  127.907146
 C   32.085579   19.171205  126.985658
 C   31.229793   20.200520  127.700369
 O   30.413435   19.565354  128.669414
 H   34.712141    8.473175  137.265837
 H   32.414424    6.014332  136.031945
 H   33.437595    6.420830  137.400364
 H   30.567748    6.905306  137.149935
 H   32.036512    8.503430  138.692599
 H   30.452302    7.866724  139.143093
 H   31.938413    5.128510  141.292373
 H   30.593575    5.277280  140.130688
 H   32.248510    2.890442  138.405624
 H   31.453120   10.298633  134.011483
 H   31.791674   12.592670  134.046717
 H   32.713576   11.800915  132.755290
 H   31.363157   13.087382  131.477900
 H   30.520103   14.151715  132.604944
 H   30.938798   14.728425  130.990567
 H   34.806965   17.218916  132.131519
 H   36.116476   15.751041  133.640106
 H   35.170685   13.564669  134.352268
 H   33.964618   16.873293  129.574323
 H   29.527231   18.622115  130.889622
 H   30.689143   16.981090  132.358199
 H   31.442010   18.422326  126.504662
 H   32.719564   19.638411  126.229165
 H   31.873365   20.946947  128.185074
 H   30.553906   20.705365  127.006963
