66 
5n31_ligand_xtb.xyz
 C    5.471988   -2.083603    1.459008
 C    5.956800   -1.049703    2.468633
 C    2.314856   -1.402919   -1.579807
 C   -2.921639   -0.556874   -2.472585
 C   -3.912031   -0.883466   -0.320423
 C   -4.194911   -1.508304    1.906466
 C   -2.786529   -1.116698    2.279753
 C   -0.160600   -0.363838    2.795444
 C   -1.208553    0.457107    3.177721
 C   -2.515858    0.087476    2.913421
 O   -1.128506   -1.874402   -1.058420
 P   -1.168877   -0.469359   -1.829717
 N   -1.064007    0.680038   -0.616442
 C   -0.299487    1.897376   -0.854453
 C   -0.405309    2.776610    0.396910
 C    0.498173    4.014763    0.389950
 C    0.199779    4.926624   -0.796764
 C    0.317178    4.771669    1.704861
 C    1.154618    1.518883   -1.128412
 N    1.585634    0.489412   -0.354367
 C    2.780482   -0.256308   -0.688657
 O    2.785607   -1.335927   -2.803428
 O    1.550946   -2.264573   -1.199340
 O    1.867360    2.127637   -1.890950
 O   -0.123369   -0.336520   -2.850596
 N   -3.758760   -1.336300   -1.592251
 O   -4.259950   -1.870154    0.523003
 C   -1.732808   -1.947056    1.918032
 C   -0.425957   -1.568938    2.166774
 O   -3.783907    0.274497    0.006591
 C    3.475175   -0.772451    0.570971
 C    4.796544   -1.461352    0.236208
 H    6.327839   -2.670463    1.118549
 H    4.775086   -2.769441    1.945832
 H    6.621748   -0.334464    1.990074
 H    5.123489   -0.507032    2.906568
 H    6.501460   -1.537741    3.273485
 H   -2.904112   -1.014047   -3.461144
 H   -3.326829    0.454119   -2.555661
 H   -4.520594   -2.404627    2.439868
 H   -4.888036   -0.684495    2.105063
 H    0.859647   -0.064801    2.988884
 H   -1.008516    1.395138    3.674668
 H   -3.328934    0.742045    3.189619
 H   -0.212433   -2.199878   -1.043696
 H   -1.933039    0.840899   -0.119925
 H   -0.655589    2.446049   -1.733857
 H   -0.155184    2.155136    1.259955
 H   -1.447180    3.090883    0.503365
 H    1.539316    3.686057    0.315514
 H    0.757810    5.855350   -0.703957
 H   -0.860878    5.165996   -0.840016
 H    0.496253    4.447291   -1.724902
 H    0.543046    4.130728    2.554277
 H    0.978672    5.633476    1.741856
 H   -0.708071    5.122571    1.801786
 H    0.872458   -0.016742    0.156754
 H    3.427342    0.406372   -1.270560
 H    2.342058   -1.963039   -3.398772
 H   -3.677092   -2.339311   -1.674434
 H   -1.940660   -2.882888    1.421288
 H    0.382918   -2.219195    1.866925
 H    2.809653   -1.479809    1.071220
 H    3.645443    0.074161    1.235756
 H    5.473812   -0.739194   -0.223865
 H    4.605294   -2.249226   -0.496524
