45 
5n49_ligand_xtb.xyz
 C   -0.330568   -0.343498    2.793528
 C   -1.252773   -0.198292    1.621091
 C   -2.632162   -0.218531    1.794241
 C   -3.439399   -0.082493    0.682374
 N   -4.807277   -0.066322    0.540307
 C   -5.785972   -0.191315    1.583297
 C   -5.132747    0.094505   -0.792306
 O   -6.248020    0.148890   -1.261585
 N   -3.942078    0.179920   -1.484195
 C   -3.861153    0.350925   -2.907307
 C   -2.890686    0.074038   -0.603586
 C   -1.524501    0.097182   -0.791217
 C   -0.728361   -0.041302    0.336968
 N    0.699237   -0.020026    0.164306
 C    1.315330   -1.245109   -0.036267
 O    0.665543   -2.269003   -0.062671
 C    2.778454   -1.209471   -0.207535
 C    3.466559    0.020699   -0.160897
 C    3.472766   -2.383117   -0.412223
 C    4.861253   -2.364364   -0.575025
 C    5.549583   -1.179856   -0.532891
 C    4.874821    0.041404   -0.325334
 C    5.543623    1.282409   -0.274969
 C    4.849416    2.446726   -0.072269
 C    3.460788    2.424741    0.088836
 C    2.772366    1.230733    0.046416
 C    1.309078    1.223274    0.220079
 O    0.654094    2.227416    0.404507
 H   -0.896241   -0.447741    3.715143
 H    0.301262   -1.223319    2.671802
 H    0.316157    0.529724    2.878784
 H   -3.055762   -0.338425    2.778944
 H   -5.699644    0.633520    2.293807
 H   -6.766953   -0.162291    1.110310
 H   -5.663533   -1.137940    2.113273
 H   -3.333000   -0.487928   -3.365389
 H   -4.881715    0.390066   -3.286720
 H   -3.344077    1.280643   -3.153836
 H   -1.080326    0.217233   -1.766278
 H    2.922913   -3.311703   -0.444051
 H    5.387759   -3.293234   -0.734688
 H    6.622565   -1.164320   -0.658825
 H    6.616755    1.298375   -0.399784
 H    5.371329    3.390996   -0.035762
 H    2.906114    3.337212    0.248324
