68 
5n69_ligand_xtb.xyz
 C    2.688920    1.374319   -0.047387
 C    0.675827    3.532803   -0.350810
 C   -4.508281   -0.164525   -1.175041
 C   -5.841226   -0.065608    0.786885
 C   -5.717781   -1.541565    0.762187
 C    1.822438    1.506625   -1.310058
 C    3.959236   -0.217494    2.024157
 C    0.358709   -2.790729   -1.868019
 O    1.543565   -2.634641   -1.090850
 C    1.513703   -1.864129   -0.027065
 O    0.522439   -1.237093    0.363067
 N    2.714413   -1.770471    0.590583
 C    3.916194   -2.391187    0.065738
 C    5.125879   -1.464094    0.320876
 N    4.677943   -0.101156    0.725673
 C    3.971939    0.604958   -0.404804
 C    2.927548    2.788364    0.496173
 C    1.595196    3.440481    0.866162
 C    0.473852    2.177759   -1.025544
 N   -0.386357    1.273884   -0.186101
 C   -1.809681    1.141849   -0.807465
 O   -2.604735    1.992002   -0.522302
 N   -2.378254   -0.426362    0.103052
 C   -3.512043   -1.144478   -0.524392
 N   -5.225298    0.565364   -0.159323
 C   -6.627177    0.627891    1.804309
 C   -4.269596   -2.013988    0.502533
 F    1.561299    0.248573   -1.825972
 C    2.847671   -1.285904    1.946159
 H    2.111235    0.795710    0.676229
 H   -0.292932    3.950576   -0.073959
 H    1.116319    4.213433   -1.079966
 H   -5.214786   -0.760318   -1.763897
 H   -4.020600    0.541571   -1.841644
 H   -6.354189   -1.902549   -0.055020
 H   -6.097332   -1.991536    1.678772
 H    2.350368    2.057499   -2.095622
 H    3.571814    0.757633    2.317007
 H    4.691252   -0.511586    2.779272
 H   -0.466659   -3.127142   -1.238716
 H    0.109735   -1.852392   -2.365474
 H    0.595371   -3.551588   -2.607163
 H    3.773643   -2.577387   -0.998915
 H    4.089802   -3.359536    0.546684
 H    5.744389   -1.392201   -0.575300
 H    5.749128   -1.864002    1.123179
 H    5.523553    0.441427    0.924943
 H    4.681515    1.296375   -0.864502
 H    3.715692   -0.148239   -1.150939
 H    3.574686    2.768928    1.372962
 H    3.425394    3.392555   -0.263203
 H    1.779180    4.445906    1.241268
 H    1.123871    2.880302    1.678974
 H   -0.044561    2.316409   -1.980337
 H    0.046171    0.321822   -0.071723
 H   -0.498110    1.707732    0.737373
 H   -1.677767    0.667027   -1.788193
 H   -5.231064    1.580858   -0.219967
 H   -2.666861   -0.048996    1.005873
 H   -1.584072   -1.056131    0.246576
 H   -3.092975   -1.761772   -1.322394
 H   -7.670579    0.306581    1.730176
 H   -6.316942    0.338214    2.809497
 H   -6.590198    1.710097    1.705529
 H   -4.310455   -3.048218    0.164804
 H   -3.732525   -2.013350    1.452720
 H    1.885308   -0.890783    2.275268
 H    3.097234   -2.129124    2.599508
