49 
5n84_ligand_xtb.xyz
 O    5.469459   -1.989669    0.325742
 C    5.143292   -0.824807    0.195907
 N    6.041224    0.191905    0.181230
 C    7.444563   -0.020843    0.303451
 C    8.395321    0.889509   -0.411931
 C    8.280164    0.945807    1.085716
 C    3.719811   -0.404190    0.053281
 C    3.322413    0.705314   -0.688999
 C    1.984923    1.022600   -0.807163
 C    1.007306    0.243562   -0.185168
 C    1.409604   -0.863468    0.563878
 C    2.746397   -1.186403    0.668486
 C   -0.387864    0.623993   -0.303424
 N   -1.445777   -0.234589   -0.424142
 C   -1.548472   -1.591540   -0.570903
 C   -2.796327   -2.120951   -0.684675
 N   -3.938716   -1.409375   -0.670552
 C   -3.848740   -0.096450   -0.579184
 C   -2.582084    0.544458   -0.457165
 N   -2.292457    1.834314   -0.354334
 C   -0.955884    1.890524   -0.271280
 N   -4.947201    0.677904   -0.640593
 C   -6.281568    0.143360   -0.566642
 C   -6.788026   -0.014185    0.876889
 C   -6.844931    1.336016    1.587297
 C   -8.162832   -0.675164    0.867461
 H    5.719868    1.145947    0.141820
 H    7.661412   -1.079255    0.360959
 H    7.982463    1.709075   -0.981128
 H    9.284912    0.463567   -0.847975
 H    9.090835    0.558464    1.682060
 H    7.790408    1.803140    1.522996
 H    4.052354    1.307749   -1.211460
 H    1.681008    1.873463   -1.398556
 H    0.675770   -1.457253    1.088718
 H    3.063401   -2.048353    1.235874
 H   -0.643036   -2.171894   -0.609634
 H   -2.928131   -3.187375   -0.793332
 H   -0.450884    2.830320   -0.163471
 H   -4.799500    1.659729   -0.465042
 H   -6.256129   -0.835879   -1.048414
 H   -6.950547    0.805185   -1.123336
 H   -6.084533   -0.665078    1.406015
 H   -5.855547    1.781895    1.658885
 H   -7.498046    2.020894    1.049576
 H   -7.233549    1.215430    2.595783
 H   -8.881193   -0.048740    0.342649
 H   -8.120186   -1.641333    0.371203
 H   -8.518728   -0.826286    1.883627
