40 
5n9k_ligand_dft.xyz
 C    8.769411   -1.506379   -0.493153
 C    1.771751    0.504792    0.039606
 C   -0.639718    3.443173    0.079058
 C    5.231942    0.768857   -0.552139
 C    4.194045   -0.937780    0.786373
 C    6.422500    0.048921   -0.566361
 C    5.376654   -1.655913    0.787265
 C   -1.864539    2.807637    0.053040
 C   -2.893507   -2.060019   -0.061403
 C    0.566622    2.712346    0.075028
 C   -4.281820   -2.052769   -0.074459
 C    4.101400    0.280529    0.098857
 C   -5.023542   -0.855985   -0.056412
 C    6.498315   -1.173878    0.103558
 C   -4.333409    0.359991   -0.024142
 C    0.556268    1.297192    0.045324
 C   -2.262789   -0.832125   -0.029298
 C   -1.910022    1.406250    0.021956
 C   -0.707634    0.699968    0.018299
 C   -2.942126    0.390231   -0.009994
 N    2.928964    1.061930    0.061404
 O    1.707439    3.398413    0.098216
 O   -6.366895   -0.942425   -0.071147
 O    7.605246   -1.954501    0.164239
 O   -0.904070   -0.648122   -0.011923
Cl   -5.141497   -3.562174   -0.113918
Cl   -5.258343    1.843638   -0.002123
 H    8.605345   -1.397545   -1.572964
 H    9.121382   -0.551371   -0.082320
 H    9.525922   -2.272477   -0.320299
 H    1.654811   -0.583427    0.003939
 H   -0.569943    4.524706    0.102883
 H    5.167589    1.722371   -1.067171
 H    3.344584   -1.309748    1.351955
 H    7.277610    0.454651   -1.094219
 H    5.461818   -2.593726    1.325906
 H   -2.779200    3.389702    0.056549
 H   -2.338375   -2.989674   -0.075994
 H    2.453243    2.741825    0.089875
 H   -6.742831   -0.050810   -0.056369
