54 
5n9r_ligand_xtb.xyz
 N    4.151938   -0.790251    0.728227
 C    3.257083    0.434335   -1.137403
 O    1.375261   -0.500211   -2.242712
 O   -4.415657   -2.532158   -0.439327
 C   -3.641903   -1.597363   -0.360450
 C   -4.086011   -0.192422    0.015505
 C   -5.589221   -0.136218    0.323209
 C   -5.893510   -0.763526    1.685041
 C   -6.090444    1.285112    0.266933
 C   -7.132595    1.630231   -0.583520
 C   -7.604976    2.929978   -0.637955
 C   -7.038802    3.908304    0.160221
 C   -6.000531    3.576560    1.013606
 C   -5.532161    2.276354    1.065967
 N   -2.322127   -1.755065   -0.641441
 C   -1.270704   -0.780558   -0.482255
 C   -0.372209   -1.176962    0.694422
 C   -1.814737   -3.076276   -0.942502
 C   -0.911900   -3.572446    0.188247
 C    0.221875   -2.584579    0.519252
 O    0.890978   -2.987192    1.705334
 C    1.301305   -2.647419   -0.580745
 N    2.297795   -1.603625   -0.462968
 C    3.236914   -1.664648    0.512578
 C    2.228786   -0.535980   -1.378086
 S    3.514312    1.886926   -2.036792
 C    4.848821    2.291350   -1.028470
 C    5.085093    1.368336   -0.058580
 C    4.172747    0.280745   -0.102005
Br    6.465423    1.505259    1.209751
 H   -3.519938    0.144913    0.885613
 H   -3.865354    0.474343   -0.822256
 H   -6.104828   -0.725666   -0.440836
 H   -6.961176   -0.718387    1.886582
 H   -5.371882   -0.237842    2.482692
 H   -5.584744   -1.805316    1.683810
 H   -7.578644    0.871070   -1.210391
 H   -8.416438    3.179544   -1.306080
 H   -7.404189    4.923825    0.118688
 H   -5.553839    4.334303    1.641446
 H   -4.722842    2.034569    1.739858
 H   -0.680812   -0.741240   -1.404361
 H   -1.681648    0.211538   -0.309282
 H   -0.969158   -1.175113    1.611577
 H    0.427250   -0.444593    0.819299
 H   -1.269805   -3.040666   -1.890860
 H   -2.673311   -3.741335   -1.052563
 H   -1.522831   -3.701383    1.085942
 H   -0.488522   -4.543719   -0.070365
 H    0.262776   -3.008210    2.436002
 H    1.795125   -3.618502   -0.503289
 H    0.847752   -2.539062   -1.566414
 H    3.187266   -2.523153    1.165976
 H    5.395573    3.196815   -1.204526
