54 
5n9r_ligand_dft.xyz
 N    4.266017   -0.867925    0.692484
 C    3.352437    0.505939   -1.079800
 O    1.393801   -0.259272   -2.190071
 O   -4.496446   -2.596532   -0.420038
 C   -3.743253   -1.631627   -0.409112
 C   -4.241315   -0.231199   -0.060605
 C   -5.719674   -0.205955    0.358060
 C   -5.932055   -0.851904    1.732688
 C   -6.245619    1.217470    0.311578
 C   -7.208631    1.588659   -0.627830
 C   -7.686806    2.895256   -0.689270
 C   -7.204731    3.856875    0.192652
 C   -6.242467    3.501382    1.134636
 C   -5.769719    2.194804    1.191527
 N   -2.419109   -1.754537   -0.742815
 C   -1.409340   -0.713639   -0.627042
 C   -0.474396   -1.007660    0.551497
 C   -1.863404   -3.080506   -0.956342
 C   -0.932114   -3.457377    0.201142
 C    0.158618   -2.405640    0.469430
 O    0.845886   -2.709754    1.678094
 C    1.246526   -2.512313   -0.610666
 N    2.304320   -1.511857   -0.481771
 C    3.287240   -1.679292    0.462836
 C    2.266202   -0.397522   -1.344231
 S    3.636975    1.989444   -1.914130
 C    5.031305    2.287626   -0.935573
 C    5.260046    1.303870   -0.026252
 C    4.288701    0.252257   -0.094454
Br    6.681678    1.301844    1.189415
 H   -3.627009    0.194363    0.743950
 H   -4.095368    0.418156   -0.932972
 H   -6.272854   -0.801013   -0.375911
 H   -6.989047   -0.814889    2.013768
 H   -5.362253   -0.329497    2.510961
 H   -5.614281   -1.896884    1.708560
 H   -7.589325    0.842799   -1.321669
 H   -8.437626    3.160708   -1.427895
 H   -7.576723    4.876195    0.147554
 H   -5.860778    4.244184    1.829450
 H   -5.020860    1.932507    1.935200
 H   -0.831709   -0.669100   -1.556721
 H   -1.876554    0.261886   -0.501439
 H   -1.061694   -0.958676    1.479737
 H    0.306140   -0.243462    0.624443
 H   -1.325379   -3.088698   -1.913258
 H   -2.691947   -3.784007   -1.028648
 H   -1.539476   -3.552189    1.110541
 H   -0.467733   -4.434161    0.022688
 H    0.238162   -2.573092    2.415454
 H    1.701086   -3.504153   -0.537862
 H    0.825342   -2.390683   -1.608305
 H    3.193445   -2.582807    1.054796
 H    5.616269    3.184544   -1.084222
