73 
5n9t_ligand_xtb.xyz
 N    1.014714    0.817754   -1.367590
 C    2.198116    2.509055   -0.058145
 O    4.545439    2.176589    0.243495
 F   -1.700055   -3.458642   -1.624687
 C   -1.629260   -2.125805   -1.583764
 F   -2.910943   -1.693044   -1.807425
 F   -0.924577   -1.740157   -2.642970
 C   -1.100838   -1.561864   -0.273626
 C   -2.181877   -1.679082    0.774876
 C   -2.728627   -2.911345    1.117464
 C   -3.782567   -2.987063    2.014103
 C   -4.309143   -1.834594    2.572729
 C   -3.756237   -0.600682    2.249329
 C   -2.683642   -0.527272    1.367778
 C    0.221522   -2.236676    0.111190
 C    1.051509   -1.257813    0.951161
 O    0.573827   -0.206737    1.345062
 N    2.316934   -1.617953    1.212527
 C    2.988317   -2.824196    0.787632
 C    3.917956   -2.504832   -0.382578
 C    3.203834   -0.670713    1.868713
 C    4.642023   -0.781783    1.349218
 C    4.793573   -1.260782   -0.110270
 O    6.122412   -1.700696   -0.309528
 C    4.543891   -0.123751   -1.139927
 N    3.336073    0.648687   -0.945724
 C    2.159465    0.250338   -1.493327
 C    3.470560    1.844341   -0.199123
 N    1.910669    3.631734    0.595129
 N    0.609038    3.791257    0.508525
 C    0.040658    4.979486    1.079909
 C   -0.007668    2.810160   -0.207201
 C    1.022631    1.953135   -0.613197
 C   -1.421180    2.593431   -0.402154
 C   -2.395570    2.987029    0.519199
 C   -3.704067    2.567170    0.375408
 C   -4.075633    1.764888   -0.695519
 C   -5.436795    1.138415   -0.760481
 N   -5.280639   -0.319016   -0.424656
 C   -3.125716    1.436766   -1.660583
 C   -1.817869    1.841064   -1.516136
 H   -0.884727   -0.501489   -0.458419
 H   -2.335678   -3.821428    0.691290
 H   -4.186620   -3.950430    2.282198
 H   -5.126001   -1.896160    3.275208
 H   -4.117534    0.297385    2.729357
 H   -2.212233    0.418436    1.158348
 H    0.770709   -2.492736   -0.795729
 H    0.035693   -3.147660    0.682559
 H    3.568435   -3.198078    1.635862
 H    2.274540   -3.596077    0.506661
 H    4.596443   -3.341021   -0.553146
 H    3.330827   -2.363776   -1.289605
 H    2.792296    0.328165    1.710874
 H    3.196791   -0.855225    2.949346
 H    5.196071   -1.498478    1.959610
 H    5.125591    0.190335    1.460162
 H    6.740418   -0.996945   -0.077713
 H    4.551486   -0.555347   -2.143509
 H    5.375446    0.584591   -1.058200
 H    2.200183   -0.635031   -2.114020
 H   -0.322256    4.791354    2.092389
 H    0.834560    5.722806    1.137124
 H   -0.770785    5.351624    0.456091
 H   -2.128398    3.568074    1.385163
 H   -4.438012    2.851972    1.114695
 H   -6.115446    1.592114   -0.037864
 H   -5.869478    1.215583   -1.759252
 H   -4.671376   -0.758618   -1.129036
 H   -6.179974   -0.809748   -0.403273
 H   -4.788990   -0.420698    0.501872
 H   -3.410482    0.854581   -2.524683
 H   -1.076466    1.555907   -2.244393
