106 
5na0_ligand_xtb.xyz
 O    8.150326   -3.069835    2.156893
 C    7.305659   -3.225755    1.295683
 C    5.830031   -3.376035    1.672115
 O    5.076144   -2.340714    1.079655
 C    3.797885   -2.180825    1.639667
 N    7.621524   -3.315798   -0.011395
 C    6.695533   -3.463488   -1.114324
 C    7.151904   -2.533161   -2.259691
 C    8.974060   -3.017471   -0.430043
 C    9.000519   -1.605863   -1.051484
 N    7.752207   -1.329038   -1.743086
 C    6.953671   -0.271122   -1.328077
 C    5.561096   -0.315347   -1.348314
 C    4.811382    0.774663   -0.951026
 C    7.565391    0.930656   -0.943428
 C    6.820010    2.019021   -0.536150
 O    7.350630    3.221682   -0.140843
 C    8.748223    3.368864   -0.123962
 C    5.413739    1.943589   -0.517519
 N    4.718294    3.069994   -0.087414
 C    3.419202    3.232092    0.219872
 N    3.102597    4.480816    0.629988
 N    2.556632    2.221931    0.119565
 C    1.299308    2.472969    0.458387
 N    0.388438    1.455598    0.382784
 C    0.584183    0.163089   -0.003895
 C   -0.607278   -0.499326    0.079552
 C   -1.589917    0.412731    0.541034
 C   -0.939064    1.633939    0.726737
 C   -1.391146    2.901953    1.157681
 C   -0.515412    3.934970    1.242651
 C    0.851069    3.738524    0.898063
 C    1.858791    4.716874    0.952425
 C   -3.013623    0.190457    0.800336
 O   -3.722669    1.012405    1.365225
 N   -3.476303   -1.010500    0.356753
 C   -4.784284   -1.500469    0.410134
 C   -5.347552   -2.329255   -0.586528
 C   -4.733772   -2.766273   -1.871762
 C   -4.714158   -1.618127   -2.882792
 N   -6.574732   -2.668048   -0.243396
 N   -6.821130   -2.090208    0.933475
 C   -5.765158   -1.367355    1.383424
 C   -5.727784   -0.711973    2.718042
 C   -4.996298   -1.593304    3.734838
 C   -8.129867   -2.252774    1.499849
 C   -9.024042   -1.006231    1.302940
 O   -8.860467   -0.355101    0.074464
 C   -9.195575   -1.118256   -1.071338
 C   -9.156686   -0.219084   -2.311359
 O   -7.860290   -0.044457   -2.841299
 C   -7.260613    1.214806   -2.646338
 C   -6.751763    1.469439   -1.225915
 O   -6.195305    2.765106   -1.203071
 C   -5.790773    3.155038    0.089091
 H    5.776032   -3.314756    2.766838
 H    5.456036   -4.365804    1.359652
 H    3.357556   -1.316088    1.147793
 H    3.172156   -3.066258    1.468593
 H    3.856883   -1.993823    2.717671
 H    5.698811   -3.183305   -0.782980
 H    6.688420   -4.507271   -1.456907
 H    6.314468   -2.282571   -2.909757
 H    7.908246   -3.032944   -2.873568
 H    9.297067   -3.777751   -1.146805
 H    9.618557   -3.058376    0.448429
 H    9.843885   -1.525182   -1.749864
 H    9.135474   -0.879891   -0.250096
 H    5.034202   -1.201412   -1.656328
 H    3.736801    0.727425   -0.960805
 H    8.639018    1.007302   -0.985643
 H    9.219077    2.657674    0.562078
 H    9.177904    3.251073   -1.123974
 H    8.931997    4.382823    0.228497
 H    5.294544    3.883903    0.085358
 H    1.553363   -0.177306   -0.305754
 H   -0.743388   -1.539381   -0.149586
 H   -2.433549    2.998274    1.411940
 H   -0.827733    4.914631    1.569907
 H    1.630582    5.725258    1.275362
 H   -2.864053   -1.547560   -0.238870
 H   -5.326025   -3.591812   -2.267687
 H   -3.715027   -3.128419   -1.695741
 H   -5.729107   -1.274729   -3.066277
 H   -4.130180   -0.780606   -2.505311
 H   -4.277562   -1.948563   -3.822898
 H   -6.740353   -0.509708    3.068431
 H   -5.195763    0.235693    2.620767
 H   -5.486835   -2.560335    3.836787
 H   -3.970233   -1.760835    3.416490
 H   -4.979157   -1.107997    4.707620
 H   -8.061780   -2.474597    2.568279
 H   -8.568669   -3.110977    0.985931
 H   -8.776927   -0.242975    2.045231
 H  -10.073396   -1.312960    1.445564
 H  -10.212213   -1.524499   -0.954102
 H   -8.485341   -1.941412   -1.212389
 H   -9.613917    0.747294   -2.073334
 H   -9.745632   -0.709023   -3.096473
 H   -7.956779    2.021706   -2.915446
 H   -6.416099    1.245071   -3.339364
 H   -5.997809    0.718111   -0.950918
 H   -7.580830    1.394051   -0.509850
 H   -6.651958    3.217035    0.766758
 H   -5.063928    2.453439    0.509946
 H   -5.337837    4.139381   -0.013774
