56 
5nap_ligand_xtb.xyz
 O   -0.476796   -0.393806   -0.574232
 C    0.548754   -0.947056   -0.183119
 C    1.874136   -0.331351   -0.145908
 C    2.280253    0.936156   -0.532399
 C    3.621008    1.276843   -0.384616
 O    4.160253    2.468997   -0.720977
 C    3.326131    3.461427   -1.271547
 C    4.539559    0.338170    0.156978
 O    5.802024    0.778313    0.257513
 C    6.797884   -0.071701    0.782897
 C    4.105931   -0.938588    0.541585
 C    2.777076   -1.258575    0.383385
 C    2.031042   -2.478275    0.677354
 C    0.728112   -2.338490    0.356460
 C   -0.257910   -3.466777    0.539696
 C   -1.737374   -3.174240    0.268105
 C   -2.217154   -2.065086    1.221960
 C   -3.435679   -1.312453    0.711795
 C   -1.926289   -2.888793   -1.233399
 C   -3.163416   -2.060300   -1.547806
 N   -3.161465   -0.873869   -0.670960
 C   -4.058905    0.211345   -1.127203
 C   -3.893182    1.446932   -0.279990
 C   -2.663605    2.096917   -0.237626
 C   -2.503770    3.229116    0.540600
 C   -3.568854    3.725879    1.274462
 C   -4.795275    3.085584    1.231524
 C   -4.956086    1.946531    0.460829
 H    1.564209    1.631289   -0.940127
 H    2.877080    3.131948   -2.213779
 H    2.538077    3.756846   -0.571614
 H    3.974963    4.313919   -1.462048
 H    6.574652   -0.361412    1.813817
 H    6.925939   -0.967009    0.167596
 H    7.716198    0.511858    0.764212
 H    4.797753   -1.655634    0.952509
 H    2.482782   -3.362425    1.091394
 H   -0.156949   -3.824411    1.568132
 H    0.055375   -4.289737   -0.110001
 H   -2.302966   -4.081103    0.504463
 H   -1.415888   -1.346437    1.390448
 H   -2.450669   -2.509099    2.189925
 H   -3.622322   -0.434847    1.333949
 H   -4.330736   -1.939475    0.712925
 H   -1.988867   -3.837577   -1.766973
 H   -1.054517   -2.364775   -1.622268
 H   -4.083873   -2.624907   -1.379551
 H   -3.139405   -1.741877   -2.591766
 H   -2.163185   -0.532329   -0.661940
 H   -5.090643   -0.147056   -1.086337
 H   -3.808751    0.438707   -2.167184
 H   -1.830519    1.721305   -0.813573
 H   -1.548191    3.729402    0.570262
 H   -3.443539    4.612894    1.875318
 H   -5.628480    3.470742    1.797955
 H   -5.915452    1.450951    0.428440
