51 
5nau_ligand_dft.xyz
 O  112.095776  123.469424  184.376166
 C  111.989045  124.663446  184.166875
 C  110.871091  125.542351  184.562233
 C  109.710020  125.217459  185.251707
 C  108.780255  126.213535  185.521374
 C  109.026568  127.529362  185.094419
 O  108.181657  128.563791  185.311009
 C  106.977271  128.317813  186.004788
 C  110.199138  127.852395  184.398396
 C  111.114912  126.850289  184.138091
 C  112.437342  126.955612  183.408342
 C  112.981329  125.539298  183.450036
 C  114.108279  124.998962  182.979263
 C  115.250511  125.602696  182.215409
 C  115.208416  125.143967  180.745045
 C  116.409887  125.681310  179.974587
 C  115.386182  127.126703  182.255815
 C  116.596492  127.575793  181.440969
 N  116.480585  127.135209  180.058361
 C  117.547067  127.671119  179.227984
 C  117.282000  127.494250  177.748016
 C  116.008359  127.737775  177.228136
 C  115.765608  127.610503  175.865294
 C  116.794985  127.241198  175.001234
 C  118.065264  126.994191  175.511341
 C  118.303568  127.116184  176.878496
 H  109.540184  124.193951  185.572232
 H  107.872743  125.966116  186.059158
 H  106.464191  129.278264  186.061473
 H  106.344025  127.600177  185.468512
 H  107.166704  127.948111  187.020200
 H  110.353669  128.880061  184.084465
 H  113.101738  127.675532  183.898459
 H  114.196089  123.924835  183.154964
 H  116.172107  125.181881  182.649418
 H  114.285700  125.512197  180.280497
 H  115.193344  124.049760  180.685897
 H  116.333348  125.397444  178.920830
 H  117.338357  125.219718  180.371384
 H  115.487246  127.476684  183.289426
 H  114.495904  127.597037  181.825633
 H  117.524297  127.188794  181.911825
 H  116.663379  128.669490  181.451221
 H  118.529444  127.225996  179.482637
 H  117.627423  128.743890  179.447122
 H  115.209486  128.010288  177.911657
 H  114.769828  127.799590  175.474434
 H  116.605094  127.141710  173.936535
 H  118.871878  126.698099  174.846848
 H  119.295903  126.912212  177.274324
 H  112.286309  127.308527  182.381461
