52 
5nau_ligand_xtb.xyz
 O    1.883361   -1.918965   -0.555240
 C    2.478572   -0.859445   -0.573814
 C    3.871592   -0.594119   -0.191730
 C    4.866218   -1.434392    0.256299
 C    6.119517   -0.902175    0.545895
 C    6.367237    0.458186    0.387512
 O    7.540327    1.064960    0.639605
 C    8.637554    0.299190    1.088742
 C    5.343020    1.319783   -0.070780
 C    4.116860    0.785399   -0.353689
 C    2.885837    1.404220   -0.843213
 C    1.924905    0.476934   -0.984314
 C    0.534576    0.699133   -1.488300
 C   -0.549746    0.249450   -0.490616
 C   -1.784015    1.153628   -0.558683
 C   -2.850053    0.676955    0.419642
 C   -0.995400   -1.189042   -0.758976
 C   -2.066105   -1.621286    0.227316
 N   -3.243883   -0.721732    0.124076
 C   -4.390398   -1.166418    0.965094
 C   -5.629692   -0.375291    0.638376
 C   -6.256779   -0.558017   -0.590412
 C   -7.385203    0.174024   -0.912946
 C   -7.896999    1.091796   -0.009710
 C   -7.280200    1.274460    1.216439
 C   -6.147150    0.546972    1.538925
 H    4.681329   -2.490596    0.378715
 H    6.896997   -1.562984    0.892836
 H    8.422831   -0.181363    2.047433
 H    8.922013   -0.458370    0.353157
 H    9.455633    1.005866    1.214290
 H    5.564860    2.368799   -0.185161
 H    2.799429    2.454735   -1.059845
 H    0.406047    0.156594   -2.428543
 H    0.418863    1.763934   -1.699300
 H   -0.131696    0.308322    0.519792
 H   -2.183863    1.158630   -1.575689
 H   -1.517716    2.179552   -0.304524
 H   -3.741162    1.306109    0.362053
 H   -2.464588    0.706567    1.441150
 H   -0.132355   -1.853038   -0.673358
 H   -1.377651   -1.270674   -1.779803
 H   -1.690480   -1.571785    1.251027
 H   -2.385447   -2.644793    0.022655
 H   -3.558512   -0.739876   -0.854016
 H   -4.114029   -1.043819    2.013906
 H   -4.559236   -2.228696    0.769905
 H   -5.876951   -1.289663   -1.291128
 H   -7.868862    0.022704   -1.865089
 H   -8.780010    1.658161   -0.259547
 H   -7.680494    1.982573    1.924577
 H   -5.672165    0.687619    2.498710
