57 
5nb6_ligand_dft.xyz
 C    4.477043   -2.081810    0.261666
 C    3.821504   -0.964131   -0.242706
 C    1.942338   -2.396388   -0.816410
 C    0.814833    2.124110   -1.651023
 C    0.755964    4.219297   -0.438805
 C    1.207088    3.603433   -1.767749
 F    7.486321   -1.164669    1.720359
 C    6.349655   -0.876329    1.116956
 F    6.617093   -0.141765    0.026987
 F    5.604028   -0.117760    1.932095
 O    5.743920   -2.047173    0.810687
 C    2.542961   -1.140476   -0.769256
 C    2.631123   -3.494820   -0.316446
 C    3.898450   -3.345628    0.229846
 N    1.800821   -0.055522   -1.308581
 C    1.912227    1.241469   -1.030914
 O    2.781789    1.738266   -0.286578
 N   -0.325397    2.146954   -0.735211
 C   -0.519770    3.439483   -0.097923
 N    1.836430    3.988336    0.588364
 C   -1.269951    1.134853   -0.858977
 O   -1.041813    0.166699   -1.582558
 N   -2.409265    1.291732   -0.142612
 C   -3.443366    0.341313   -0.065015
 C   -3.566986   -0.846105   -0.713181
 N   -4.743335   -1.465833   -0.293410
 C   -5.367029   -0.653698    0.652635
 C   -4.578921    0.502286    0.806673
 C   -4.982209    1.510924    1.690212
 C   -6.160976    1.341582    2.393889
 C   -6.936438    0.181721    2.227078
 C   -6.558051   -0.830255    1.360634
 C   -5.233280   -2.711344   -0.738693
 O   -6.067360   -3.331037   -0.118208
 N   -4.649058   -3.157132   -1.898105
 H    4.274338    0.014199   -0.228051
 H    0.944984   -2.512467   -1.230445
 H    0.508949    1.713405   -2.616317
 H    0.575509    5.293376   -0.489375
 H    2.269292    3.752517   -1.975608
 H    0.637118    4.066926   -2.576661
 H    2.171419   -4.476558   -0.347200
 H    4.447119   -4.189203    0.632366
 H    0.931189   -0.305926   -1.778364
 H   -1.384038    3.976225   -0.513477
 H   -0.672977    3.343942    0.985597
 H    2.573230    4.692671    0.502579
 H    2.298685    3.023621    0.372059
 H    1.490210    4.019873    1.549621
 H   -2.526220    2.100542    0.447093
 H   -2.887196   -1.327944   -1.394138
 H   -4.394960    2.416821    1.827470
 H   -6.492277    2.110079    3.084712
 H   -7.855773    0.072702    2.793181
 H   -7.144190   -1.731215    1.241638
 H   -4.377669   -2.485544   -2.601118
 H   -5.074641   -4.001006   -2.255335
