50 
5nb7_ligand_dft.xyz
 C   -3.231064    3.110864    0.737946
 C   -1.627002   -2.474783    0.200977
 C   -2.946898    1.827391    0.022963
 C   -4.110372    2.683340   -0.409875
 C    1.101085   -2.261180   -0.230097
 C   -1.300234    1.348726   -1.792091
 C   -2.159326    0.165836   -2.242929
 C   -1.099562   -1.552999   -0.720288
 C    0.278111   -1.423396   -0.954839
 C    0.588412   -3.193846    0.701084
 C   -0.766279   -3.313137    0.929459
 N   -1.713179    2.028499   -0.700573
 N   -2.175548   -0.893599   -1.262028
 C   -2.086923    4.079648    0.447762
 N   -5.362967   -2.589708    0.625390
 O    0.102605    3.121054    1.919620
 C    0.119923    2.820507    0.740122
 C   -1.003586    3.232504   -0.236903
 C   -3.037988   -2.276235    0.124882
 C   -4.091750   -2.993830    0.888934
 O   -3.811515   -3.865128    1.697343
 N   -3.340850   -1.333560   -0.749703
 O   -0.258300    1.625493   -2.385356
 N    1.095329    2.078496    0.132839
 C    2.162337    1.407671    0.731910
 C    2.467496    1.473287    2.094813
 C    3.548846    0.727219    2.542327
 C    4.288531   -0.048031    1.655506
 C    3.882255   -0.017499    0.328467
Br    4.818256   -1.082848   -0.941607
 N    2.867373    0.676066   -0.137846
 H   -3.640763    3.080388    1.741011
 H   -3.100333    0.855820    0.476681
 H   -4.018416    3.216085   -1.353186
 H   -5.107515    2.320886   -0.180240
 H    2.173594   -2.197292   -0.383479
 H   -3.198674    0.464415   -2.396974
 H   -1.733372   -0.189086   -3.184956
 H    0.682348   -0.701875   -1.656716
 H    1.282594   -3.826217    1.245589
 H   -1.176565   -4.021707    1.639180
 H   -1.689950    4.501968    1.371949
 H   -2.406271    4.898511   -0.203393
 H   -5.547260   -1.944389   -0.126706
 H   -6.121590   -3.103465    1.044294
 H   -0.553397    3.722951   -1.104830
 H    0.990178    1.895407   -0.865694
 H    1.868960    2.080488    2.757749
 H    3.814929    0.746871    3.594675
 H    5.133034   -0.647145    1.971119
