50 
5nb7_ligand_xtb.xyz
 C   -4.936820    0.047650    0.337682
 C    1.289562   -1.006759    1.517384
 C   -3.805347   -0.925940    0.452266
 C   -5.205373   -1.422937    0.212010
 C    2.976735   -2.970075    0.577864
 C   -2.027594   -1.581994   -1.173034
 C   -1.501622   -2.613629   -0.175056
 C    0.797711   -2.080836    0.738113
 C    1.643868   -3.076532    0.257099
 C    3.471461   -1.915178    1.359018
 C    2.646248   -0.926465    1.835493
 N   -3.009589   -0.785638   -0.730042
 N   -0.547499   -1.888051    0.626937
 C   -4.752788    0.829256   -0.951402
 N   -1.140911    1.622480    2.588299
 O   -2.556571    2.318658   -0.094389
 C   -2.295762    1.472798   -0.920447
 C   -3.344584    0.459265   -1.426360
 C    0.139748   -0.212454    1.789930
 C    0.088031    1.060218    2.530320
 O    1.068586    1.553211    3.057178
 N   -0.928627   -0.761415    1.240359
 O   -1.479631   -1.409602   -2.250762
 N   -1.060659    1.233510   -1.431584
 C    0.152245    1.678339   -0.918202
 C    0.301209    2.775118   -0.072109
 C    1.569383    3.053972    0.409006
 C    2.645882    2.268771    0.024986
 C    2.374894    1.231144   -0.848849
Br    3.778020    0.128453   -1.486201
 N    1.182690    0.934386   -1.304284
 H   -5.303521    0.579995    1.201001
 H   -3.274556   -1.111458    1.373496
 H   -5.435952   -1.818719   -0.765560
 H   -5.711461   -1.922656    1.023444
 H    3.668316   -3.715136    0.214979
 H   -2.294392   -3.036773    0.446889
 H   -0.978553   -3.403029   -0.714530
 H    1.276252   -3.891062   -0.347670
 H    4.528220   -1.883229    1.575103
 H    3.006951   -0.105394    2.434009
 H   -4.805187    1.900543   -0.761212
 H   -5.504319    0.563347   -1.694965
 H   -1.876818    1.298533    1.984496
 H   -1.223599    2.542086    2.989577
 H   -3.257415    0.319910   -2.506562
 H   -0.948589    0.441247   -2.066412
 H   -0.552861    3.369384    0.202127
 H    1.722232    3.879154    1.086592
 H    3.645105    2.449982    0.383945
