54 
5nba_ligand_xtb.xyz
 C    1.324457    4.939297    0.170676
 C   -6.373942    0.308590    1.170757
 C    0.096772    4.022423    0.267952
 C   -0.303188    1.741479   -0.691742
 C   -3.775793    0.799591    0.382784
 C   -2.437748    0.705396   -0.123885
 C   -2.245777   -0.575057   -0.540281
 C   -3.590626   -2.673932   -0.618233
 C   -4.350868   -0.480363    0.226270
 C   -4.519832    1.836904    0.938713
 C   -5.816460    1.577891    1.326398
 N    0.461229    2.853059   -0.503447
 N   -1.541821    1.774446   -0.135370
 C    2.013340    4.506993   -1.121525
 N   -3.398011   -1.316834   -0.331163
 O    3.724924    2.811680    0.268069
 C    2.853607    2.243164   -0.351316
 C    1.764077    3.004765   -1.147949
 F    0.932403    6.253966    0.124734
 N   -2.455073   -3.355985   -0.907780
 O   -4.687298   -3.180012   -0.629628
 C   -5.655807   -0.735424    0.623237
 O    0.124024    0.771064   -1.312556
 N    2.673408    0.906955   -0.448054
 C    3.347523   -0.116637    0.205810
 C    4.511190    0.069937    0.943981
 C    5.103106   -1.014626    1.567140
 C    4.556857   -2.281361    1.468604
 C    3.397024   -2.454329    0.726873
 O    2.892319   -3.773152    0.693473
 C    1.930534   -4.095534   -0.134084
 F    2.177626   -3.819208   -1.425520
 F    0.737511   -3.501739    0.121884
 F    1.703647   -5.402735   -0.056947
 C    2.788110   -1.392928    0.092758
 H    1.987929    4.837558    1.034620
 H   -7.392737    0.140790    1.485195
 H   -0.133983    3.762045    1.305736
 H   -0.760340    4.547203   -0.175684
 H   -1.380939   -0.984078   -1.018563
 H   -4.095981    2.823712    1.064208
 H   -6.413544    2.367647    1.757471
 H   -1.884686    2.623706    0.283219
 H    1.536641    5.003142   -1.966814
 H    3.076701    4.734403   -1.112450
 H    1.719982    2.593722   -2.162019
 H   -2.556210   -4.346583   -1.050733
 H   -1.543139   -3.012279   -0.666225
 H   -6.086736   -1.714159    0.496305
 H    1.824728    0.617545   -0.952672
 H    4.935526    1.056361    1.027389
 H    6.006222   -0.870618    2.139164
 H    5.004223   -3.133571    1.951196
 H    1.886439   -1.504669   -0.488504
