31 
5ndf_ligand_xtb.xyz
 C    2.256375   -1.815620   -0.015448
 O    4.253698   -3.044923   -0.023307
 C    3.647600   -1.840651   -0.012969
 O    4.449135    1.693543    0.021228
 C    4.378575   -0.656281   -0.000087
 O    2.182524    2.973058    0.020375
 C    3.734059    0.572467    0.008997
 O    0.246644   -0.615722   -0.009156
 C    2.318356    0.612329    0.004487
 O   -4.353310   -2.266826    0.049597
 C    1.602846   -0.594540   -0.006718
 O   -6.046949   -0.241637   -0.009654
 C    1.608634    1.878205    0.009836
 C    0.165132    1.751292    0.002259
 C   -0.445076    0.539681   -0.004329
 C   -1.900075    0.348880   -0.004690
 C   -2.420089   -0.895135    0.021004
 C   -3.849211   -1.150500    0.023525
 C   -4.728721    0.034983   -0.008930
 C   -4.229014    1.278138   -0.035259
 C   -2.770087    1.560373   -0.031275
 H    1.699794   -2.736341   -0.024906
 H    5.213447   -2.936524   -0.021242
 H    3.811005    2.457645    0.024898
 H    5.458331   -0.671533    0.003030
 H   -6.115372   -1.217158    0.013663
 H   -0.398590    2.668016    0.005396
 H   -1.780493   -1.765082    0.041768
 H   -4.895322    2.126841   -0.058589
 H   -2.524975    2.161912   -0.914134
 H   -2.537589    2.190549    0.835032
