31 
5ndf_ligand_dft.xyz
 C    2.244125   -1.825219    0.000005
 O    4.226321   -3.059272   -0.000087
 C    3.640308   -1.843360   -0.000040
 O    4.469704    1.681231    0.000022
 C    4.392408   -0.665720   -0.000028
 O    2.193214    2.981519   -0.000050
 C    3.745204    0.564370    0.000028
 O    0.255962   -0.598365    0.000061
 C    2.327482    0.619119    0.000093
 O   -4.350786   -2.260844    0.000125
 C    1.619912   -0.591817    0.000056
 O   -6.058349   -0.257330   -0.000149
 C    1.616659    1.883058    0.000009
 C    0.166212    1.767563   -0.000014
 C   -0.439309    0.559779    0.000019
 C   -1.898923    0.344121    0.000018
 C   -2.407195   -0.901807   -0.000004
 C   -3.852667   -1.140708    0.000052
 C   -4.748439    0.038589   -0.000068
 C   -4.253280    1.282655    0.000014
 C   -2.784356    1.557508    0.000010
 H    1.675587   -2.746209   -0.000018
 H    5.185928   -2.955300   -0.000106
 H    3.833502    2.440297   -0.000000
 H    5.477939   -0.685755   -0.000074
 H   -6.097763   -1.233038    0.000003
 H   -0.407903    2.684704   -0.000060
 H   -1.773377   -1.780734   -0.000037
 H   -4.925519    2.134861    0.000030
 H   -2.532891    2.178408   -0.872377
 H   -2.532881    2.178461    0.872352
