26 
5nea_ligand_dft.xyz
 C   -0.403940   -1.000026   -0.052096
 C   -0.166552    1.405520   -0.047889
 C    1.211518    1.275303   -0.077175
 C    0.978060   -1.137141   -0.080853
 C   -0.989827    0.270046   -0.031481
 C   -2.437849    0.421226   -0.000501
 C   -3.293886    1.475972    0.029494
 N   -4.597429    1.018244    0.051719
 C   -4.486927   -0.272496    0.034657
 O   -3.208262   -0.710206    0.003167
 C   -5.564778   -1.294067    0.044362
 C    1.774760    0.001072   -0.086685
 S    3.544782   -0.166930   -0.117039
 O    3.845342   -1.550642   -0.452256
 O    4.094871    0.948448   -0.870907
 N    3.980306    0.104765    1.479997
 H   -1.034355   -1.882090   -0.050528
 H   -0.608446    2.396843   -0.043895
 H    1.849552    2.152033   -0.105467
 H    1.438921   -2.118358   -0.112504
 H   -3.068421    2.532392    0.036798
 H   -5.475663   -1.946775    0.918435
 H   -6.529363   -0.786377    0.072962
 H   -5.515116   -1.921449   -0.851150
 H    4.225484   -0.765570    1.941735
 H    4.741674    0.775899    1.513197
