35 
5nee_ligand_dft.xyz
 S    5.319901    0.617053    0.040950
 C    3.807859   -0.286824    0.053098
 S    2.274103    0.465100   -0.194021
 C    1.483993   -1.068327   -0.049329
 C    2.375635   -2.090749    0.167784
 C    3.716899   -1.639713    0.223718
 C    0.048509   -1.180407   -0.174487
 C   -0.822839   -2.226747   -0.245588
 N   -2.102756   -1.735889   -0.351369
 C   -1.965073   -0.443711   -0.344532
 O   -0.681020   -0.040343   -0.241783
 C   -2.959427    0.665410   -0.493067
 O    5.287618    1.566490   -1.056167
 O    6.376535   -0.370172    0.184006
 N    5.219241    1.532887    1.434743
 O   -2.542195    1.790238   -0.726891
 N   -4.278386    0.352772   -0.379944
 C   -4.831023   -0.947857    0.012788
 C   -6.299394   -0.762733    0.396482
 O   -6.448760    0.322989    1.276677
 C   -6.113951    1.570958    0.686356
 C   -5.249156    1.421140   -0.567457
 H    2.078695   -3.125808    0.286865
 H    4.582662   -2.270746    0.380249
 H   -0.614881   -3.286282   -0.234854
 H    5.497308    2.489787    1.240162
 H    5.755803    1.121674    2.191908
 H   -4.280732   -1.330277    0.874934
 H   -4.732732   -1.681230   -0.794938
 H   -6.644954   -1.651024    0.930251
 H   -6.932806   -0.648259   -0.496677
 H   -5.571618    2.138176    1.449057
 H   -7.029715    2.123580    0.430565
 H   -5.864770    1.198740   -1.447365
 H   -4.702648    2.342581   -0.766354
