50 
5nev_ligand_xtb.xyz
 C  -18.027336   -2.825788   25.733016
 C  -16.604353   -9.287335   27.287843
 C  -16.874211  -10.259721   28.260267
 C  -15.632624   -9.548209   26.316982
 C  -14.925780  -10.733530   26.348436
 C  -15.189806  -11.667862   27.329588
 C  -16.167965  -11.444921   28.279818
 N  -16.199152   -6.839891   25.733008
 N  -18.027741   -5.988285   26.997135
 N  -18.567235   -3.683874   26.541504
 C  -16.018492   -5.703333   25.067393
 C  -17.163317   -6.940500   26.645139
 C  -17.861691   -4.838570   26.365315
 C  -16.853527   -4.634241   25.375697
 N  -16.996177   -3.322394   24.997984
 N  -17.324804   -8.112378   27.330247
 S  -14.232027  -13.158657   27.390514
 O  -13.468734  -13.290230   26.180715
 N  -13.161501  -12.798437   28.648311
 O  -15.044786  -14.255051   27.830479
 C  -14.945223   -5.698942   24.069044
 C  -14.982487   -4.884139   22.939735
 C  -13.958234   -4.947257   22.011931
 C  -12.902782   -5.824364   22.186434
 C  -12.857569   -6.661346   23.300298
 C  -13.878424   -6.576179   24.238228
 C  -11.775745   -7.641429   23.479924
 C  -12.068190   -8.919471   23.952444
 C  -11.065105   -9.855238   24.121745
 C   -9.752773   -9.525454   23.824581
 C   -9.451001   -8.258153   23.354238
 C  -10.454287   -7.322567   23.179505
 H  -18.356968   -1.808918   25.637884
 H  -17.639305  -10.072810   28.999706
 H  -15.454481   -8.811331   25.553644
 H  -14.170542  -10.961539   25.613337
 H  -16.364849  -12.206596   29.016577
 H  -16.416777   -2.816490   24.348943
 H  -18.058649   -8.050573   28.024334
 H  -13.190853  -13.503102   29.367351
 H  -12.223560  -12.666224   28.306343
 H  -15.828259   -4.236707   22.758887
 H  -13.992389   -4.317729   21.134538
 H  -12.124593   -5.883444   21.440080
 H  -13.850101   -7.184832   25.128162
 H  -13.092853   -9.185622   24.164821
 H  -11.309073  -10.844123   24.481853
 H   -8.967183  -10.254513   23.957028
 H   -8.428476   -7.997106   23.122761
 H  -10.210012   -6.330592   22.827251
