68 
5nf9_ligand_dft.xyz
 O   -3.353646    2.083725    1.424491
 C   -3.289467    2.868231    0.481573
 C   -4.489960    3.658424    0.018253
 N   -2.139210    3.046952   -0.218050
 C   -0.908562    2.388194    0.144248
 C   -0.736637    1.030180   -0.546742
 N   -1.840081    0.160872   -0.178676
 C   -2.298970   -0.785614   -1.032090
 C   -3.605844   -1.438017   -0.713284
 C   -3.858945   -2.676629   -1.311985
 C   -5.059712   -3.319377   -1.061189
 C   -6.023024   -2.744072   -0.232140
 C   -5.771783   -1.502942    0.353531
 O   -6.638268   -0.840830    1.160570
 C   -7.874894   -1.453354    1.449050
 C   -4.558509   -0.850699    0.114229
 O   -1.657372   -1.102089   -2.038915
 O    0.125215    3.243985   -0.260419
 C    1.406039    2.791823    0.166238
 C    2.374035    3.905957   -0.199931
 O    2.014265    5.116998    0.415246
 C    1.752519    1.444767   -0.474242
 C    0.636445    0.409994   -0.229487
 O    0.849676   -0.742040   -1.016029
 O    3.001487    1.112614    0.111027
 C    3.585580   -0.096059   -0.256362
 C    5.074831   -0.019552    0.058836
 O    5.753457    0.965434   -0.695474
 C    5.729765   -1.356207   -0.272576
 O    7.076169   -1.373113    0.157378
 C    5.007095   -2.514945    0.424568
 O    5.235084   -2.471132    1.812024
 C    3.511767   -2.399499    0.139543
 O    3.035349   -1.117073    0.522585
 C    2.607395   -3.393329    0.845867
 O    1.302067   -3.327368    0.325847
 H   -4.251343    4.422198   -0.726146
 H   -4.950719    4.129942    0.888972
 H   -5.220395    2.961946   -0.404573
 H   -2.108582    3.651502   -1.025395
 H   -0.911362    2.258299    1.236636
 H   -0.789869    1.204465   -1.629570
 H   -2.370158    0.407498    0.650164
 H   -3.108496   -3.111206   -1.961686
 H   -5.260252   -4.285289   -1.514336
 H   -6.956408   -3.266657   -0.057350
 H   -7.738617   -2.414483    1.960967
 H   -8.468642   -1.609312    0.538953
 H   -8.404088   -0.766354    2.110115
 H   -4.413303    0.117336    0.585853
 H    1.399314    2.669682    1.259872
 H    3.372593    3.644972    0.154291
 H    2.408370    3.999691   -1.297909
 H    1.080153    5.255830    0.210643
 H    1.868924    1.563692   -1.563102
 H    0.666738    0.130499    0.833074
 H    0.053552   -0.913645   -1.563033
 H    3.414731   -0.293290   -1.328550
 H    5.169517    0.163070    1.137880
 H    5.378032    1.819424   -0.448254
 H    5.671484   -1.502786   -1.363115
 H    7.454666   -0.520365   -0.097515
 H    5.376092   -3.461731   -0.003096
 H    6.174986   -2.259760    1.912054
 H    3.363020   -2.529957   -0.946245
 H    2.637002   -3.183652    1.924303
 H    2.983302   -4.410488    0.688275
 H    1.131934   -2.402392    0.072809
