74 
5nfa_ligand_dft.xyz
 C    2.400494   -1.502858    0.282483
 C    2.694801   -0.155963   -0.404370
 C    1.621090    0.888134   -0.088541
 C    0.238255    0.281095   -0.321379
 O   -0.806339   -3.526435    0.293457
 O   -6.963127   -0.247792    1.606599
 C   -7.201373    0.599691    0.751179
 C   -8.612856    1.035985    0.432429
 N   -6.211779    1.192132    0.032943
 C   -4.809912    0.999073    0.323384
 C   -4.198767   -0.189804   -0.426799
 N   -4.884719   -1.405509   -0.024956
 C   -4.983385   -2.471608   -0.853461
 C   -5.890468   -3.587339   -0.394616
 O   -4.347112   -2.540137   -1.906388
 O   -4.175591    2.179943   -0.085620
 C   -2.794703    2.213555    0.261106
 C   -2.317511    3.610360   -0.104886
 O   -3.045221    4.596177    0.583018
 C   -2.023911    1.097094   -0.449500
 C   -2.679415   -0.273611   -0.194303
 O   -2.107657   -1.257165   -1.030913
 O   -0.707796    1.227990    0.065976
 O    1.818070    2.011694   -0.921555
 O    2.640690   -1.408914    1.665184
 C    0.948206   -1.899472    0.047885
 C    0.463934   -3.146819    0.765366
 O    0.091271   -0.853212    0.475922
 O    3.971908    0.213870    0.065648
 C    4.668679    1.205288   -0.668531
 C    6.139433    1.120595   -0.343781
 C    6.916091    2.273207   -0.319140
 C    8.287167    2.178560   -0.077247
 C    8.880340    0.948276    0.150693
 C    8.097017   -0.211609    0.136225
 C    6.729542   -0.125588   -0.115682
 O    8.760445   -1.371920    0.376902
 C    8.017768   -2.569752    0.382514
 H    3.054794   -2.262683   -0.177082
 H    2.720232   -0.300002   -1.497096
 H    1.692545    1.150075    0.976017
 H    0.103358    0.023538   -1.385953
 H   -1.275504   -2.716409    0.023973
 H   -9.059260    1.449883    1.340498
 H   -8.673154    1.779859   -0.365919
 H   -9.196760    0.156151    0.150764
 H   -6.424728    1.871266   -0.682325
 H   -4.705956    0.849122    1.409143
 H   -4.375259   -0.029019   -1.498989
 H   -5.496834   -1.341371    0.784346
 H   -6.389837   -4.012656   -1.266975
 H   -5.276522   -4.373834    0.055653
 H   -6.632286   -3.256896    0.337040
 H   -2.691485    2.073681    1.347531
 H   -1.270672    3.720101    0.182510
 H   -2.393594    3.734783   -1.197724
 H   -3.978505    4.401897    0.426572
 H   -2.019778    1.271348   -1.537044
 H   -2.493496   -0.543163    0.854498
 H   -2.815410   -1.700156   -1.546717
 H    1.101052    2.626693   -0.719427
 H    3.466104   -0.910205    1.753987
 H    0.806906   -2.062958   -1.034595
 H    1.158237   -3.973572    0.575885
 H    0.461429   -2.946296    1.845604
 H    4.274586    2.201667   -0.442343
 H    4.509461    1.033907   -1.744384
 H    6.455437    3.243283   -0.484493
 H    8.895908    3.077870   -0.057583
 H    9.943123    0.855273    0.347727
 H    6.098413   -1.006015   -0.125364
 H    7.546790   -2.756760   -0.591252
 H    7.243719   -2.561246    1.160561
 H    8.733012   -3.365256    0.595044
