61 
5nge_ligand_dft.xyz
 C   -6.900307   -0.556364   -0.400896
 C   -7.663230   -1.715752   -0.421578
 C   -7.027197   -2.943268   -0.317586
 F   -7.764008   -4.063824   -0.331643
 C   -5.650529   -3.041306   -0.200277
 C   -4.884182   -1.881168   -0.190541
 C   -5.512442   -0.639615   -0.285554
 N   -4.758278    0.568505   -0.277738
 N   -5.348251    1.721178   -0.709954
 C   -4.456693    2.676763   -0.570212
 C   -3.253824    2.166097   -0.033157
 C   -1.979695    2.721131    0.301451
 O   -1.616073    3.884071    0.155161
 C   -3.487362    0.805532    0.141463
 N   -2.596406   -0.096989    0.636415
 C   -1.458335    0.431308    0.962321
 N   -1.108244    1.750986    0.846532
 C    0.217172    2.185786    1.316648
 C    1.251297    2.466486    0.207213
 C    1.164799    1.400750   -0.903999
 C    2.304812    1.597564   -1.900791
 O    1.089339    3.756786   -0.348183
 C    2.657009    2.459902    0.836256
 C    3.733872    2.642006   -0.237266
 N    3.592873    1.564147   -1.216072
 C    4.364159    0.456726   -1.051151
 O    5.390035    0.472094   -0.373830
 C    3.916793   -0.851496   -1.699518
 C    4.241438   -2.043207   -0.785537
 C    5.723450   -2.408937   -0.784803
 F    6.055812   -2.738428   -2.061875
 F    5.915979   -3.511954   -0.009694
 N    3.744471   -1.800437    0.563254
 N    2.416321   -1.585372    0.710211
 C    2.296413   -1.289312    1.984031
 F    1.090461   -1.013091    2.488124
 C    3.503481   -1.288224    2.691584
 C    4.421929   -1.620575    1.718626
 H   -7.371142    0.414976   -0.482655
 H   -8.742600   -1.673577   -0.513920
 H   -5.184437   -4.016930   -0.122312
 H   -3.808359   -1.943889   -0.093426
 H   -4.693168    3.692366   -0.852893
 H   -0.686118   -0.213991    1.368445
 H    0.082043    3.091770    1.913439
 H    0.589870    1.392997    1.967979
 H    1.226504    0.392684   -0.472504
 H    0.204173    1.494050   -1.423065
 H    2.277762    0.861657   -2.704385
 H    2.208287    2.583659   -2.365327
 H    0.143887    3.989505   -0.308891
 H    2.841169    1.508666    1.352053
 H    2.716381    3.269061    1.572173
 H    3.607486    3.602545   -0.743826
 H    4.733307    2.587955    0.190329
 H    2.843693   -0.875962   -1.885845
 H    4.424251   -0.989097   -2.659589
 H    3.719226   -2.926470   -1.166949
 H    6.377700   -1.607326   -0.444567
 H    3.674105   -1.089350    3.737031
 H    5.490986   -1.742318    1.780400
