69 
5ngf_ligand_xtb.xyz
 O    3.975429    0.370286   -2.159053
 C    4.851510    0.454287   -1.322968
 C    5.614670    1.604833   -0.943665
 C    5.680045    2.959325   -1.330807
 N    6.584892    3.595000   -0.622881
 N    7.127670    2.712265    0.227779
 C    8.160094    3.089342    1.147910
 C    6.577282    1.497801    0.074494
 N    6.875664    0.367697    0.760894
 C    6.186514   -0.657654    0.395514
 N    5.236920   -0.686391   -0.569772
 C    4.533163   -1.920543   -0.843369
 C    3.428661   -2.218708    0.191766
 C    2.606753   -3.425233   -0.297039
 C    1.394039   -3.674666    0.599617
 O    4.107570   -2.519352    1.398667
 C    2.498048   -1.004635    0.356653
 C    1.270861   -1.333932    1.212431
 N    0.576392   -2.484921    0.690864
 C   -0.632833   -2.455344    0.080696
 O   -1.096737   -3.423742   -0.495566
 C   -1.416708   -1.187176    0.188905
 C   -1.719991   -0.472960   -0.963504
 C   -2.590410    0.600979   -0.905523
 C   -1.967470   -0.791959    1.404457
 C   -2.827398    0.287717    1.461897
 C   -3.171954    0.973861    0.302101
 C   -4.127976    2.092895    0.344009
 C   -3.855995    3.210745    1.124100
 C   -4.700357    4.305510    1.124000
 C   -5.839227    4.291448    0.336848
 C   -6.143038    3.173372   -0.416935
 C   -5.301013    2.066493   -0.416567
 N   -5.632609    0.914686   -1.152838
 S   -6.000244   -0.512697   -0.287853
 O   -5.626244   -0.339010    1.081896
 O   -7.373969   -0.811218   -0.582712
 C   -4.952340   -1.754142   -1.098810
 C   -4.628668   -2.858989   -0.118264
 H    5.111398    3.468197   -2.081899
 H    9.035705    3.443608    0.602332
 H    7.805357    3.890528    1.797338
 H    8.417479    2.213036    1.738900
 H    6.365291   -1.591576    0.908089
 H    5.243958   -2.749364   -0.838347
 H    4.086032   -1.815817   -1.834204
 H    3.241083   -4.312581   -0.311543
 H    2.258635   -3.229103   -1.311324
 H    1.708128   -3.970962    1.608298
 H    0.771957   -4.467709    0.180546
 H    3.457394   -2.721006    2.080069
 H    2.175030   -0.675295   -0.631528
 H    3.047222   -0.186616    0.827239
 H    0.598518   -0.475771    1.226721
 H    1.575982   -1.544868    2.246787
 H   -1.284144   -0.773354   -1.905228
 H   -2.833992    1.151053   -1.802779
 H   -1.736645   -1.349356    2.301166
 H   -3.276057    0.577356    2.398774
 H   -2.954428    3.220994    1.719408
 H   -4.468777    5.168052    1.730250
 H   -6.501738    5.143771    0.321807
 H   -7.044985    3.147313   -1.012371
 H   -6.403312    1.080557   -1.786603
 H   -4.061390   -1.226264   -1.418528
 H   -5.520943   -2.100565   -1.955842
 H   -4.342767   -2.413699    0.831719
 H   -5.495179   -3.494333    0.045886
 H   -3.799354   -3.463151   -0.481361
