20 
5ngz_ligand_xtb.xyz
 N   -0.774848   -0.856217   -0.074940
 C    0.586438   -0.673760   -0.038997
 C    1.584512   -1.643228   -0.047476
 C    2.896591   -1.218747   -0.005326
 C    3.217688    0.138830    0.045199
 C    2.235259    1.110338    0.054259
 C    0.914082    0.690833    0.011592
 S   -0.545418    1.661539    0.010981
 C   -1.493976    0.250889   -0.059163
 C   -2.985110    0.177442   -0.111890
 N   -3.375962   -1.196984    0.145141
 H    1.330886   -2.690121   -0.087575
 H    3.690017   -1.948745   -0.011805
 H    4.253604    0.436368    0.077302
 H    2.482043    2.158621    0.092556
 H   -3.300853    0.462272   -1.122856
 H   -3.412106    0.924117    0.573982
 H   -4.257120   -1.423784   -0.297502
 H   -1.258645   -1.752691   -0.118981
 H   -3.478369   -1.373838    1.138576
