55 
5nhf_ligand_xtb.xyz
 C  -10.299375   17.639838   36.598505
 C  -10.340951   16.447825   37.297489
 C   -9.247553   16.032224   38.048609
 C  -10.781156   15.504072   40.633543
 C  -12.253239   15.905151   40.771865
 C  -13.033886   14.642536   40.733155
 C  -12.598384   13.516552   40.054608
 C  -13.582251   12.521825   40.212536
 C  -14.584199   13.071201   40.988354
 C  -15.827581   12.534821   41.482149
 C  -16.242715   11.226250   41.215519
 C  -17.458562   10.845176   41.753431
 C  -17.727724   12.887427   42.686535
 C  -17.943393   16.782184   45.551496
 C  -18.953953   17.449828   43.557244
 C  -19.260608   16.009836   43.139840
 C  -11.356133   13.511288   39.277403
 O  -11.064708   12.667525   38.448462
 N  -10.560213   14.595720   39.525498
 C   -9.310591   14.733685   38.807574
 C   -8.112620   16.830184   38.085665
 C   -8.067390   18.020406   37.379879
 C   -9.161543   18.429201   36.637678
 N  -14.226641   14.364365   41.286519
 N  -16.574211   13.364775   42.219133
 N  -18.206716   11.652581   42.483325
 N  -18.501946   13.691425   43.441985
 C  -18.218548   15.067100   43.754206
 O  -18.924247   17.597829   44.956772
 C  -18.186099   15.297884   45.269119
 H  -11.154385   17.953204   36.017256
 H  -11.222743   15.824461   37.262637
 H  -10.453257   15.028022   41.570445
 H  -10.166497   16.391063   40.464368
 H  -12.543259   16.554139   39.938471
 H  -12.406623   16.455342   41.701652
 H  -13.539329   11.532964   39.804875
 H  -15.644817   10.557537   40.622746
 H  -17.860612    9.851650   41.598536
 H  -17.995081   16.988469   46.622362
 H  -16.945204   17.067768   45.181420
 H  -17.986657   17.758284   43.128256
 H  -19.730223   18.131195   43.203446
 H  -19.253093   15.928216   42.052751
 H  -20.252440   15.735585   43.504620
 H   -9.268434   13.888695   38.111327
 H   -8.464901   14.655808   39.502179
 H   -7.256325   16.515372   38.665802
 H   -7.176665   18.630736   37.412523
 H   -9.127490   19.359021   36.089358
 H  -14.816457   14.964760   41.840472
 H  -19.373044   13.291364   43.752638
 H  -17.233126   15.278249   43.326622
 H  -19.146465   15.005417   45.698081
 H  -17.400735   14.697965   45.729061
