42 
5nhv_ligand_xtb.xyz
 C    0.868815    3.765844    0.248364
 C    2.023291    1.847742   -0.043708
 C   -0.246726    1.693018    0.007892
 C   -1.399789   -0.536102   -0.199179
 C   -3.133903   -2.336539   -0.393234
 C   -4.426844   -2.497346    0.407572
 C   -4.973247   -0.133547   -0.066233
 C    3.399361   -0.176061   -0.229503
 C    3.497650   -0.773938    1.181397
 C    3.750261   -2.278302    1.075308
 C    4.840604   -2.071326   -0.977671
 C    4.657971   -0.551872   -1.011046
 O   -5.797404    0.754054   -0.160205
 C   -3.527109    0.067222   -0.084796
 C   -2.779064    1.220191    0.012369
 N   -5.345327   -1.448524    0.031865
 N   -2.663819   -0.992078   -0.205190
 C   -1.420731    0.842989   -0.056334
 C   -0.329772    3.076930    0.188812
 N    0.933609    1.084595   -0.105809
 N    2.044704    3.174920    0.138276
 N    3.226465    1.254485   -0.205612
 O    4.915642   -2.565361    0.338321
 H    0.898961    4.838826    0.394855
 H   -0.553299   -1.186487   -0.289537
 H   -3.336378   -2.513022   -1.457696
 H   -2.375559   -3.046464   -0.055761
 H   -4.195148   -2.450355    1.482706
 H   -4.882957   -3.465489    0.193271
 H    2.510818   -0.582606   -0.725373
 H    2.573846   -0.586533    1.728733
 H    4.326389   -0.305903    1.716578
 H    2.880925   -2.762565    0.601538
 H    3.907386   -2.719827    2.061538
 H    5.777929   -2.361187   -1.456821
 H    4.004090   -2.552180   -1.510028
 H    5.525875   -0.079284   -0.546287
 H    4.584161   -0.210060   -2.043395
 H   -3.183327    2.205155    0.125253
 H   -6.334408   -1.613760    0.140970
 H   -1.275372    3.580519    0.284592
 H    4.026139    1.834496   -0.004848
