38 
5nhz_ligand_dft.xyz
 C   -2.527630    2.975630    0.263917
 C   -1.117206    2.435590    0.276833
 O   -0.471076    2.254295    1.282025
 S   -0.478482    2.087103   -1.359191
 C    1.194110    1.516517   -0.916975
 C    1.229519    0.096178   -0.332303
 P    2.861414   -0.257708    0.375930
 O    3.284393    1.072832    1.205852
 O    2.989429   -1.490662    1.186026
 O    3.803360   -0.150964   -0.931397
 C    0.779853   -0.973246   -1.343076
 C    0.645435   -2.402007   -0.802613
 C   -0.209218   -2.526782    0.469552
 C   -1.566568   -1.865897    0.378574
 C   -2.478000   -2.231199   -0.617855
 C   -3.725986   -1.625166   -0.705784
 C   -4.092921   -0.642019    0.211296
 C   -3.197778   -0.270441    1.209129
 C   -1.944711   -0.874430    1.285559
 H   -2.833681    3.181286    1.291167
 H   -2.580955    3.893570   -0.329741
 H   -3.202347    2.237586   -0.180781
 H    1.778396    1.574114   -1.839796
 H    1.599149    2.235799   -0.203124
 H    0.560366    0.085445    0.535543
 H    3.218765    0.897891    2.154488
 H    4.705086   -0.444850   -0.740618
 H   -0.195503   -0.651497   -1.726064
 H    1.470606   -0.971447   -2.195128
 H    0.209139   -3.013895   -1.601969
 H    1.630528   -2.826384   -0.586317
 H    0.349601   -2.111925    1.314922
 H   -0.338931   -3.593852    0.689553
 H   -2.205671   -3.002665   -1.334380
 H   -4.418589   -1.925216   -1.486923
 H   -5.071322   -0.174080    0.149513
 H   -3.470507    0.491271    1.934128
 H   -1.251864   -0.569557    2.066049
