57 
5njz_ligand_xtb.xyz
 C    8.535581   -0.722185    0.822389
 C    9.035374    0.652999    1.265274
 N    8.083080    1.653795    0.761820
 C    8.195747    1.853524   -0.696763
 C    8.522733    0.525743   -1.386843
 C    7.998126   -0.702644   -0.625301
 N    6.543888   -0.835335   -0.702835
 C    5.583571   -0.284900    0.052982
 O    5.803296    0.588992    0.913388
 C    4.207647   -0.751366   -0.188558
 C    3.168925    0.098690    0.173703
 C    3.919522   -2.009493   -0.723576
 C    2.597974   -2.377391   -0.897794
 C    1.562599   -1.526765   -0.558842
 C    1.832864   -0.269595   -0.007948
 N    0.872405    0.634756    0.369942
 C   -0.490342    0.589611    0.366778
 S   -1.489967   -0.728408   -0.197465
 N   -1.151919    1.611669    0.822912
 C   -2.482266    1.414310    0.757904
 C   -2.883324    0.214336    0.241559
 C   -4.193917   -0.404781   -0.007356
 O   -4.274863   -1.503424   -0.519669
 N   -5.251961    0.349121    0.403998
 C   -6.607901    0.033425    0.202482
 C   -7.430738    0.998161   -0.382894
Cl   -6.742020    2.527949   -0.840554
 C   -8.774116    0.769494   -0.603654
 C   -9.312042   -0.451497   -0.233736
 C   -8.516527   -1.402678    0.375213
 C   -7.166307   -1.178678    0.620547
 C   -6.353024   -2.199380    1.346424
 H    7.745700   -1.061206    1.493279
 H    9.353186   -1.436832    0.899813
 H   10.035113    0.859044    0.875521
 H    9.075014    0.702188    2.353661
 H    8.156195    2.540959    1.257023
 H    7.042144    1.199311    0.927656
 H    8.978104    2.582116   -0.921618
 H    7.244739    2.253045   -1.055030
 H    9.602455    0.407918   -1.478729
 H    8.111522    0.534152   -2.395762
 H    8.379483   -1.585106   -1.146195
 H    6.216241   -1.474792   -1.411030
 H    3.409497    1.061548    0.599825
 H    4.699634   -2.717377   -0.959388
 H    2.366084   -3.349583   -1.303133
 H    0.548740   -1.849827   -0.715384
 H    1.211537    1.506054    0.760857
 H   -3.122944    2.201531    1.112773
 H   -5.084640    1.336580    0.549535
 H   -9.384840    1.531469   -1.060917
 H  -10.357572   -0.649538   -0.409828
 H   -8.950791   -2.341279    0.684638
 H   -5.669156   -2.693696    0.656565
 H   -5.751291   -1.726650    2.121759
 H   -6.997221   -2.946868    1.800425
