69 
5nk8_ligand_dft.xyz
 C  115.606475   12.674096   43.173719
 C  114.611485   12.269901   42.067111
 C  114.521085   13.348454   40.973553
 C  113.203070   12.139850   42.664593
 N  114.973135   10.949203   41.468364
 O  114.781850    9.994458   42.530273
 C  116.395864   10.774734   41.038264
 C  116.662463   11.548800   39.734520
 C  116.601329    9.288952   40.710607
 C  117.370886   11.199918   42.152624
 C  117.059813   12.592696   42.710441
 N  117.946735   12.933836   43.813076
 C  119.191055   13.440995   43.592073
 O  119.604891   13.715765   42.473773
 C  120.040950   13.653790   44.816414
 C  121.414888   13.726876   44.617981
 C  119.516380   13.807002   46.102104
 C  120.379596   13.987120   47.175713
 C  121.757217   14.017591   46.987601
 C  122.281733   13.911328   45.696147
 N  123.659948   13.939362   45.433618
 C  124.657788   14.637835   46.048337
 S  124.426892   15.727900   47.392536
 N  125.887942   14.549126   45.596662
 C  126.706611   15.358391   46.324679
 C  126.137120   16.065937   47.342963
 C  126.693805   17.019758   48.315991
 O  125.977974   17.722928   49.009347
 N  128.074448   17.059526   48.357084
 C  128.791476   17.849378   49.283461
 C  129.648193   17.235189   50.204335
Cl  129.791290   15.487656   50.219460
 C  130.399979   17.970477   51.109207
 C  130.284746   19.354463   51.104218
 C  129.446878   19.978751   50.188599
 C  128.702971   19.251319   49.259377
 C  127.844274   19.959553   48.248514
 H  115.381816   13.689025   43.522414
 H  115.466190   11.994237   44.025191
 H  113.942310   14.194195   41.357819
 H  115.485896   13.744259   40.658048
 H  114.004704   12.952380   40.094481
 H  113.174712   11.415039   43.478825
 H  112.878750   13.110092   43.054773
 H  112.493182   11.829365   41.889698
 H  114.099655    9.417957   42.166623
 H  116.870903   12.608380   39.881173
 H  117.544250   11.123661   39.245742
 H  115.812558   11.449509   39.053086
 H  116.458548    8.657833   41.588351
 H  115.900302    8.974228   39.929038
 H  117.619061    9.134902   40.337876
 H  117.305671   10.474448   42.973502
 H  118.398923   11.184728   41.774290
 H  117.256101   13.345512   41.942888
 H  117.757840   12.498850   44.704390
 H  121.792965   13.653058   43.602391
 H  118.443493   13.818744   46.267789
 H  119.980491   14.097246   48.179046
 H  122.411631   14.101248   47.847491
 H  123.966894   13.527115   44.562597
 H  127.753920   15.410320   46.045587
 H  128.548991   16.226379   48.037742
 H  131.053906   17.460187   51.807209
 H  130.859156   19.945169   51.810576
 H  129.376448   21.062708   50.177523
 H  126.791128   19.915096   48.541116
 H  128.143374   21.007029   48.155794
 H  127.926995   19.486185   47.264588
