68 
5nk8_ligand_xtb.xyz
 C   -7.215857   -0.684500    1.167887
 C   -8.668040   -0.225018    1.025500
 C   -8.860526    1.202861    1.569747
 C   -9.591930   -1.173714    1.797239
 N   -9.114671   -0.208224   -0.367112
 O  -10.321522   -0.253570   -0.575120
 C   -8.237261    0.004140   -1.517324
 C   -8.280332    1.510387   -1.837286
 C   -8.831345   -0.766075   -2.701706
 C   -6.806544   -0.467836   -1.254521
 C   -6.300741   -0.051421    0.125302
 N   -4.926685   -0.440472    0.332301
 C   -3.931866    0.486159    0.362374
 O   -4.152265    1.670111    0.208587
 C   -2.560462   -0.052217    0.595226
 C   -1.498277    0.680137    0.088296
 C   -2.309951   -1.209721    1.329526
 C   -1.003298   -1.621309    1.525394
 C    0.058526   -0.906726    1.001609
 C   -0.178828    0.262668    0.277980
 N    0.813448    1.055119   -0.271548
 C    2.157885    0.962290   -0.283908
 S    3.127522   -0.308321    0.442537
 N    2.857323    1.886184   -0.890716
 C    4.170664    1.653296   -0.813645
 C    4.541763    0.515737   -0.134875
 C    5.836666   -0.105399    0.146491
 O    5.928776   -1.176957    0.701299
 N    6.918828    0.643063   -0.262158
 C    8.250057    0.245228   -0.112887
 C    8.682457   -1.009126   -0.569574
Cl    7.610044   -2.035742   -1.429581
 C    9.999398   -1.409105   -0.389608
 C   10.896243   -0.551209    0.213777
 C   10.486330    0.709416    0.629260
 C    9.174677    1.122888    0.475938
 C    8.730564    2.475202    0.945514
 H   -7.169804   -1.772038    1.064211
 H   -6.872955   -0.431474    2.171765
 H   -8.138816    1.898184    1.152786
 H   -9.864392    1.555830    1.345485
 H   -8.736904    1.187596    2.649028
 H  -10.617559   -0.816633    1.776814
 H   -9.568015   -2.170949    1.363040
 H   -9.265718   -1.237396    2.830780
 H   -7.821246    1.675752   -2.807939
 H   -9.311098    1.854024   -1.882972
 H   -7.741222    2.098906   -1.101692
 H   -9.816020   -0.384798   -2.956488
 H   -8.182061   -0.660036   -3.565310
 H   -8.924384   -1.823757   -2.464651
 H   -6.160056   -0.051113   -2.027638
 H   -6.762695   -1.557339   -1.334425
 H   -6.290979    1.039589    0.216994
 H   -4.704219   -1.422127    0.357098
 H   -1.714667    1.588960   -0.454307
 H   -3.116158   -1.770083    1.777485
 H   -0.803518   -2.513120    2.098571
 H    1.060469   -1.260833    1.170739
 H    0.482862    1.883368   -0.757024
 H    4.833108    2.351283   -1.294108
 H    6.770395    1.624408   -0.446071
 H   10.309251   -2.381275   -0.736918
 H   11.920587   -0.857441    0.354916
 H   11.197554    1.375155    1.093762
 H    8.452860    3.107197    0.100696
 H    7.872373    2.392611    1.611479
 H    9.534481    2.969753    1.482343
