63 
5nkg_ligand_xtb.xyz
 C    6.649574   -2.614129    0.944944
 C    7.856593   -2.497783    0.020804
 N    7.410160   -2.506517   -1.397932
 C    6.474184   -1.382078   -1.680032
 C    5.244469   -1.523839   -0.800254
 C    5.646207   -1.483475    0.685567
 N    6.258732   -0.218481    1.023334
 C    5.727188    1.047956    0.955254
 O    6.416449    1.991218    1.259014
 C    4.325784    1.162498    0.460261
 C    3.276432    0.700777    1.237139
 C    4.077430    1.792101   -0.755277
 C    2.772746    1.937398   -1.207688
 C    2.482416    2.658646   -2.490087
 C    2.173082    4.130394   -2.206415
 C    1.724844    1.461365   -0.432974
 C    1.956464    0.852574    0.798561
 N    0.958135    0.381512    1.625977
 C   -0.385194    0.258088    1.458242
 S   -1.280051    0.588743   -0.008804
 N   -1.109638   -0.187504    2.442452
 C   -2.408668   -0.285252    2.100139
 C   -2.721562    0.084931    0.823347
 C   -3.967751    0.090013    0.045413
 O   -3.971920    0.342929   -1.141038
 N   -5.084740   -0.205101    0.770127
 C   -6.364193   -0.343449    0.193564
 C   -6.584119   -1.279795   -0.814547
Cl   -5.306574   -2.324636   -1.313627
 C   -7.833222   -1.409773   -1.398944
 C   -8.875079   -0.616560   -0.956147
 C   -8.671810    0.296920    0.063504
 C   -7.422449    0.451225    0.644865
 C   -7.189389    1.451911    1.735960
 H    6.993266   -2.580954    1.978920
 H    6.154239   -3.575357    0.798019
 H    8.546450   -3.326964    0.186653
 H    8.386957   -1.560172    0.197399
 H    6.917964   -3.389959   -1.583555
 H    8.223008   -2.455782   -2.021460
 H    6.203270   -1.396020   -2.736286
 H    6.982994   -0.442894   -1.454228
 H    4.725088   -2.460216   -1.009690
 H    4.557153   -0.706005   -1.015416
 H    4.746965   -1.655652    1.290604
 H    7.129968   -0.246516    1.535331
 H    3.469899    0.257656    2.203902
 H    4.902446    2.177618   -1.335069
 H    1.624696    2.201537   -2.985842
 H    3.343484    2.594916   -3.157929
 H    1.300829    4.216848   -1.563883
 H    3.015123    4.605929   -1.709247
 H    1.973273    4.657562   -3.135202
 H    0.719417    1.599950   -0.790445
 H    1.249407    0.089214    2.550958
 H   -3.095127   -0.653569    2.841537
 H   -5.035131   -0.192418    1.776785
 H   -7.981697   -2.135025   -2.182649
 H   -9.850762   -0.715765   -1.405460
 H   -9.491994    0.908648    0.407685
 H   -6.981249    0.950594    2.682315
 H   -6.339449    2.089212    1.495235
 H   -8.066541    2.077981    1.870813
