68 
5nkh_ligand_dft.xyz
 C  117.447184   14.352426   41.657189
 C  116.528831   13.994995   40.481258
 N  115.322261   13.270368   40.871311
 C  115.633327   12.087215   41.663153
 C  116.524670   12.361633   42.885145
 C  117.796780   13.093207   42.458220
 N  118.618213   13.396172   43.620280
 C  119.955761   13.609543   43.516659
 O  120.551609   13.519950   42.451343
 C  120.683507   13.942299   44.793765
 C  122.062703   13.769450   44.783626
 C  120.057070   14.451321   45.932616
 C  120.799421   14.739173   47.081381
 C  120.143968   15.293835   48.296894
 C  120.533702   16.548225   48.772163
 C  119.936728   17.122816   49.886711
 C  118.929676   16.422145   50.545512
 C  118.541041   15.165700   50.104363
 C  119.142753   14.576791   48.983617
 N  118.800437   13.278637   48.622072
 C  122.177978   14.522271   47.072940
 C  122.818021   14.069879   45.917007
 N  124.204658   13.864956   45.865919
 C  125.207673   14.599263   46.431878
 S  124.959357   16.009921   47.430392
 N  126.460065   14.287248   46.193178
 C  127.283770   15.177857   46.813537
 C  126.692207   16.169717   47.540031
 C  127.246914   17.290653   48.316573
 O  126.549313   18.214717   48.699942
 N  128.606983   17.212869   48.547405
 C  129.305456   18.153567   49.336805
 C  129.968587   17.732990   50.495538
Cl  129.892384   16.047180   50.971160
 C  130.696592   18.612795   51.283273
 C  130.754621   19.949963   50.912597
 C  130.111167   20.379771   49.758779
 C  129.394629   19.500366   48.946851
 C  128.752509   19.987372   47.677483
 H  118.369370   14.824218   41.303080
 H  116.939625   15.067163   42.320701
 H  116.232811   14.897258   39.937046
 H  117.078750   13.363284   39.770437
 H  114.724151   13.888299   41.414895
 H  114.695466   11.617473   41.976361
 H  116.142575   11.371201   41.004051
 H  115.968040   12.986166   43.601401
 H  116.777195   11.422621   43.393107
 H  118.391202   12.433007   41.814553
 H  118.178221   13.403986   44.526461
 H  122.533007   13.422166   43.868617
 H  118.996345   14.689564   45.931824
 H  121.312180   17.084454   48.235413
 H  120.250428   18.101789   50.232999
 H  118.445866   16.852302   51.417659
 H  117.774960   14.613072   50.642827
 H  117.874424   12.974334   48.880818
 H  119.086175   12.971901   47.704840
 H  122.735154   14.687174   47.988421
 H  124.549524   13.231628   45.156808
 H  128.354490   15.062977   46.680523
 H  129.005824   16.284548   48.522973
 H  131.197951   18.250775   52.173669
 H  131.312717   20.653822   51.521639
 H  130.177181   21.423278   49.464201
 H  127.675687   20.119243   47.818226
 H  129.189576   20.939825   47.365878
 H  128.886578   19.262216   46.868004
