69 
5nkh_ligand_xtb.xyz
 C   -8.138609   -0.310018   -1.087709
 C   -9.504142   -0.933134   -1.329922
 N  -10.205297   -1.113545   -0.027719
 C   -9.441472   -1.997294    0.897235
 C   -8.075378   -1.387528    1.169753
 C   -7.311852   -1.202766   -0.149785
 N   -5.989330   -0.689811    0.052430
 C   -4.896110   -1.411080   -0.359261
 O   -5.035658   -2.525283   -0.821487
 C   -3.584322   -0.747439   -0.189162
 C   -2.458502   -1.560497   -0.200654
 C   -3.439896    0.632340   -0.069611
 C   -2.170942    1.189170    0.059314
 C   -2.009680    2.649229    0.160168
 C   -1.089851    3.290720   -0.663792
 C   -0.938213    4.663139   -0.635314
 C   -1.709065    5.416860    0.234893
 C   -2.608471    4.795559    1.077835
 C   -2.770561    3.412069    1.059468
 N   -3.705584    2.814493    1.906496
 C   -1.049831    0.365775    0.056236
 C   -1.178260   -1.014279   -0.086719
 N   -0.112004   -1.889296   -0.111200
 C    1.230129   -1.690905   -0.157099
 S    2.046975   -0.144461   -0.242066
 N    2.026509   -2.719949   -0.164558
 C    3.318923   -2.351724   -0.229946
 C    3.558698   -1.006921   -0.279698
 C    4.783243   -0.202080   -0.352282
 O    4.740478    1.006761   -0.467007
 N    5.933135   -0.938055   -0.290236
 C    7.232405   -0.406383   -0.217079
 C    8.064648   -0.827201    0.822439
Cl    7.457682   -1.979393    1.975014
 C    9.354906   -0.354995    0.957169
 C    9.829576    0.560643    0.033640
 C    9.028317    0.961713   -1.018029
 C    7.733357    0.480991   -1.175119
 C    6.917993    0.880998   -2.360647
 H   -8.245604    0.688073   -0.655775
 H   -7.619560   -0.204535   -2.039740
 H   -9.392673   -1.913559   -1.796693
 H  -10.113914   -0.301527   -1.978342
 H  -11.144096   -1.495689   -0.183989
 H  -10.303721   -0.191172    0.415414
 H   -9.329164   -2.973208    0.421610
 H  -10.008254   -2.119241    1.821938
 H   -7.512302   -2.050852    1.825302
 H   -8.180328   -0.426771    1.679690
 H   -7.153607   -2.183417   -0.619893
 H   -5.864661    0.222556    0.458162
 H   -2.593873   -2.626211   -0.309036
 H   -4.284425    1.301726   -0.128193
 H   -0.503621    2.696616   -1.348770
 H   -0.223834    5.141845   -1.285919
 H   -1.600645    6.490156    0.266688
 H   -3.194990    5.381147    1.772170
 H   -3.468867    1.868977    2.174646
 H   -3.939290    3.389912    2.703869
 H   -0.081933    0.820172    0.176949
 H   -0.352376   -2.872723   -0.152611
 H    4.060681   -3.130400   -0.247065
 H    5.855727   -1.871717    0.092367
 H    9.972462   -0.694118    1.773514
 H   10.831865    0.947276    0.131713
 H    9.416222    1.655805   -1.748270
 H    6.435995    0.009685   -2.802530
 H    6.131342    1.571762   -2.057694
 H    7.542452    1.362040   -3.108163
