56 
5nlk_ligand_xtb.xyz
 C    1.968647   -1.382337    4.310715
 C   -0.883024    6.253022    0.094738
 C    5.632785   -0.381526   -3.638407
 C   -8.074968   -1.633709   -0.593096
 C   -7.580139   -2.871410   -0.888735
 C   -6.948958   -0.817004   -0.368411
 C    5.716174   -1.538751    0.004744
 C    4.948955   -1.521524    1.149786
 C   -2.759249    1.901887   -0.024097
 C   -0.375828    1.806974    0.279242
 C   -1.656735   -0.232809    0.072423
 C    3.990602   -0.389133   -1.193408
 C    3.187370   -1.505640    3.410365
 C   -0.470176    4.796773    0.045632
 C    6.154599   -0.997089   -2.360452
 C    0.787638   -0.418577    0.390252
 C   -4.389980   -1.390629   -0.439854
 C   -1.541141    2.552173    0.141591
 C   -2.824727    0.510825   -0.059185
 C    5.263466   -0.960011   -1.180950
 C   -0.441570    0.420117    0.231771
 C    3.201165   -0.385140   -0.059102
 C    3.689649   -0.923506    1.150981
 C   -5.846741   -1.623042   -0.544803
 N   -1.537827    3.951287    0.170380
 N   -4.082792   -0.070659   -0.219174
 N    1.913815    0.174470   -0.107939
 O    0.674334    4.434667   -0.094014
 O    7.257424   -1.499090   -2.308379
 O    0.767793   -1.520530    0.889605
 O   -3.580225   -2.281938   -0.544507
 O    2.911161   -0.769263    2.234169
 O   -6.250345   -2.869581   -0.859474
 H    1.806738   -0.342209    4.580437
 H    1.095038   -1.742222    3.774311
 H    2.110421   -1.969951    5.213247
 H   -1.389619    6.469610    1.032866
 H    0.002745    6.875981    0.014447
 H   -1.555161    6.482123   -0.729843
 H    6.383368   -0.488540   -4.417338
 H    4.718684   -0.882243   -3.949003
 H    5.421473    0.674529   -3.486316
 H   -9.103855   -1.342823   -0.541486
 H   -8.069342   -3.794980   -1.128742
 H   -6.973646    0.221119   -0.102690
 H    6.695688   -1.992278    0.009251
 H    5.341741   -1.955057    2.055861
 H   -3.666888    2.483516   -0.124622
 H    0.556859    2.317443    0.447381
 H   -1.681237   -1.309306    0.051834
 H    3.589648    0.051746   -2.093234
 H    3.363832   -2.558445    3.158479
 H    4.081592   -1.101674    3.906986
 H   -2.453009    4.377936    0.209908
 H   -4.854047    0.580307   -0.216943
 H    1.798593    0.986012   -0.697315
