19 
5nn4_ligand_dft.xyz
 C   -1.423863   -1.197018    0.154574
 C   -0.756578    1.108371    0.857613
 C    2.124776   -0.125256    0.181022
 C   -0.267084   -0.328257    0.618218
 N    0.867049   -0.396813   -0.274784
 O   -2.480742   -1.255193    0.729152
 O   -1.153853   -1.902790   -0.958992
 O    2.328330    0.252184    1.323992
 C    3.243493   -0.323292   -0.821438
 S   -1.307278    1.962684   -0.655546
 H    0.042681    1.672184    1.341168
 H   -1.621138    1.083943    1.524287
 H    0.047754   -0.717948    1.595198
 H    0.725134   -0.779605   -1.196158
 H   -1.960705   -2.398328   -1.173345
 H    3.880942   -1.142885   -0.477572
 H    3.856004    0.581186   -0.844230
 H    2.892603   -0.546159   -1.832763
 H   -0.090518    2.061460   -1.217516
