32 
5nn6_ligand_xtb.xyz
 O   -3.370712    0.082809   -0.253215
 O   -0.925453    2.702564   -0.334058
 O    0.756049   -2.379923   -0.548285
 O    2.666584    0.728056   -0.904345
 O    1.160575   -0.823581    2.001373
 C   -2.828723   -1.190701    0.035984
 C    0.342806    2.318356    0.156480
 C   -1.474004   -0.944665    0.704652
 C   -0.157784   -0.300108   -1.290846
 C    1.111310   -1.131694   -1.083626
 C    2.123449   -0.360525   -0.200562
 C    1.466422    0.193680    1.084996
 C    0.155665    0.939660    0.810171
 N   -0.776444    0.141169   -0.024070
 H   -4.300716    0.005783   -0.486367
 H   -0.927078    3.641933   -0.541918
 H    1.507516   -2.982349   -0.555198
 H    3.350613    0.431613   -1.515592
 H    1.964185   -1.190703    2.385313
 H   -2.718641   -1.779149   -0.884567
 H   -3.464108   -1.754380    0.725862
 H    1.082592    2.273318   -0.650325
 H    0.707153    3.015917    0.917204
 H   -0.856389   -1.840493    0.716899
 H   -1.637019   -0.608847    1.728419
 H   -0.882119   -0.899677   -1.841382
 H    0.096045    0.582826   -1.877440
 H    1.569899   -1.260639   -2.078325
 H    2.914436   -1.060028    0.112819
 H    2.171984    0.920760    1.513792
 H   -0.338563    1.081449    1.776504
 H   -1.535867    0.811070   -0.272464
