39 
5np8_ligand_xtb.xyz
 C   -2.676765   -0.874377   -0.389035
 C   -4.034275   -1.108155   -0.309740
 C   -4.866920   -0.095474    0.137532
Br   -6.744375   -0.408055    0.249078
 C   -4.361030    1.139712    0.504979
 C   -3.000751    1.364249    0.421683
 C   -2.140394    0.362351   -0.026356
 C   -0.707161    0.581891   -0.125655
 C    0.020744    1.740243    0.178755
 N    0.098745   -0.399749   -0.560613
 N    1.320828    0.102398   -0.541271
 C    2.458340   -0.538497   -0.903071
 C    2.267725   -1.939090   -1.383584
 C    1.341325    1.421542   -0.097161
 N    2.477611    2.106739   -0.029905
 C    3.594986    1.518435   -0.368575
 C    4.819073    2.368583   -0.292658
 C    3.642102    0.156573   -0.805615
 C    4.945257   -0.512962   -1.158298
 C    5.349111   -1.575477   -0.125948
 C    5.951431   -0.962526    1.126849
 O    6.485744    0.106562    1.164670
 O    5.886846   -1.732360    2.226154
 H   -2.006887   -1.645799   -0.733940
 H   -4.446349   -2.065063   -0.591889
 H   -5.024829    1.917003    0.851904
 H   -2.608025    2.327164    0.707631
 H   -0.337018    2.678571    0.543077
 H    2.104094   -2.607275   -0.537943
 H    1.364923   -1.972593   -1.991067
 H    3.113877   -2.292561   -1.963178
 H    5.261031    2.491202   -1.280523
 H    4.537094    3.344060    0.091547
 H    5.561008    1.921933    0.365631
 H    5.741978    0.226020   -1.211438
 H    4.856698   -0.985427   -2.139174
 H    6.122616   -2.220284   -0.555440
 H    4.494345   -2.200234    0.139955
 H    5.440769   -2.576261    2.078423
