28 
5npc_ligand_dft.xyz
 C   -0.437779   -0.859424   -0.951726
 C    1.690799   -1.158885    0.375595
 C   -0.264329    0.658719   -0.850496
 C    0.840808   -1.664988   -0.784952
 C    1.999994    0.323084    0.210888
 C    0.706113    1.139076    0.236836
 C    0.971106    2.631319    0.078226
 O   -1.608652    1.112142   -0.567145
 O   -1.319075   -1.172061    0.148456
 O    1.508641    2.834646   -1.217963
 O    2.814133    0.774588    1.267251
 O    2.925074   -1.841588    0.409169
 O    0.583628   -3.047688   -0.667325
 S   -2.396968    0.036218    0.355486
 O   -3.637478   -0.278500   -0.295397
 O   -2.353948    0.412873    1.742562
 H   -0.946974   -1.134498   -1.881185
 H    1.144970   -1.299735    1.322791
 H   -0.003528    1.096398   -1.814885
 H    1.424821   -1.548157   -1.705198
 H    2.509278    0.468623   -0.755487
 H    0.243473    0.984985    1.219314
 H    1.673153    2.945621    0.858908
 H    0.027600    3.180032    0.208023
 H    1.754229    3.761744   -1.303549
 H    3.544164    0.143580    1.333634
 H    2.725598   -2.786700    0.362473
 H   -0.084135   -3.160084    0.024310
