26 
5npd_ligand_dft.xyz
 C    0.691052   -1.025336   -1.080666
 C    1.573219    0.194353   -0.846329
 C    0.879912    1.302924   -0.028649
 C   -0.018094    0.748554    1.093366
 C   -1.135863   -0.167591    0.578596
 C   -2.327969    0.546657   -0.066516
 C   -0.606748   -1.206911   -0.387228
 O   -3.281811   -0.463971   -0.308635
 O    0.745448   -0.063290    1.986722
 O    0.134935    2.062688   -0.951182
 O    2.742899   -0.283331   -0.218782
 N    0.597228   -1.958018    0.075635
 H    0.844650   -1.552131   -2.016268
 H    1.781175    0.628755   -1.830350
 H    1.683971    1.903893    0.423105
 H   -0.469866    1.587194    1.640843
 H   -1.535178   -0.699008    1.450065
 H   -2.022635    1.054049   -0.988194
 H   -2.702531    1.302898    0.638587
 H   -1.359469   -1.832465   -0.855559
 H   -4.053621   -0.075654   -0.736859
 H    1.525995    0.419556    2.289735
 H   -0.110054    2.908844   -0.556190
 H    3.498017    0.251006   -0.493266
 H    1.004286   -1.605837    0.957076
 H    0.669842   -2.957657   -0.092606
