26 
5npe_ligand_dft.xyz
 C   -0.907523   -1.350450   -0.709866
 C   -1.670272   -0.610457    0.391583
 C   -0.747726    0.381039    1.125743
 C   -0.024302    1.317925    0.139900
 C    0.864356    0.586568   -0.902735
 C    2.354803    0.577608   -0.558388
 C    0.329684   -0.782314   -1.296561
 N    0.418372   -1.901838   -0.309186
 O   -2.811176   -0.034895   -0.161365
 O    0.157225   -0.413315    1.880025
 O   -1.066360    2.020039   -0.514643
 O    2.544685   -0.076840    0.686713
 H   -1.506867   -2.022912   -1.314645
 H   -2.002586   -1.350929    1.126164
 H   -1.366325    0.997854    1.785672
 H    0.605046    2.011124    0.714952
 H    0.780663    1.179901   -1.820829
 H    2.915926    0.070221   -1.354806
 H    2.706262    1.616612   -0.509585
 H    0.599671   -1.120570   -2.292797
 H    0.701893   -2.822247   -0.634006
 H    0.695469   -1.632324    0.652329
 H   -2.566807    0.824426   -0.540729
 H    1.000335    0.053819    1.995655
 H   -0.762430    2.881258   -0.824106
 H    3.482033   -0.052794    0.917140
