60 
5nr7_ligand_xtb.xyz
 O    8.811735   -0.330493   -0.569027
 C    7.657532   -0.040352   -0.382503
 C    6.518849   -0.958287   -0.428043
 C    6.811004   -2.388370   -0.735520
 N    7.293757    1.275048   -0.090032
 C    6.048481    1.778638    0.144610
 O    5.833799    2.943738    0.387397
 N    5.023622    0.840832    0.083589
 C    5.285948   -0.478330   -0.197116
 C    3.679207    1.326763    0.313453
 C    3.011806    0.674323    1.527865
 C    1.646333    1.310883    1.754624
 N    0.805488    1.144559    0.556926
 C    1.415577    1.778138   -0.625085
 C    2.775224    1.154515   -0.911080
 C   -0.618696    1.480619    0.752599
 C   -1.381195    0.190556    0.506297
 N   -0.578036   -0.818766    0.245556
 C   -1.088695   -2.050375    0.017603
 C   -0.226588   -3.126901   -0.251138
 C   -0.742051   -4.374535   -0.483950
 C   -2.126584   -4.592052   -0.458739
 C   -2.988395   -3.559711   -0.199442
 C   -2.490583   -2.266728    0.044346
 C   -3.341944   -1.149963    0.309400
 C   -2.764757    0.090929    0.551407
 O   -4.649647   -1.398662    0.345456
 C   -5.583706   -0.374019    0.335218
 C   -5.534289    0.630513   -0.622100
 C   -6.527300    1.597675   -0.631153
Cl   -6.460091    2.853251   -1.811640
 C   -7.563366    1.561856    0.290659
 C   -7.605592    0.540985    1.224265
 C   -6.619835   -0.430177    1.256618
 H    7.275188   -2.464617   -1.717303
 H    7.528810   -2.777886   -0.016073
 H    5.908517   -2.992306   -0.713336
 H    8.052873    1.948154   -0.048480
 H    4.424854   -1.129711   -0.223116
 H    3.810491    2.399101    0.511865
 H    3.628557    0.821161    2.414317
 H    2.896110   -0.400223    1.372060
 H    1.760349    2.377776    1.967727
 H    1.147221    0.831960    2.598902
 H    0.633068    0.037321    0.349102
 H    1.526311    2.850504   -0.439656
 H    0.751107    1.632231   -1.478541
 H    2.653174    0.096585   -1.152592
 H    3.222227    1.647306   -1.774277
 H   -0.940135    2.259836    0.058652
 H   -0.800279    1.842770    1.766722
 H    0.837713   -2.950074   -0.267336
 H   -0.079892   -5.201052   -0.690220
 H   -2.510267   -5.582251   -0.646918
 H   -4.055375   -3.714356   -0.177722
 H   -3.369742    0.953110    0.780885
 H   -4.749659    0.648885   -1.362822
 H   -8.329481    2.319690    0.269188
 H   -8.414525    0.502687    1.936221
 H   -6.644875   -1.229788    1.979169
