59 
5nr7_ligand_dft.xyz
 O   -2.091645   20.820931   -7.310266
 C   -2.795946   21.801118   -7.152571
 C   -4.055707   21.829120   -6.413498
 C   -4.538829   20.546866   -5.807374
 N   -2.433972   23.036937   -7.695385
 C   -3.105650   24.242165   -7.620332
 O   -2.683803   25.256265   -8.143060
 N   -4.292497   24.178939   -6.900479
 C   -4.716115   23.000078   -6.325374
 C   -5.080738   25.411055   -6.745409
 C   -5.150724   25.842260   -5.279690
 C   -6.059272   27.057278   -5.124750
 N   -7.377098   26.753879   -5.663632
 C   -7.314680   26.519346   -7.094619
 C   -6.474315   25.270523   -7.366019
 C   -8.412483   27.662831   -5.214270
 C   -8.783278   27.409494   -3.761869
 N   -9.391486   28.377935   -3.118570
 C   -9.741504   28.150732   -1.818622
 C  -10.418874   29.179304   -1.117020
 C  -10.772615   29.012372    0.197747
 C  -10.463235   27.813353    0.880370
 C   -9.806770   26.797684    0.232651
 C   -9.441204   26.946311   -1.126435
 C   -8.760763   25.944039   -1.869104
 C   -8.462329   26.157284   -3.186067
 O   -8.446906   24.791111   -1.206913
 C   -7.459117   23.995523   -1.749284
 C   -6.141043   24.446359   -1.750146
 C   -5.159334   23.616791   -2.274396
Cl   -3.502568   24.165873   -2.296113
 C   -5.467048   22.358492   -2.785499
 C   -6.790855   21.931435   -2.764004
 C   -7.797438   22.746487   -2.250777
 H   -5.514946   20.680001   -5.331329
 H   -4.627941   19.768982   -6.572242
 H   -3.828204   20.172578   -5.062030
 H   -1.565768   23.062217   -8.214770
 H   -5.648565   23.071235   -5.775162
 H   -4.525438   26.167014   -7.305286
 H   -5.558901   25.031898   -4.663482
 H   -4.143386   26.061363   -4.911222
 H   -6.155094   27.306300   -4.063614
 H   -5.613498   27.938278   -5.626399
 H   -6.889165   27.385244   -7.638816
 H   -8.329451   26.364519   -7.474953
 H   -6.380323   25.096935   -8.443360
 H   -7.000474   24.412161   -6.931589
 H   -8.148241   28.728158   -5.323337
 H   -9.306998   27.496689   -5.827072
 H  -10.641105   30.092696   -1.658676
 H  -11.292448   29.807692    0.723617
 H  -10.746307   27.699467    1.922206
 H   -9.562821   25.873589    0.745607
 H   -7.964014   25.416174   -3.797227
 H   -5.898238   25.426280   -1.355088
 H   -4.681072   21.728284   -3.185601
 H   -7.040771   20.948999   -3.152562
 H   -8.833994   22.429077   -2.233838
