104 
5ntk_ligand_xtb.xyz
 O   -5.479251    0.091467    0.150204
 O   -7.411884   -1.359382   -0.245702
 C    3.821083   -3.089014    1.402424
 C    0.601330   -3.174010   -1.778542
 C   -0.869429   -3.358612   -1.623333
 C   -1.568279   -3.077487   -0.532509
 C   -3.054371   -3.343973   -0.496524
 C   -0.851258   -3.678541    1.756524
 C    2.663316   -2.237229   -0.720013
 C    3.462107   -1.873885    0.545800
 C    4.731195   -1.280262   -0.116736
 C    5.004825   -2.264922   -1.279406
 C    3.677328   -2.988746   -1.578079
 C    5.968576   -1.048137    0.762623
 C    7.173320   -0.544248   -0.057082
 C    6.932536    0.644749   -0.995748
 C    6.443368    1.894136   -0.287450
 C    4.686230    3.631911   -0.333996
 C    3.197602    3.426465   -0.289344
 C    2.599138    2.762415    0.776686
 C    1.248791    2.478869    0.763010
 C    0.465838    2.858245   -0.323633
 C    1.040626    3.553073   -1.376119
 C    2.400031    3.823056   -1.352447
 C   -1.689602    2.694295   -1.375625
 S   -6.038163   -1.109237   -0.416369
 O   -5.206962   -2.339318    0.002650
 C   -3.789966   -2.099249   -0.020353
 C   -3.296901   -1.709478    1.362956
 C   -1.804938   -1.393247    1.306285
 C   -0.934270   -2.535164    0.734779
 C    0.464396   -1.943916    0.402222
 C    1.313228   -2.897494   -0.453888
 O    6.993217    2.395831    0.665996
 N    5.315368    2.423505   -0.833568
 O   -0.868028    2.497205   -0.250995
 C   -2.910336    1.783162   -1.239125
 N   -3.910236    2.204507   -0.231537
 C   -3.356149    2.435839    1.123322
 C   -4.525371    2.654247    2.087605
 O   -5.299115    3.756540    1.685165
 C   -5.838582    3.561318    0.405059
 C   -4.720920    3.376207   -0.629465
 C    5.677403   -0.101699    1.928166
 C    2.596604   -0.890222    1.332314
 C    1.232316   -1.503497    1.654078
 O   -5.710164   -0.962822   -1.965297
 H    4.253665   -2.763708    2.344976
 H    4.544692   -3.721749    0.899755
 H    2.948979   -3.694683    1.627829
 H    0.769828   -2.338732   -2.468159
 H    1.025337   -4.061062   -2.253114
 H   -1.376753   -3.751805   -2.495240
 H   -3.284654   -4.162494    0.188129
 H   -3.405916   -3.632013   -1.487750
 H   -0.520611   -3.314401    2.724786
 H   -1.821847   -4.146699    1.890151
 H   -0.161468   -4.444059    1.414278
 H    2.447742   -1.286951   -1.228327
 H    4.438232   -0.309028   -0.530775
 H    5.366502   -1.737959   -2.161390
 H    5.775407   -2.979637   -0.993067
 H    3.427495   -2.952871   -2.637750
 H    3.723188   -4.036495   -1.282596
 H    6.281902   -2.008959    1.184206
 H    7.556811   -1.364027   -0.667934
 H    7.958934   -0.263522    0.645837
 H    6.247468    0.367778   -1.797238
 H    7.893399    0.899719   -1.450627
 H    5.104617    3.805818    0.660458
 H    4.935138    4.485365   -0.976281
 H    3.199534    2.461115    1.621189
 H    0.781668    1.958490    1.583829
 H    0.455884    3.894361   -2.216104
 H    2.840026    4.357596   -2.181293
 H   -1.163176    2.399006   -2.292469
 H   -1.978443    3.749807   -1.472389
 H   -3.627924   -1.280145   -0.731808
 H   -3.486451   -2.537427    2.045812
 H   -3.859077   -0.845509    1.723104
 H   -1.651375   -0.503214    0.688271
 H   -1.466082   -1.158993    2.315185
 H    0.292332   -1.049185   -0.212122
 H    1.454996   -3.842958    0.071735
 H    4.944327    2.042005   -1.688950
 H   -3.416870    1.705553   -2.202728
 H   -2.548128    0.792709   -0.951928
 H   -4.579007    1.394104   -0.130181
 H   -2.762906    1.573389    1.423656
 H   -2.714526    3.318381    1.103537
 H   -5.142786    1.744515    2.123922
 H   -4.156234    2.887610    3.086906
 H   -6.424125    4.453193    0.177709
 H   -6.494375    2.677551    0.391128
 H   -5.146597    3.210002   -1.619298
 H   -4.086236    4.265142   -0.644551
 H    6.604781    0.289397    2.337490
 H    5.153499   -0.617326    2.728351
 H    5.075807    0.742580    1.604776
 H    3.070058   -0.606616    2.270120
 H    2.456247    0.016447    0.738846
 H    1.383319   -2.355324    2.313249
 H    0.649115   -0.760285    2.200291
 H   -6.298053   -1.518010   -2.480604
