43 
5ntq_ligand_dft.xyz
 O   -4.527080    0.294279    0.859299
 S   -3.100528    0.520122    1.018901
 O   -2.462965    0.510838    2.321008
 C   -2.665252    2.048015    0.214910
 C   -3.500609    2.550485   -0.779104
 C   -3.115098    3.698331   -1.463154
 C   -1.907258    4.321848   -1.156239
 C   -1.083004    3.808761   -0.157746
 C   -1.459921    2.665669    0.538761
 N   -2.340890   -0.645555    0.070602
 C   -3.115190   -1.451480   -0.847199
 C   -3.140185   -2.906019   -0.404325
 F   -1.906102   -3.434412   -0.376946
 F   -3.668956   -3.043839    0.813985
 F   -3.875132   -3.628151   -1.266963
 C   -0.921598   -0.551998   -0.069558
 C   -0.367262   -0.020903   -1.232479
 C    1.008471    0.118626   -1.348524
 C   -0.094971   -0.940435    0.980274
 C    1.280309   -0.781356    0.872283
 C    1.839359   -0.253291   -0.293252
 C    3.340314   -0.035101   -0.420897
 C    4.125885   -1.354523   -0.198137
 F    3.632171   -2.319052   -0.970957
 F    5.416720   -1.178086   -0.539571
 F    4.102264   -1.776714    1.070294
 O    3.625798    0.406069   -1.717914
 C    3.800643    1.074973    0.560892
 F    3.094016    2.186443    0.349911
 F    3.666287    0.732152    1.844381
 F    5.096588    1.370562    0.349996
 H   -4.442549    2.057024   -0.994789
 H   -3.760656    4.108624   -2.233190
 H   -1.609503    5.215785   -1.695662
 H   -0.143905    4.297222    0.081316
 H   -0.832713    2.254566    1.322285
 H   -2.700581   -1.412663   -1.859359
 H   -4.145439   -1.094072   -0.868671
 H   -1.016354    0.310297   -2.037858
 H    1.439507    0.537246   -2.248779
 H   -0.539230   -1.347644    1.880603
 H    1.909256   -1.077444    1.702365
 H    4.582319    0.528766   -1.790213
