88 
5ntt_ligand_dft.xyz
 C  -10.500827   24.747782   -2.109114
 C   -9.394142   25.794320   -2.319785
 C   -9.908398   23.377616   -2.225308
 C   -8.593275   23.118723   -1.883628
 N   -8.375613   21.789632   -2.084100
 N   -9.472194   21.179494   -2.528736
 C  -10.413065   22.126345   -2.612390
 C  -11.782767   21.817331   -3.102364
 N  -11.986319   20.495012   -3.368794
 O  -12.622595   22.695086   -3.236199
 C   -7.172552   21.012203   -1.860628
 C   -7.695520   24.152085   -1.383996
 C   -8.127980   25.474533   -1.557653
 C   -7.272138   26.437314   -1.035297
 N   -6.125947   26.154950   -0.425283
 C   -5.816726   24.853613   -0.329208
 N   -6.551245   23.830098   -0.770642
 N   -4.610146   24.623200    0.289217
 C   -3.948085   23.445553    0.598101
 C   -2.617910   23.548981    1.044871
 C   -1.860127   22.443415    1.366339
 C   -2.414268   21.167482    1.261322
 C   -3.743628   21.049635    0.857998
 C   -4.504749   22.163938    0.529022
 O   -2.058720   24.830748    1.086921
 C   -1.536582   20.007781    1.629312
 N   -1.885739   18.799574    1.110022
 O   -0.556943   20.152215    2.348947
 C   -1.114233   17.598422    1.387731
 C   -1.328327   16.564303    0.285625
 C   -0.565159   15.281170    0.605207
 N   -0.964483   14.740400    1.895435
 C   -0.700154   15.692344    2.967150
 C   -1.469063   16.991317    2.747359
 C   -0.322464   13.466356    2.151126
 C   -1.886565   25.391336    2.310829
 F   -1.002825   24.730020    3.060943
 F   -3.035599   25.446210    2.996494
 F   -1.444090   26.625715    2.120236
 C  -13.148068   19.958879   -3.993001
 C  -13.001069   19.386379   -5.267102
 C  -14.124703   18.827319   -5.872108
 C  -15.357241   18.850769   -5.230655
 C  -15.480748   19.421022   -3.970808
 C  -14.378691   19.977627   -3.319691
 C  -14.481711   20.575238   -1.933677
 C  -15.752563   20.236603   -1.158012
 C  -11.640721   19.402904   -5.937033
 C  -11.610997   18.940838   -7.391568
 H  -10.949636   24.865212   -1.113801
 H  -11.306550   24.877020   -2.833693
 H   -9.151640   25.834315   -3.391134
 H   -9.754348   26.790285   -2.042019
 H   -7.215215   20.146714   -2.521687
 H   -6.296344   21.621404   -2.079481
 H   -7.124896   20.677047   -0.820500
 H  -11.160257   19.912409   -3.312512
 H   -7.521107   27.494937   -1.113624
 H   -4.111323   25.476954    0.496323
 H   -5.537125   22.062614    0.231157
 H   -0.836154   22.554187    1.702593
 H   -4.226100   20.076255    0.829521
 H   -2.606582   18.751456    0.407516
 H   -0.056824   17.890783    1.407283
 H   -2.397934   16.325375    0.208970
 H   -0.997529   16.962185   -0.680942
 H   -1.234090   17.710209    3.537830
 H   -2.545809   16.785277    2.777779
 H   -0.769844   14.529600   -0.165240
 H    0.525275   15.488154    0.574329
 H   -1.003873   15.237424    3.916174
 H    0.384804   15.913350    3.046910
 H   -0.579769   12.755560    1.358894
 H    0.781298   13.541467    2.200883
 H   -0.678208   13.057935    3.102482
 H  -14.045055   18.379696   -6.857212
 H  -11.236955   20.421005   -5.872943
 H  -10.944080   18.777722   -5.359073
 H  -16.227392   18.418308   -5.715937
 H  -16.449183   19.420320   -3.481765
 H  -13.606962   20.249222   -1.356901
 H  -14.382308   21.662880   -2.023396
 H  -15.690257   20.646333   -0.145160
 H  -16.644031   20.665499   -1.627893
 H  -15.900187   19.154074   -1.075214
 H  -12.279152   19.544607   -8.014479
 H  -10.598218   19.036612   -7.794514
 H  -11.908764   17.891764   -7.490948
