56 
5nu1_ligand_dft.xyz
 C    2.579755    2.390002   -0.668378
 C    3.532283    2.713134    0.474635
 O    5.938105    2.333448    1.487623
 O    5.702665    2.510406   -1.041140
 C    4.706234   -0.434673    1.309199
 C    4.358653   -1.774965    1.207136
 C    4.251400   -2.390261   -0.044630
 C    4.564968   -1.656370   -1.192527
 C    4.899329   -0.308362   -1.104439
 C    3.620299   -3.755250   -0.161474
 C    2.087364   -3.699544   -0.154623
 C    0.226589   -2.126548   -0.482719
 C   -2.155232   -1.838118   -0.302833
 C   -3.573268   -2.081779    0.003372
 C   -5.624281   -0.817543   -0.554409
 C   -5.144715    1.145593    1.351562
 C   -1.960791    0.650139   -0.914959
 C   -3.018991    0.877418   -1.794523
 C   -3.493689    2.167939   -1.996867
 C   -2.908354    3.246996   -1.342562
 C   -1.833886    3.011031   -0.491687
 C   -1.350732    1.729862   -0.273155
 S    5.202264    2.061457    0.256224
 C    4.937909    0.295433    0.146376
 O    1.390636   -4.652306    0.128526
 N    1.555080   -2.482360   -0.511209
 N   -0.088734   -0.882316   -0.733634
 C   -1.442928   -0.709269   -0.646500
 S   -1.074147   -3.202244   -0.132797
 O   -4.012957   -3.218816    0.020385
 C   -4.491520   -0.917247    0.256639
 C   -6.485525    0.265928   -0.450270
 C   -6.233377    1.256776    0.494225
 C   -4.287324    0.057661    1.235004
Cl   -2.976833   -0.079529    2.385509
Cl   -1.071955    4.358274    0.326833
 H    3.015037    2.680171   -1.628439
 H    2.322146    1.326883   -0.700958
 H    1.650557    2.951284   -0.531768
 H    3.180001    2.334100    1.438184
 H    3.697391    3.791082    0.573874
 H    4.786367    0.048554    2.277918
 H    4.133569   -2.343373    2.105383
 H    4.505337   -2.132242   -2.167976
 H    5.115409    0.279972   -1.990003
 H    3.902614   -4.414184    0.663759
 H    3.920821   -4.256532   -1.088686
 H   -5.804134   -1.599431   -1.285884
 H   -4.958818    1.892907    2.114790
 H   -3.470397    0.041985   -2.318238
 H   -4.324870    2.337966   -2.673357
 H   -3.271507    4.257363   -1.494637
 H   -0.519393    1.559247    0.401124
 H    2.172562   -1.707606   -0.718840
 H   -7.350751    0.336339   -1.101443
 H   -6.895434    2.112438    0.581745
