36 
5nvf_ligand_xtb.xyz
 C   -5.090633    0.791193    0.783905
 C   -6.462611    0.619505    0.734959
 C   -6.986405   -0.390544   -0.056461
 C   -6.095886   -1.195117   -0.752982
 N   -4.788740   -1.039953   -0.710674
 C   -4.276755   -0.059102    0.032113
 C   -2.812080    0.054959    0.024888
 C   -2.041994   -1.076160   -0.251267
 C   -0.666937   -1.005245   -0.262422
 C   -2.162165    1.261014    0.278940
 C   -0.783707    1.337237    0.257686
 C   -0.016679    0.205080   -0.013949
 C    1.448571    0.234651   -0.036236
 N    2.095570   -0.859740    0.170136
 C    3.462734   -0.828949    0.159871
 C    4.165427   -2.017851    0.392011
 C    5.540959   -2.016713    0.393042
 C    6.253384   -0.839607    0.163916
 C    5.581306    0.339283   -0.067042
 C    4.186241    0.357691   -0.070632
 C    3.453765    1.594363   -0.321631
 O    3.929858    2.686187   -0.551662
 N    2.074805    1.427262   -0.281774
 H   -4.658895    1.555231    1.411261
 H   -7.114271    1.262677    1.309205
 H   -8.050296   -0.554196   -0.125303
 H   -6.446406   -2.006436   -1.378331
 H   -2.550677   -2.005170   -0.454692
 H   -0.064692   -1.876149   -0.465874
 H   -2.734064    2.155421    0.475959
 H   -0.312805    2.283717    0.483688
 H    3.600413   -2.919379    0.568636
 H    6.077988   -2.936600    0.573749
 H    7.332825   -0.856289    0.168230
 H    6.105337    1.265692   -0.248487
 H    1.526017    2.254872   -0.480809
