66 
5nvv_ligand_dft.xyz
 C   -6.142158   -1.349135    0.821452
 C   -5.608946    0.050176    0.749561
 N   -6.348843    1.059381    1.330370
 C   -5.780793    2.210975    1.162239
 S   -4.292426    2.179008    0.283126
 C   -4.452908    0.452955    0.130242
 C   -3.431743   -0.346025   -0.567077
 C   -2.957849   -1.541443   -0.012104
 C   -1.980792   -2.287396   -0.658678
 C   -2.890024    0.084708   -1.782527
 C   -1.905289   -0.658450   -2.421548
 C   -1.439722   -1.852255   -1.871163
 C   -0.324749   -2.632917   -2.533882
 N    0.979236   -2.309414   -1.978400
 C    1.438526   -2.917271   -0.859226
 O    0.906791   -3.888567   -0.335747
 C    2.706962   -2.262246   -0.278155
 C    3.335595   -3.097062    0.830592
 C    2.590650   -2.631290    2.086421
 O    3.277528   -2.832901    3.298408
 C    2.435055   -1.127053    1.863157
 N    2.340416   -1.005824    0.404710
 C    2.225900    0.139968   -0.296434
 O    2.332851    0.164077   -1.529123
 C    1.971443    1.446319    0.468198
 C    0.492565    1.922592    0.386250
 C    0.347093    3.173785    1.264016
 C   -0.420995    0.817475    0.931871
 C    0.067333    2.256856   -1.051211
 N    2.894015    2.434924   -0.046514
 C    4.208054    2.369274    0.293654
 O    4.646764    1.702663    1.218779
 C    5.115181    3.236496   -0.579440
 O    4.562433    3.521106   -1.849236
 H   -7.225184   -1.334084    0.672872
 H   -5.952255   -1.793509    1.805227
 H   -5.688067   -1.991339    0.062932
 H   -6.189447    3.143378    1.533538
 H   -3.343948   -1.874751    0.946317
 H   -1.605526   -3.203026   -0.211154
 H   -3.250266    1.003740   -2.236467
 H   -1.496125   -0.303778   -3.364701
 H   -0.478068   -3.706073   -2.400529
 H   -0.296086   -2.423786   -3.607415
 H    1.402162   -1.411819   -2.206538
 H    3.401487   -2.027834   -1.089836
 H    3.223887   -4.166760    0.644934
 H    4.396097   -2.848057    0.939871
 H    1.600487   -3.105218    2.105597
 H    3.237862   -3.772694    3.508578
 H    1.545691   -0.733420    2.357099
 H    3.322726   -0.602654    2.235284
 H    2.222644    1.315155    1.522418
 H    0.597330    2.955595    2.308792
 H   -0.687120    3.534627    1.233319
 H    1.002460    3.980080    0.921006
 H   -0.170600    0.569863    1.969918
 H   -1.461031    1.157164    0.923330
 H   -0.371474   -0.097336    0.331392
 H    0.196406    1.403146   -1.720303
 H   -0.991336    2.539489   -1.058067
 H    0.628834    3.105042   -1.460101
 H    2.705143    2.841552   -0.953238
 H    5.265947    4.198535   -0.081313
 H    6.088067    2.735892   -0.643223
 H    4.593054    2.710042   -2.372625
