69 
5nvw_ligand_xtb.xyz
 C   -6.177152   -2.711505   -1.094594
 C   -5.803213   -3.908991   -0.296627
 C   -4.722085   -3.078043   -0.941698
 C   -3.895336   -2.221585   -0.046943
 O   -4.331533   -1.690221    0.957427
 N   -2.591564   -2.117534   -0.415958
 C   -1.709286   -1.205783    0.284027
 C   -0.266204   -1.755186    0.389465
 C    0.304969   -2.113020   -0.983664
 C   -0.289055   -3.005063    1.272409
 C    0.609300   -0.684156    1.043460
 C   -1.788857    0.135371   -0.446147
 O   -1.547063    0.211210   -1.650594
 N   -2.194162    1.203438    0.249835
 C   -2.562010    1.254847    1.652409
 C   -2.907927    2.726917    1.907969
 O   -3.864972    2.806778    2.930910
 C   -3.402497    3.204298    0.535524
 C   -2.477568    2.471790   -0.424307
 C   -1.163275    3.252376   -0.647643
 O   -0.855495    4.223966    0.012792
 N   -0.436267    2.749221   -1.655593
 C    0.905380    3.213250   -1.956479
 C    1.917844    2.226797   -1.437795
 C    2.536883    2.422767   -0.210333
 C    3.412848    1.482369    0.296981
 C    2.181172    1.059600   -2.145556
 C    3.050062    0.114078   -1.641758
 C    3.683052    0.314347   -0.415158
 C    4.581523   -0.696670    0.115290
 S    4.221675   -2.391334   -0.077579
 C    5.686050   -2.748096    0.777477
 N    6.358995   -1.725456    1.148780
 C    5.767200   -0.555900    0.794993
 C    6.462260    0.720535    1.123995
 H   -6.632308   -2.844095   -2.064125
 H   -6.509559   -1.837294   -0.556103
 H   -5.992168   -4.891783   -0.700372
 H   -5.884071   -3.838988    0.777126
 H   -4.208398   -3.490593   -1.800424
 H   -2.317105   -2.359713   -1.354981
 H   -2.124689   -1.111557    1.289002
 H   -0.175047   -3.002599   -1.385546
 H    1.368946   -2.318533   -0.893383
 H    0.169499   -1.291481   -1.681181
 H   -0.968386   -3.748677    0.862827
 H    0.706770   -3.437904    1.329167
 H   -0.618204   -2.760781    2.279748
 H    1.622763   -1.058134    1.165366
 H    0.226825   -0.417414    2.026247
 H    0.651685    0.212905    0.429755
 H   -1.744036    0.921053    2.291836
 H   -3.451914    0.645810    1.849100
 H   -2.001035    3.286402    2.177996
 H   -4.083434    3.732523    3.080979
 H   -3.318521    4.283100    0.418192
 H   -4.437901    2.891757    0.396117
 H   -2.933861    2.265756   -1.398381
 H   -0.725419    1.852125   -2.041548
 H    0.999014    3.328153   -3.040654
 H    1.024177    4.184977   -1.472330
 H    2.319514    3.315796    0.356763
 H    3.863701    1.636251    1.264549
 H    1.697648    0.890576   -3.096754
 H    3.248885   -0.789708   -2.199216
 H    5.978532   -3.762040    0.962646
 H    6.209460    1.042818    2.133967
 H    6.184783    1.504086    0.423428
 H    7.536086    0.554931    1.085936
