69 
5nvx_ligand_xtb.xyz
 C   -6.268193   -2.250862   -0.861010
 C   -5.994025   -3.375511    0.085683
 C   -4.852610   -2.679036   -0.598679
 F   -4.219904   -3.371442   -1.605156
 C   -3.941413   -1.794440    0.194460
 O   -4.357819   -1.139475    1.133052
 N   -2.650177   -1.825154   -0.185897
 C   -1.679799   -0.952280    0.440290
 C   -0.282674   -1.613847    0.521625
 C   -0.373009   -2.823993    1.454556
 C    0.700444   -0.595778    1.103377
 C    0.206569   -2.067440   -0.854977
 C   -1.677725    0.358058   -0.350858
 O   -1.506560    0.355860   -1.568214
 N   -1.925376    1.491075    0.316344
 C   -2.197028    1.640518    1.733281
 C   -2.352438    3.152111    1.939256
 O   -3.219762    3.384547    3.017457
 C   -2.884119    3.627003    0.579962
 C   -2.118854    2.752541   -0.401911
 C   -0.748009    3.370939   -0.756878
 O   -0.279631    4.316081   -0.154905
 N   -0.169925    2.767197   -1.805332
 C    1.186876    3.070855   -2.222949
 C    2.138465    2.056667   -1.645559
 C    2.312509    0.824159   -2.263869
 C    3.118882   -0.139022   -1.693172
 C    2.782089    2.301968   -0.439410
 C    3.594563    1.343524    0.134478
 C    3.775062    0.108638   -0.487867
 C    4.602257   -0.920386    0.118618
 S    4.111978   -2.592604    0.075179
 C    5.554708   -2.985629    0.951098
 N    6.308024   -1.989640    1.228358
 C    5.802984   -0.812902    0.777209
 C    6.595876    0.430878    0.989052
 H   -6.566259   -1.297525   -0.453756
 H   -6.676030   -2.484974   -1.832005
 H   -6.214161   -4.381880   -0.234343
 H   -6.100969   -3.193700    1.143565
 H   -2.398623   -2.226234   -1.076689
 H   -2.050795   -0.775840    1.452058
 H    0.590429   -3.325434    1.503604
 H   -0.654891   -2.518265    2.459628
 H   -1.113470   -3.533066    1.092410
 H    0.381435   -0.267316    2.090128
 H    1.684217   -1.047635    1.200940
 H    0.790885    0.274067    0.456621
 H    1.255606   -2.346741   -0.793777
 H    0.104098   -1.267069   -1.582127
 H   -0.349610   -2.934901   -1.203297
 H   -3.139170    1.151632    2.007224
 H   -1.386512    1.237682    2.341169
 H   -1.370463    3.610894    2.122200
 H   -3.317382    4.334746    3.139153
 H   -2.685654    4.682735    0.404890
 H   -3.955701    3.433102    0.523977
 H   -2.666898    2.556409   -1.329548
 H   -0.578413    1.890979   -2.125339
 H    1.419366    4.072701   -1.855414
 H    1.222507    3.060185   -3.315731
 H    1.808958    0.617522   -3.197039
 H    3.249306   -1.094015   -2.181176
 H    2.630936    3.248273    0.058416
 H    4.064549    1.537538    1.085622
 H    5.770837   -3.999257    1.222514
 H    7.653832    0.183344    0.951657
 H    6.363240    1.171851    0.228385
 H    6.386320    0.853979    1.971350
