56 
5nvy_ligand_xtb.xyz
 C    1.635186    5.275433   -1.340800
 C    1.706076    4.239662   -0.240186
 O    2.232825    4.429056    0.835165
 N    1.086215    3.075848   -0.555536
 C    1.170333    1.907751    0.289894
 C   -0.230852    1.379290    0.609006
 C    1.947608    0.828478   -0.461733
 O    1.883303    0.760952   -1.686586
 N    2.667821   -0.034321    0.262611
 C    2.833548   -0.033056    1.701880
 C    3.684232   -1.275281    1.999352
 O    4.472943   -1.027188    3.133126
 C    4.483370   -1.465675    0.701117
 C    3.479729   -1.075229   -0.372549
 C    2.557761   -2.257410   -0.742517
 O    2.523351   -3.286475   -0.098615
 N    1.819813   -2.010259   -1.835906
 C    0.676573   -2.835451   -2.187181
 C   -0.562439   -2.220816   -1.591353
 C   -1.294603   -1.274224   -2.296907
 C   -2.366377   -0.635046   -1.707191
 C   -0.917793   -2.505294   -0.278558
 C   -1.991166   -1.871324    0.315767
 C   -2.734744   -0.928168   -0.393819
 C   -3.850496   -0.232823    0.223303
 S   -4.131879    1.455249   -0.105417
 C   -5.501837    1.379613    0.952785
 N   -5.722192    0.231906    1.473810
 C   -4.812604   -0.698448    1.087104
 C   -4.972400   -2.095648    1.580259
 H    2.155564    4.911377   -2.224062
 H    2.103409    6.194302   -1.001073
 H    0.598019    5.471991   -1.601810
 H    0.806777    2.895969   -1.508861
 H    1.689998    2.218964    1.199680
 H   -0.179297    0.479602    1.216664
 H   -0.751263    1.138003   -0.315508
 H   -0.797469    2.136543    1.144239
 H    1.873426   -0.066233    2.218238
 H    3.388360    0.850324    2.036896
 H    3.036833   -2.148766    2.156378
 H    4.996668   -1.811545    3.327352
 H    4.818564   -2.492883    0.571748
 H    5.339832   -0.790704    0.701672
 H    3.939336   -0.673479   -1.280789
 H    1.820052   -1.055922   -2.191079
 H    0.606722   -2.890554   -3.276011
 H    0.856515   -3.830844   -1.775531
 H   -1.019715   -1.033018   -3.313404
 H   -2.930422    0.101014   -2.262201
 H   -0.335449   -3.220972    0.282808
 H   -2.237543   -2.082083    1.344488
 H   -6.102869    2.247981    1.133475
 H   -4.487579   -2.216392    2.548890
 H   -4.542140   -2.805869    0.878626
 H   -6.031861   -2.301791    1.710237
