74 
5nvz_ligand_dft.xyz
 C   -5.172213   -1.166163   -1.970351
 C   -6.198525   -0.658583   -1.018177
 C   -5.085987   -1.546989   -0.500998
 C   -5.495227   -2.950129   -0.133420
 O   -6.227740   -3.586672   -0.862787
 C   -4.993977   -3.497206    1.182738
 C   -4.001245   -0.880056    0.310392
 O   -4.211620   -0.021680    1.153269
 N   -2.743646   -1.341747    0.027469
 C   -1.603281   -0.607102    0.539809
 C   -0.288814   -1.434296    0.455348
 C    0.860033   -0.595985    1.030974
 C   -0.459196   -2.699489    1.308270
 C    0.058713   -1.835906   -0.985760
 C   -1.530213    0.722304   -0.224826
 O   -1.642089    0.722112   -1.456923
 N   -1.352685    1.860658    0.474472
 C   -1.422720    2.003390    1.931721
 C   -1.203329    3.499583    2.154684
 O   -1.823193    3.865139    3.364403
 C   -1.807278    4.132678    0.896703
 C   -1.402744    3.167526   -0.210516
 C   -0.012149    3.489254   -0.791106
 O    0.750183    4.285378   -0.257358
 N    0.274305    2.801775   -1.921912
 C    1.614807    2.794361   -2.484495
 C    2.490585    1.729306   -1.859791
 C    3.127367    1.963717   -0.638281
 C    3.873097    0.964016   -0.027219
 C    2.628096    0.476443   -2.456352
 C    3.380701   -0.523031   -1.851877
 C    4.013460   -0.294424   -0.625905
 C    4.783332   -1.358119    0.040096
 S    4.163975   -2.980088    0.158126
 C    5.592883   -3.431675    1.021438
 N    6.450934   -2.479846    1.207543
 C    6.007513   -1.295724    0.655865
 C    6.895226   -0.091205    0.750143
 H   -5.458870   -1.964924   -2.646945
 H   -4.418389   -0.472500   -2.334008
 H   -6.158398    0.379036   -0.704346
 H   -7.185127   -1.108201   -1.055542
 H   -5.466744   -4.459707    1.381381
 H   -3.905498   -3.617979    1.149354
 H   -5.211839   -2.791221    1.991890
 H   -2.629835   -1.759340   -0.886029
 H   -1.811706   -0.418490    1.594381
 H    0.669803   -0.327733    2.076739
 H    1.028840    0.322745    0.459368
 H    1.791100   -1.170306    1.007139
 H    0.470930   -3.278655    1.305941
 H   -1.259213   -3.339688    0.923215
 H   -0.696849   -2.448122    2.348489
 H   -0.691102   -2.509185   -1.418635
 H    1.012581   -2.374772   -0.991019
 H    0.156064   -0.964864   -1.637242
 H   -2.415094    1.714822    2.296659
 H   -0.660571    1.403986    2.431889
 H   -0.126740    3.714379    2.176256
 H   -1.556145    4.767472    3.572934
 H   -2.896713    4.152122    1.003613
 H   -1.435590    5.141880    0.710595
 H   -2.134565    3.108720   -1.021066
 H   -0.360916    2.042221   -2.157903
 H    2.042003    3.786434   -2.322576
 H    1.527555    2.633092   -3.563121
 H    3.007638    2.929622   -0.156386
 H    4.332051    1.148371    0.939236
 H    2.142954    0.277674   -3.409156
 H    3.486277   -1.488040   -2.339815
 H    5.736543   -4.448230    1.368155
 H    6.628324    0.661458    0.004436
 H    6.827951    0.370735    1.741839
 H    7.935510   -0.390479    0.597802
