37 
5nx9_ligand_xtb.xyz
 P   -1.151145   -2.468637   -0.363988
 O   -1.449974   -3.029714    0.954855
 O    0.362698   -2.450765   -0.806536
 O   -1.867657   -3.214068   -1.575084
 O   -1.618488   -0.949504   -0.580095
 C   -2.851425   -0.590369    0.025212
 C   -2.801199    0.855526    0.528729
 O   -1.793899    1.018566    1.520445
 C   -2.480546    1.882349   -0.568826
 O   -3.069449    3.112559   -0.262403
 C   -0.947549    1.952344   -0.509174
 O   -0.477350    3.212738   -0.871702
 C   -0.651939    1.594184    0.972756
 N    0.479583    0.695313    1.024974
 C    0.585857   -0.541898    1.578983
 N    1.715452   -1.137482    1.311235
 C    2.419608   -0.240850    0.541843
 C    3.689411   -0.247322   -0.064369
 N    4.540758   -1.279345    0.025664
 N    4.055217    0.827220   -0.770598
 C    3.223093    1.844989   -0.886237
 N    2.012100    1.977414   -0.371027
 C    1.644736    0.911045    0.347849
 H    0.934335   -2.267437   -0.044530
 H   -1.939031   -4.148857   -1.386993
 H   -3.032867   -1.256567    0.874309
 H   -3.659737   -0.699806   -0.703362
 H   -3.757221    1.096986    1.002941
 H   -2.822203    1.531519   -1.551876
 H   -2.446251    3.801420   -0.537205
 H   -0.530441    1.166135   -1.152564
 H    0.498180    3.166502   -0.843802
 H   -0.395020    2.504727    1.539586
 H   -0.195212   -0.967860    2.176228
 H    4.300277   -2.073406    0.590505
 H    5.445501   -1.201588   -0.402881
 H    3.577778    2.677448   -1.478700
