32 
5nxi_ligand_dft.xyz
 C    2.460027    0.390778   -1.463551
 C    3.835801    0.205281   -1.398714
 C    4.391864   -0.329675   -0.244574
 S    6.151135   -0.571449   -0.153503
 O    6.411825   -1.838473    0.510338
 O    6.698033   -0.267343   -1.467709
 N    6.629478    0.608427    0.936152
 C    3.593469   -0.702042    0.834886
 C    2.219980   -0.538225    0.760558
 C    1.651675    0.018614   -0.389810
 N    0.236469    0.143887   -0.497717
 S   -0.579094    1.211731    0.543635
 O   -0.143573    0.894667    1.890866
 O   -0.500636    2.574057    0.038975
 C   -2.241952    0.632759    0.293818
 C   -2.591045   -0.642066    0.733982
 C   -3.893458   -1.086329    0.558638
 C   -4.823681   -0.244058   -0.047955
Br   -6.597226   -0.851039   -0.287099
 C   -4.477164    1.031318   -0.479170
 C   -3.170280    1.475593   -0.305166
 H    2.015847    0.828530   -2.353063
 H    4.474656    0.474977   -2.232263
 H    7.304361    0.214031    1.584559
 H    6.998488    1.424551    0.457816
 H    4.044422   -1.138336    1.719639
 H    1.583476   -0.834995    1.584216
 H   -0.058726    0.346648   -1.449977
 H   -1.851187   -1.278957    1.206846
 H   -4.188677   -2.074934    0.890756
 H   -5.218785    1.671286   -0.943142
 H   -2.871867    2.467903   -0.625478
