32 
5nxo_ligand_xtb.xyz
 C   -2.115494    0.360376   -1.019978
 C   -3.206276   -0.483357   -1.022014
 C   -4.182446   -0.332981   -0.043027
 N   -5.327058   -1.207066   -0.040054
 O   -5.399442   -2.043516   -0.914867
 O   -6.150563   -1.052587    0.837046
 C   -4.070551    0.649840    0.931965
 C   -2.972057    1.486594    0.922239
 C   -1.987182    1.354205   -0.051374
 C   -0.789484    2.262386   -0.072256
 C    0.498645    1.480354   -0.067581
 C    1.484172    1.719297   -1.018189
 C    2.666298    0.998204   -0.998580
 C    2.851182    0.035840   -0.028642
 S    4.386485   -0.864316    0.020511
 O    4.189090   -2.114362    0.693140
 O    4.995736   -0.844236   -1.276750
 N    5.291424    0.136060    1.032612
 C    1.884092   -0.223662    0.921457
 C    0.706708    0.501574    0.900790
 H   -1.349232    0.251621   -1.772551
 H   -3.320291   -1.256914   -1.765618
 H   -4.843083    0.741839    1.679912
 H   -2.879651    2.252374    1.677950
 H   -0.814231    2.921479    0.799112
 H   -0.830918    2.889094   -0.966592
 H    1.327825    2.472812   -1.776181
 H    3.442048    1.156779   -1.730203
 H    5.540827   -0.330093    1.889736
 H    6.105106    0.500100    0.564060
 H    2.064146   -0.996274    1.651338
 H   -0.061078    0.308883    1.635537
