39 
5nxp_ligand_xtb.xyz
 C    1.548979    1.326092   -0.706720
 C    2.873971    0.932150   -0.708795
 C    3.247302   -0.224911   -0.055129
 S    4.962168   -0.688306   -0.012704
 O    5.079649   -2.082702    0.302394
 O    5.637307   -0.165205   -1.164188
 N    5.481506    0.187780    1.334042
 C    2.319203   -1.010133    0.600027
 C    0.992973   -0.626533    0.605319
 C    0.600057    0.548029   -0.042168
 N   -0.745742    0.892156    0.005144
 C   -1.381090    1.979027   -0.508431
 O   -0.861497    2.879554   -1.125717
 C   -2.890348    1.960550   -0.229115
 N   -3.309263    0.921914    0.684240
 C   -3.504797    1.353827    2.049337
 C   -4.010847   -0.175604    0.191033
 C   -5.001603   -0.819893    0.933818
 C   -5.637710   -1.941293    0.434488
 C   -5.311732   -2.444682   -0.811977
 C   -4.329164   -1.813803   -1.556338
 C   -3.679563   -0.699896   -1.063350
 H    1.237343    2.225561   -1.211165
 H    3.627755    1.505528   -1.223409
 H    5.830700   -0.418148    2.058470
 H    6.162104    0.885579    1.080991
 H    2.650607   -1.914200    1.084562
 H    0.252393   -1.232330    1.107663
 H   -1.356483    0.247241    0.499097
 H   -3.397407    1.861931   -1.194335
 H   -3.158507    2.946959    0.164257
 H   -2.693813    2.030585    2.318192
 H   -4.458259    1.875702    2.199106
 H   -3.464361    0.494462    2.717680
 H   -5.295207   -0.442628    1.900133
 H   -6.403550   -2.419663    1.027336
 H   -5.814493   -3.317639   -1.198279
 H   -4.056747   -2.196822   -2.528734
 H   -2.899736   -0.242912   -1.654209
