46 
5ny1_ligand_dft.xyz
 C    5.313166   -0.321550   -1.513293
 C    4.127184   -0.569561   -0.817669
 C    3.134437   -1.618794   -0.840252
 C    3.874420    2.457882    1.534252
 C    2.217049   -1.257963    0.094949
 C    3.708269    0.348457    0.147945
 C    4.389433    1.515347    0.481066
 C    0.966605   -1.910064    0.534717
 C    6.014903    0.831642   -1.204914
 O   -6.527629    1.512345    0.268257
 S   -5.655348    0.959353   -0.757152
 O   -6.147464    0.058769   -1.787598
 N   -4.926326    2.235061   -1.568348
 C   -4.291674    0.168187    0.067460
 C   -4.082024    0.408099    1.418348
 C   -3.007057   -0.210482    2.051912
 C   -3.460834   -0.686174   -0.656021
 C   -2.394912   -1.295516   -0.012518
 C   -2.156832   -1.058626    1.346704
 C   -0.975782   -1.720907    2.026455
 N    0.302215   -1.253668    1.524794
 O    0.572775   -2.962463    0.042535
 C    3.152770   -2.825006   -1.720372
 O    2.541204   -0.066884    0.710798
 C    5.574921    1.746193   -0.226785
 C    6.385770    2.984366    0.062181
 H    5.673928   -1.009953   -2.271304
 H    2.939469    2.093974    1.965804
 H    3.689479    3.454710    1.117633
 H    4.598945    2.576863    2.348080
 H    6.940262    1.046554   -1.732438
 H   -5.162736    3.119840   -1.130400
 H   -5.197803    2.214631   -2.546511
 H   -4.757269    1.058293    1.963793
 H   -2.836576   -0.031726    3.110525
 H   -3.661863   -0.880598   -1.704215
 H   -1.739408   -1.970600   -0.555177
 H   -1.002004   -2.800279    1.857136
 H   -1.011790   -1.546649    3.106420
 H    0.635377   -0.341513    1.798439
 H    3.164404   -2.525650   -2.774673
 H    2.279381   -3.450596   -1.536912
 H    4.058888   -3.414154   -1.538293
 H    5.803653    3.896119   -0.118507
 H    7.279205    3.028631   -0.566188
 H    6.710849    3.015408    1.109168
