17 
5nya_ligand_xtb.xyz
 C    3.061315   -0.002551   -0.069948
 C    2.376641    1.202418   -0.031334
 C    0.993390    1.206456    0.047544
 C    0.321576    0.002169    0.088104
 C    0.989487   -1.204541    0.053305
 C    2.372612   -1.205126   -0.026187
 S   -1.458269    0.004494    0.151141
 O   -1.922897   -1.219195    0.736662
 O   -1.922654    1.257518    0.670973
 N   -1.823246   -0.038536   -1.495887
 H    4.139536   -0.004396   -0.129656
 H    2.919917    2.134752   -0.060256
 H    0.424705    2.121415    0.092042
 H    0.418879   -2.117987    0.102862
 H    2.912817   -2.139260   -0.051513
 H   -2.318129   -0.879325   -1.745287
 H   -2.328406    0.783105   -1.785235
