44 
5nyz_ligand_dft.xyz
 O   -2.362746    4.659512    0.410272
 C   -2.592161    3.470532    0.441105
 C   -3.063342    2.694535    1.576474
 C   -3.276596    1.378337    1.437415
 N   -2.423875    2.679421   -0.710137
 C   -2.607654    1.333237   -0.863456
 O   -2.401258    0.792665   -1.949111
 N   -3.093657    0.677003    0.253699
 C   -3.173238   -0.779389    0.404076
 C   -3.192499   -1.685506   -0.824851
 C   -2.693770   -2.991629   -0.222899
 O   -3.800987   -3.620196    0.397132
 O   -2.050495   -1.182186    1.163286
 C   -1.663964   -2.504325    0.820460
 C   -0.211887   -2.519621    0.373198
 O   -0.055610   -1.935179   -0.930304
 P    0.518126   -0.454866   -1.146410
 O    0.160546    0.519198   -0.076314
 O    0.030599   -0.079436   -2.592070
 N    2.167342   -0.728514   -1.302833
 P    3.300156    0.504598   -1.138800
 O    2.916440    1.752249   -1.803424
 O    4.665026   -0.194381   -1.605684
 O    3.620085    0.625105    0.440151
 P    2.908278   -0.102808    1.720188
 O    2.701119   -1.546331    1.467147
 O    1.673082    0.790289    2.081077
 O    3.908130    0.261240    2.901244
 H   -3.226424    3.198911    2.518450
 H   -3.608142    0.764901    2.266723
 H   -2.065267    3.156027   -1.528669
 H   -4.083774   -0.955844    0.990349
 H   -2.503739   -1.339879   -1.588016
 H   -4.189283   -1.789670   -1.255698
 H   -2.236871   -3.641894   -0.979439
 H   -3.503245   -4.447361    0.794139
 H   -1.725834   -3.131234    1.721713
 H    0.137250   -3.552167    0.280052
 H    0.416412   -2.010700    1.108034
 H   -0.858321    0.353951   -2.541755
 H    2.467431   -1.626352   -0.929882
 H    4.824582   -0.019395   -2.543868
 H    0.991701    0.782578    1.351322
 H    4.535686   -0.458526    3.050413
