24 
5nzo_ligand_xtb.xyz
 C    1.861794    1.176566   -0.050872
 C    1.208024   -0.054961   -0.001962
 C    1.972860   -1.218810    0.048203
 C   -0.245184   -0.100695   -0.002143
 C   -1.089878   -1.232292   -0.033236
 C   -2.369976   -0.720230   -0.022720
 C   -3.306241    1.597692    0.059761
 N   -2.251361    0.628881    0.014458
 N   -0.970937    1.011581    0.023998
 C    3.240813    1.240114   -0.050317
 N   -3.602167   -1.349300    0.037966
 C    3.353404   -1.150501    0.048417
 C    3.992694    0.076759   -0.001267
 H    1.262265    2.072536   -0.088177
 H    1.486941   -2.181806    0.091147
 H   -0.815591   -2.266286   -0.060184
 H   -3.885714    1.593699   -0.868348
 H   -3.973544    1.397940    0.900717
 H   -2.844525    2.574393    0.184837
 H    3.735839    2.200127   -0.088383
 H   -3.562005   -2.321451   -0.229379
 H   -4.349568   -0.854825   -0.428198
 H    3.935267   -2.060575    0.088688
 H    5.072032    0.126253   -0.000845
