15 
5nzp_ligand_xtb.xyz
 C   -1.582747   -1.236634    0.000597
 C   -0.250186   -0.860512   -0.000394
 C    0.137888    0.482940   -0.001397
 C    1.607489    0.500076   -0.000010
 N    1.932699   -0.831283   -0.003027
 C   -2.519498   -0.218592    0.001065
 C   -0.814174    1.491556   -0.001284
 C   -2.145894    1.123493   -0.000003
 O    0.828772   -1.687455    0.000169
 O    2.407598    1.405119    0.002172
 H   -1.866162   -2.275972    0.001329
 H    2.834839   -1.275315    0.008975
 H   -3.568549   -0.473317    0.002495
 H   -0.505598    2.524570   -0.002137
 H   -2.911653    1.883741    0.000357
