26 
5o07_ligand_dft.xyz
 S    2.587855   -0.248434   -0.364225
 O    3.368947   -1.464010   -0.397191
 O    2.849813    0.846304   -1.262333
 O    1.027924   -0.579674   -0.611961
 N    2.519587    0.206454    1.233097
 C    0.442391   -1.661507    0.123602
 C   -0.589612   -1.115884    1.099693
 N   -3.460076   -0.071053   -0.852968
 N   -0.735295    1.946379    0.366739
 C   -1.658282    0.940603   -0.011317
 C   -2.783728    1.100398   -0.780391
 C   -2.754565   -0.938696   -0.144270
 C   -3.129009   -2.371072    0.035264
 N   -1.645602   -0.377626    0.413916
 O   -0.807088    3.013733   -0.216318
 O    0.061904    1.704195    1.278829
 H    3.451404    0.208466    1.637023
 H    2.040588    1.100501    1.339113
 H    1.207874   -2.226692    0.661671
 H   -0.019172   -2.314548   -0.621549
 H   -0.115650   -0.456611    1.822718
 H   -1.056716   -1.948088    1.632694
 H   -3.125881    2.007737   -1.255697
 H   -4.062282   -2.542526   -0.502034
 H   -2.368265   -3.049080   -0.366402
 H   -3.283032   -2.620728    1.090889
