18 
5o0b_ligand_dft.xyz
 C   16.830890   24.010986  -39.469000
 O   19.794885   23.414765  -41.524238
 C   19.063684   23.537276  -40.567775
 O   19.502901   23.362885  -39.304319
 C   17.622703   23.886037  -40.639939
 C   17.075750   24.086092  -41.895750
 C   15.721249   24.414579  -41.974844
 C   14.795884   24.693851  -43.023902
Br   15.185443   24.700972  -44.846758
 N   13.596961   24.956117  -42.574150
 N   13.692265   24.858970  -41.225098
 C   14.944858   24.536044  -40.805352
 C   15.493858   24.334293  -39.528606
 H   17.299362   23.845720  -38.505610
 H   20.444260   23.141333  -39.379210
 H   17.691449   23.987742  -42.783767
 H   14.895915   24.427792  -38.628359
 H   12.866681   25.026546  -40.674322
