37 
5o0j_ligand_xtb.xyz
 P   -3.657377    0.724578   -0.522911
 O   -4.719813    0.617135   -1.709713
 O   -2.328823    1.014253   -1.324145
 O   -4.020458    1.641626    0.551994
 O   -3.542753   -0.792517   -0.001938
 C   -2.897442   -1.763346   -0.795995
 C   -1.501639   -2.097733   -0.260800
 O   -0.503835   -1.306166   -0.883267
 C   -1.291988   -1.819058    1.241155
 O   -1.824152   -2.796425    2.090490
 C    0.243576   -1.819176    1.328494
 O    0.755848   -3.086330    1.605951
 C    0.665798   -1.398816   -0.106765
 N    1.367173   -0.147628   -0.126702
 C    2.709522    0.073210   -0.329579
Br    3.863620   -1.277705   -0.846175
 N    3.096682    1.292125   -0.132163
 C    1.956870    1.963203    0.229879
 C    1.690295    3.297805    0.591324
 N    2.632361    4.246323    0.631825
 N    0.432023    3.620457    0.911347
 C   -0.511476    2.704321    0.852068
 N   -0.387525    1.424341    0.519844
 C    0.867796    1.078561    0.232035
 H   -5.303302    1.371926   -1.663052
 H   -1.583824    1.099989   -0.691822
 H   -2.799411   -1.420094   -1.827806
 H   -3.522231   -2.660465   -0.766689
 H   -1.288462   -3.161510   -0.455006
 H   -1.671378   -0.817427    1.475660
 H   -2.776395   -2.664264    2.143714
 H    0.604478   -1.090358    2.069482
 H    0.102302   -3.548339    2.151292
 H    1.335893   -2.176659   -0.506900
 H    2.371030    5.181228    0.890293
 H    3.578719    4.017387    0.386471
 H   -1.514435    3.023818    1.099225
