28 
5o0s_ligand_xtb.xyz
 C    0.515773   -0.511859   -1.151388
 C   -0.098050   -1.634126   -0.300879
 C   -1.612113   -1.458550   -0.159769
 C   -1.927334   -0.108430    0.499677
 C   -1.394602    1.026878   -0.375061
 C   -1.676211    2.395449    0.248830
 C    0.101028    0.871986   -0.641640
 O    1.921061   -0.520996   -0.989744
 O    0.129233   -2.894962   -0.886169
 O   -2.159769   -2.468891    0.648763
 O   -3.313030    0.045944    0.653190
 O   -1.343899    3.381190   -0.704151
 O    0.868643    1.016340    0.542323
 S    2.258070    0.236813    0.393127
 O    3.335299    1.125920    0.178901
 O    2.362302   -0.705529    1.448274
 H    0.300337   -0.663828   -2.212746
 H    0.362640   -1.587757    0.697091
 H   -2.071429   -1.494632   -1.161630
 H   -1.430860   -0.079611    1.482505
 H   -1.908992    0.994732   -1.340491
 H   -2.740125    2.442098    0.510120
 H   -1.070171    2.504640    1.156342
 H    0.421013    1.646077   -1.351041
 H    1.080970   -3.024284   -0.970958
 H   -1.778332   -3.307875    0.360959
 H   -3.650214   -0.788332    1.006718
 H   -1.493626    4.249554   -0.316621
