37 
5o11_ligand_dft.xyz
 C   46.182266   -4.702809   37.648763
 C   45.129511   -5.511876   38.124432
 C   44.811382   -5.480552   39.496134
 C   45.513079   -4.678302   40.368312
 C   46.564958   -3.875303   39.890021
 C   46.892210   -3.889311   38.548279
 C   44.849397   -6.294736   35.800215
 C   44.445496   -6.339676   37.147368
 N   46.559531   -4.652438   36.325045
 C   45.943163   -5.379722   35.446629
 C   43.163410   -7.945021   35.335977
 N   42.756714   -7.989057   36.616228
 C   43.386087   -7.212357   37.476931
 C   44.183257   -7.132754   34.889277
 N   46.304814   -5.315793   34.122911
 C   47.302125   -4.569397   33.477360
 C   48.223636   -3.751815   34.138317
 C   49.172447   -3.072528   33.382570
 C   49.242584   -3.171850   32.000044
 C   48.317896   -3.990282   31.357450
 C   47.359226   -4.681682   32.080477
Cl   50.320530   -2.052302   34.220376
 C   47.354777   -2.991918   40.790581
 O   48.267598   -2.282078   40.437320
 O   46.949348   -3.055802   42.074623
 H   44.005184   -6.092041   39.885995
 H   45.259833   -4.662352   41.421826
 H   47.700326   -3.269411   38.175776
 H   42.637645   -8.599605   34.645990
 H   43.036347   -7.278173   38.503495
 H   44.446051   -7.180894   33.837727
 H   45.734359   -5.848575   33.488777
 H   48.189568   -3.650941   35.212135
 H   49.996006   -2.626110   31.444371
 H   48.346883   -4.088657   30.276876
 H   46.646411   -5.315878   31.558321
 H   47.524945   -2.449005   42.566070
