40 
5o2d_ligand_dft.xyz
 O   24.189387  -20.625469  -21.787700
 S   24.000176  -19.186088  -21.695157
 O   24.995158  -18.335802  -21.057996
 C   23.706768  -18.543357  -23.329845
 N   22.543367  -18.878998  -20.880054
 C   21.800625  -19.977651  -20.349860
 C   21.032718  -20.786644  -21.198049
 C   20.340910  -21.865487  -20.641531
 C   20.368550  -22.114428  -19.274116
 C   21.107510  -21.283647  -18.438003
 C   21.832753  -20.229198  -18.978248
 C   20.927239  -20.527399  -22.659237
 C   20.181452  -19.466470  -23.167254
 C   20.052497  -19.249459  -24.545191
 C   20.671299  -20.093389  -25.459078
 C   21.437704  -21.156931  -24.981749
 C   21.554718  -21.361702  -23.589833
 C   22.258377  -22.172578  -25.612716
 C   22.839902  -22.922080  -24.568249
 N   22.365879  -22.454933  -23.352650
 C   22.558173  -22.485899  -26.939496
 C   23.440010  -23.524543  -27.200573
 C   24.022109  -24.249938  -26.149784
 C   23.730447  -23.963740  -24.823625
 H   23.461932  -17.484441  -23.242758
 H   24.636521  -18.676617  -23.886642
 H   22.893658  -19.094344  -23.801154
 H   22.742523  -18.164161  -20.186842
 H   19.757888  -22.501264  -21.301325
 H   19.810854  -22.950135  -18.863388
 H   21.137517  -21.465465  -17.368279
 H   22.444062  -19.601086  -18.335625
 H   19.692458  -18.794852  -22.467980
 H   19.457627  -18.413038  -24.898321
 H   20.570756  -19.920767  -26.526794
 H   22.874243  -22.550663  -22.485113
 H   22.112161  -21.921425  -27.753634
 H   23.685916  -23.779434  -28.226664
 H   24.714288  -25.054999  -26.378026
 H   24.179868  -24.529478  -24.013461
