39 
5o48_ligand_dft.xyz
 N    3.717608    1.238147    0.252213
 C    3.362264   -0.912084    1.361771
 C    2.856338    0.285291    0.696004
 C   -0.595343    1.886450   -0.939829
 C    0.262483    0.020618    0.360746
 C    1.546505    0.589649    0.263223
 C   -2.169613    0.070582   -0.157245
 C   -2.386609   -1.204477   -0.688111
 C   -3.630399   -1.824212   -0.635775
 C   -4.669604   -1.136215   -0.035246
 C   -3.068288    2.104903    1.086491
 F   -5.885818   -1.708194    0.029740
 C   -4.493089    0.124787    0.509873
 C   -3.243335    0.743779    0.458610
 C   -0.806130    0.666414   -0.235480
 C    0.652475    2.457108   -1.047651
 C    1.745130    1.804695   -0.443920
 N    3.063506    2.162355   -0.434859
 N    3.975605   -1.923792    0.328371
 C    5.276912   -1.408731   -0.187741
 C    3.020640   -2.209380   -0.776080
 H    2.579502   -1.481090    1.871915
 H    4.189581   -0.714372    2.049509
 H   -1.448698    2.360807   -1.417041
 H    0.088195   -0.902508    0.913413
 H   -1.555374   -1.714595   -1.166928
 H   -3.799545   -2.810565   -1.053573
 H   -2.102164    2.185594    1.592474
 H   -3.100819    2.900686    0.334184
 H   -3.862336    2.302514    1.812691
 H   -5.336901    0.614766    0.986097
 H    0.804464    3.383750   -1.593146
 H    4.152104   -2.797750    0.827398
 H    5.611746   -2.036687   -1.014997
 H    5.115536   -0.370373   -0.495642
 H    6.004584   -1.432020    0.624918
 H    2.860286   -1.285701   -1.331611
 H    3.441993   -2.986127   -1.416545
 H    2.071157   -2.534607   -0.348697
