71 
5o4z_ligand_dft.xyz
 O   -0.672448    3.863218   -1.451420
 P   -1.171869    2.506707   -1.149751
 O   -2.535455    2.069820   -1.806649
 O   -0.113942    1.374782   -1.588316
 O   -1.512608    2.228493    0.394187
 C   -0.619307    1.711246    1.367150
 C   -1.030856    0.300051    1.733437
 O   -2.373221    0.279940    2.179599
 C   -1.030715   -0.666296    0.562164
 O    0.313065   -1.054073    0.311381
 C   -1.979789   -1.785021    1.017266
 O   -1.336663   -2.788190    1.750204
 C   -2.906535   -1.010561    1.986907
 N   -4.280083   -0.903550    1.551783
 C   -5.351919   -1.382825    2.277381
 N   -6.497216   -1.290230    1.668383
 C   -6.170910   -0.713076    0.459425
 C   -6.969029   -0.399856   -0.656539
 N   -8.294792   -0.611662   -0.664364
 N   -6.383536    0.116691   -1.746905
 C   -5.070580    0.331996   -1.708205
 N   -4.204914    0.098585   -0.713637
 C   -4.808482   -0.450252    0.359056
 P    0.595785   -2.063725   -0.895870
 O    0.073742   -1.326839   -2.203255
 O    0.064008   -3.432585   -0.733451
 O    2.191119   -1.946737   -0.870519
 C    2.998934   -2.917215   -1.547468
 C    4.449700   -2.656878   -1.185517
 O    4.821106   -1.333274   -1.596849
 C    4.793599   -2.741491    0.304246
 O    6.147053   -3.098660    0.419286
 C    4.591071   -1.300615    0.778272
 O    5.421323   -1.030568    1.870638
 C    4.967142   -0.498833   -0.490135
 N    4.083130    0.657547   -0.638773
 C    3.173827    0.906038   -1.617404
 N    2.432212    1.962897   -1.374222
 C    2.877536    2.432554   -0.150603
 C    2.494786    3.507490    0.685888
 N    1.528207    4.381278    0.382250
 N    3.137944    3.644444    1.863456
 C    4.087420    2.770250    2.194348
 N    4.535484    1.723214    1.498136
 C    3.896907    1.618787    0.322845
 H   -3.015710    1.404468   -1.246383
 H    0.826774    1.748071   -1.650410
 H    0.413136    1.684804    1.002201
 H   -0.668866    2.369081    2.237334
 H   -0.347511   -0.082319    2.506597
 H   -1.463453   -0.188734   -0.317999
 H   -2.542655   -2.199366    0.173136
 H   -0.838446   -3.323007    1.106130
 H   -2.926182   -1.565906    2.931465
 H   -5.200724   -1.799376    3.264953
 H   -8.749903   -1.008452    0.141595
 H   -8.825137   -0.384618   -1.489834
 H   -4.644515    0.768787   -2.607827
 H   -0.005368   -0.349717   -2.101686
 H    2.864901   -2.803092   -2.628239
 H    2.698531   -3.927344   -1.251075
 H    5.074919   -3.362026   -1.740915
 H    4.141380   -3.445939    0.838460
 H    6.478192   -2.639049    1.206803
 H    3.533497   -1.127427    1.009210
 H    5.332970   -0.074369    2.055960
 H    5.996650   -0.131614   -0.420611
 H    3.087450    0.265392   -2.481239
 H    1.308097    5.083076    1.072533
 H    0.911457    4.284396   -0.425736
 H    4.553286    2.929491    3.163367
