35 
5o7i_ligand_xtb.xyz
 C   40.348749   -1.417858    7.345907
 C   40.998297   -0.256548    6.967323
 C   41.328551    0.701716    7.910840
 C   40.995260    0.476815    9.233815
 C   40.334230   -0.673246    9.651271
 C   39.930658   -0.847318   11.093016
 C   41.041280   -0.991591   12.021103
 C   40.918234   -1.072253   13.404591
 C   46.758193   -1.443572   12.318871
 C   47.458253   -1.401267   11.113413
 C   47.498986   -1.587001   13.496073
 C   42.421728   -1.090127   11.726203
 O   38.764941   -0.861518   11.417063
 F   41.321764    1.407790   10.150612
 C   40.016751   -1.613422    8.677666
Br   39.159838   -3.231613    9.183956
 C   43.080998   -1.220296   12.928520
 N   42.139860   -1.204860   13.923600
 C   44.488663   -1.359813   13.327513
 O   44.791921   -1.477687   14.500364
 N   45.368979   -1.340304   12.284293
 N   48.812962   -1.681976   13.503962
 C   49.469419   -1.641591   12.358315
 C   48.836462   -1.502007   11.131456
 H   40.094609   -2.170841    6.616861
 H   41.250078   -0.098264    5.930518
 H   41.833879    1.614440    7.638774
 H   40.025231   -1.032679   13.995887
 H   46.923372   -1.290739   10.179027
 H   47.010414   -1.625253   14.457435
 H   42.851816   -1.073105   10.743347
 H   42.398015   -1.285231   14.897278
 H   44.973052   -1.230759   11.360773
 H   50.545164   -1.724514   12.429763
 H   49.404394   -1.472505   10.214591
