35 
5o7i_ligand_dft.xyz
 C   40.922416   -1.375572    7.440985
 C   40.786358   -0.104467    6.893548
 C   40.407766    0.972061    7.688137
 C   40.163518    0.748171    9.032850
 C   40.288894   -0.506052    9.624844
 C   39.960488   -0.665060   11.096505
 C   41.084269   -0.877168   12.010550
 C   40.952762   -1.004615   13.387385
 C   46.826389   -1.604812   12.360568
 C   47.539125   -1.661396   11.161592
 C   47.544200   -1.718122   13.560343
 C   42.467984   -0.992568   11.709714
 O   38.808997   -0.582577   11.474618
 F   39.814410    1.782964    9.805267
 C   40.673814   -1.559068    8.797122
Br   40.857546   -3.298341    9.525637
 C   43.126724   -1.186401   12.902893
 N   42.182122   -1.186817   13.903024
 C   44.528702   -1.380240   13.316021
 O   44.810861   -1.482916   14.502508
 N   45.433383   -1.433954   12.290288
 N   48.867626   -1.875565   13.593472
 C   49.535307   -1.927829   12.441809
 C   48.914530   -1.825519   11.200948
 H   41.210629   -2.219709    6.825487
 H   40.977083    0.047427    5.836207
 H   40.297374    1.972588    7.286147
 H   40.062280   -0.972405   13.996380
 H   47.020656   -1.577989   10.208772
 H   47.026690   -1.680810   14.510038
 H   42.901921   -0.940761   10.719873
 H   42.439202   -1.303823   14.873543
 H   45.054185   -1.367569   11.356977
 H   50.612491   -2.056939   12.514723
 H   49.494299   -1.873147   10.285225
