83 
5o91_ligand_dft.xyz
 O   -1.423637   -6.675442  -16.573768
 O    2.818265  -17.013825  -18.936222
 C   -1.643196   -5.349865  -16.149315
 C   -1.494465   -7.674189  -15.648128
 C   -1.764557   -7.471417  -14.299361
 C   -1.819608   -8.556077  -13.412084
 N   -2.045412   -8.384302  -12.027935
 C   -1.934795   -7.039202  -11.492308
 C   -1.878445   -7.088927   -9.970717
 N   -3.056863   -7.749076   -9.433900
 C   -3.057382   -7.744820   -7.985185
 C   -3.154581   -9.098671   -9.966207
 C   -3.218294   -9.067214  -11.485868
 C   -1.625650   -9.840036  -13.925982
 C   -1.389513  -10.043061  -15.279797
 C   -1.296034   -8.968484  -16.160371
 N   -1.065404   -9.074046  -17.539190
 C   -0.387440  -10.028850  -18.240274
 N   -0.275792   -9.778728  -19.557896
 C    0.401753  -10.676127  -20.264481
 C    0.979733  -11.819520  -19.722763
 C    1.824411  -12.798334  -20.507625
 C    1.691986  -14.245825  -20.003745
 C    1.761973  -14.256594  -18.507804
 C    1.327742  -13.184676  -17.749470
 N    1.497656  -13.515997  -16.440255
 C    1.169204  -12.752754  -15.250436
 N    2.011365  -14.737580  -16.311318
 C    2.173306  -15.201780  -17.555847
 C    2.731642  -16.555717  -17.806346
 N    3.132897  -17.197552  -16.670591
 C    3.536307  -18.562028  -16.598182
 C    2.707425  -19.461835  -15.912177
 C    1.413477  -19.009339  -15.276072
 C    1.609602  -18.475345  -13.850668
 C    3.113923  -20.791334  -15.800076
 C    4.304287  -21.220532  -16.371338
 C    5.106935  -20.315207  -17.055106
 C    4.747247  -18.972738  -17.175139
 C    5.675622  -18.000044  -17.864416
 C    6.406863  -17.078467  -16.880153
 C    0.776650  -11.973112  -18.344476
 N    0.095433  -11.100360  -17.599655
 H   -1.538140   -4.727640  -17.038714
 H   -2.651121   -5.223362  -15.734344
 H   -0.901261   -5.041791  -15.401949
 H   -1.944383   -6.468159  -13.936454
 H   -1.013627   -6.583016  -11.867849
 H   -2.786471   -6.401570  -11.793773
 H   -0.947200   -7.604928   -9.663681
 H   -1.838981   -6.065769   -9.579886
 H   -3.976424   -8.211078   -7.615300
 H   -2.196054   -8.289320   -7.552048
 H   -3.027906   -6.713395   -7.618797
 H   -4.066336   -9.565977   -9.577082
 H   -2.293177   -9.722158   -9.653932
 H   -4.145805   -8.555947  -11.798383
 H   -3.255145  -10.089188  -11.868007
 H   -1.641199  -10.694602  -13.257052
 H   -1.248886  -11.043644  -15.663481
 H   -1.274453   -8.246751  -18.079770
 H    0.493118  -10.469765  -21.330854
 H    1.568644  -12.742883  -21.571113
 H    0.731473  -14.672012  -20.322440
 H    1.861930  -13.052368  -14.463983
 H    1.257200  -11.688801  -15.464007
 H    0.143122  -12.964432  -14.936555
 H    2.911049  -16.717229  -15.807859
 H    0.942717  -18.237421  -15.894332
 H    0.718403  -19.855647  -15.245589
 H    0.653333  -18.172634  -13.411869
 H    2.056245  -19.241788  -13.208829
 H    2.275215  -17.604782  -13.831439
 H    2.477750  -21.496125  -15.270045
 H    4.605905  -22.260484  -16.287397
 H    6.039848  -20.650199  -17.501400
 H    6.415669  -18.572494  -18.435309
 H    5.113030  -17.406835  -18.590524
 H    7.086983  -16.406631  -17.414375
 H    5.698180  -16.463441  -16.317334
 H    6.995824  -17.660923  -16.163399
 H    2.877792  -12.495594  -20.421570
 H    2.470506  -14.882192  -20.428627
