82 
5o91_ligand_xtb.xyz
 O    5.744151   -3.162574    0.403563
 O   -5.730307   -1.451164   -0.019871
 C    7.132278   -3.362568    0.511544
 C    5.266062   -1.900055    0.209900
 C    6.051333   -0.764958    0.110940
 C    5.463650    0.484198   -0.084096
 N    6.231313    1.678952   -0.155491
 C    7.537397    1.717834    0.446621
 C    7.865169    3.178297    0.768173
 N    7.843498    3.986529   -0.477548
 C    8.219622    5.387929   -0.235405
 C    6.514231    3.868672   -1.129872
 C    6.214367    2.396047   -1.407425
 C    4.085635    0.584235   -0.194442
 C    3.295550   -0.547272   -0.114338
 C    3.860067   -1.797086    0.095620
 N    3.130606   -2.959393    0.183863
 C    1.785317   -3.181148    0.151707
 N    1.487807   -4.498634    0.148987
 C    0.227480   -4.831698    0.096042
 C   -0.813851   -3.885357    0.055310
 C   -2.186689   -4.243141   -0.018095
 C   -3.164560   -3.298557   -0.041657
 C   -2.775992   -1.945066    0.026984
 C   -1.420162   -1.564677    0.104360
 N   -1.402153   -0.209771    0.184123
 C   -0.269793    0.658584    0.295334
 N   -2.629154    0.292751    0.157315
 C   -3.483797   -0.717103    0.058922
 C   -4.948191   -0.520857    0.015075
 N   -5.280509    0.792951    0.012129
 C   -6.576639    1.352435    0.102547
 C   -6.837654    2.224847    1.164868
 C   -5.779273    2.550502    2.185102
 C   -4.925010    3.740153    1.738914
 C   -8.090381    2.809553    1.264910
 C   -9.075264    2.528943    0.336373
 C   -8.804432    1.667544   -0.709058
 C   -7.557462    1.071857   -0.852102
 C   -7.285695    0.200827   -2.045385
 C   -6.322669    0.872226   -3.026618
 C   -0.386323   -2.529750    0.102207
 N    0.915178   -2.190440    0.139882
 H    7.654174   -3.059903   -0.401855
 H    7.549967   -2.827172    1.370089
 H    7.262899   -4.432806    0.659814
 H    7.123619   -0.849614    0.182335
 H    8.330379    1.302694   -0.203633
 H    7.519428    1.149395    1.376738
 H    8.848615    3.261118    1.233263
 H    7.109360    3.579094    1.445488
 H    8.529645    3.568195   -1.118744
 H    7.502496    5.846983    0.442980
 H    9.210503    5.442814    0.211918
 H    8.224559    5.945373   -1.170424
 H    6.513810    4.447504   -2.054585
 H    5.765209    4.273705   -0.447670
 H    5.228896    2.304374   -1.862367
 H    6.957002    1.999211   -2.125150
 H    3.623707    1.548918   -0.336826
 H    2.226633   -0.489278   -0.206927
 H    3.672885   -3.811452    0.254877
 H    0.012128   -5.893142    0.086504
 H   -2.428977   -5.294698   -0.055545
 H   -4.212666   -3.541653   -0.098949
 H    0.411100    0.281253    1.057927
 H    0.258922    0.720539   -0.658711
 H   -0.634054    1.646853    0.570720
 H   -4.505733    1.422548    0.173719
 H   -5.141861    1.681320    2.362223
 H   -6.264196    2.803452    3.129700
 H   -4.419158    3.534081    0.797323
 H   -5.552560    4.617048    1.597522
 H   -4.173299    3.970090    2.491165
 H   -8.295810    3.481192    2.085894
 H  -10.050562    2.982951    0.426609
 H   -9.571909    1.455141   -1.438976
 H   -8.228121   -0.000233   -2.557870
 H   -6.873521   -0.754389   -1.718564
 H   -6.724308    1.829324   -3.354695
 H   -5.353193    1.045885   -2.565427
 H   -6.178787    0.240215   -3.900007
