94 
5o9o_ligand_xtb.xyz
 C   -3.370168    2.448978    0.940164
 C   -2.255443    3.282327    0.301372
 C   -2.030204    4.602981    1.046131
 C   -3.492105    1.080255    0.250932
 C    4.614132   -2.503541    1.365044
 C    3.563616   -1.627217    1.710642
 C    2.215276   -2.045108    1.731410
 C    1.219032   -1.174546    2.077786
 C    1.522103    0.154770    2.413376
 C    2.817896    0.592164    2.398656
 C    3.868679   -0.282718    2.050391
 C    5.218425    0.130594    2.033356
 C    6.211713   -0.741868    1.695945
 C    5.915586   -2.078039    1.357116
 C    7.058587   -2.996121    0.999854
 O    7.869865   -2.493996   -0.048060
 C    7.358813   -2.735635   -1.339219
 C    6.035570   -2.091805   -1.592294
 C    5.677694   -0.757649   -1.600228
 N    4.922024   -2.813358   -1.831030
 N    3.927837   -2.025271   -1.978442
 N    4.350313   -0.768879   -1.842483
 C    3.445663    0.347942   -1.946561
 C    2.085714   -0.045255   -1.336484
 O    1.420331   -0.986010   -2.129603
 O    4.037450    1.411899   -1.268005
 C    3.266522    2.601607   -1.318845
 C    4.079967    3.665608   -0.569821
 O    4.379078    3.257859    0.733380
 C    1.884612    2.432154   -0.671026
 O    1.172483    3.599423   -0.983629
 C    1.167027    1.174556   -1.206548
 O    0.134654    0.732716   -0.337317
 C   -1.083922    1.376169   -0.408392
 C   -2.126372    0.390578    0.153050
 O   -2.201896   -0.717237   -0.705273
 O   -1.037028    2.570881    0.333664
 O   -1.046673    5.394845    0.439008
 O   -4.578819    3.150819    0.841758
 O   -4.417246    0.360203    1.053722
 C   -5.033400   -0.714766    0.433049
 O   -5.966359   -0.182681   -0.494498
 C   -6.703427   -1.159883   -1.190299
 C   -7.583348   -0.395121   -2.184417
 O   -8.286851   -1.317233   -2.990760
 C   -7.535773   -2.004638   -0.213329
 O   -8.210174   -3.065538   -0.842879
 C   -6.601940   -2.620410    0.834933
 O   -7.327235   -3.287514    1.839494
 C   -5.741313   -1.547163    1.508804
 O   -4.770384   -2.134612    2.327369
 H   -3.115827    2.263970    1.995569
 H   -2.534191    3.491871   -0.746517
 H   -2.992202    5.123843    1.119076
 H   -1.656581    4.385322    2.047952
 H   -3.904806    1.205116   -0.759401
 H    4.371231   -3.523102    1.099597
 H    1.987510   -3.067846    1.466982
 H    0.191120   -1.504223    2.093699
 H    0.721577    0.829307    2.676756
 H    3.061723    1.613203    2.656460
 H    5.453230    1.147105    2.317154
 H    7.244995   -0.427688    1.679150
 H    7.733765   -3.084360    1.858235
 H    6.679531   -3.994099    0.741800
 H    7.244576   -3.815812   -1.512721
 H    8.113607   -2.335732   -2.022594
 H    6.228240    0.143780   -1.447621
 H    3.297596    0.599010   -3.016009
 H    2.264552   -0.434362   -0.324908
 H    1.982895   -1.779997   -2.182542
 H    3.119898    2.912831   -2.363786
 H    5.001287    3.866521   -1.135097
 H    3.489195    4.579657   -0.497913
 H    4.737563    2.361859    0.678211
 H    2.010525    2.312395    0.412706
 H    0.427085    3.683837   -0.364256
 H    0.742865    1.404794   -2.195939
 H   -1.349390    1.612300   -1.461702
 H   -1.808760    0.085805    1.160418
 H   -1.295928   -1.012417   -0.880830
 H   -1.323331    5.627001   -0.454989
 H   -5.280835    2.517880    1.046754
 H   -4.301333   -1.348701   -0.092400
 H   -6.028124   -1.831947   -1.745055
 H   -6.933426    0.246351   -2.790299
 H   -8.277102    0.242967   -1.621618
 H   -8.785804   -0.834458   -3.657949
 H   -8.256046   -1.344162    0.299710
 H   -8.508170   -2.757195   -1.711148
 H   -5.934723   -3.332909    0.321236
 H   -7.982696   -3.837853    1.393099
 H   -6.390928   -0.877563    2.093182
 H   -5.230413   -2.765547    2.896962
