88 
5o9q_ligand_xtb.xyz
 C    8.658624   -1.715606    0.245419
 C    8.047479   -0.462139    0.890602
 C    9.044467    0.706476    0.919193
 C    7.607927   -2.830633    0.192152
 C   -9.960853   -0.124370    0.151613
 C  -10.875919    0.791193    0.642700
 C  -11.363621    0.666368    1.931567
 C  -10.934793   -0.381799    2.729261
 C  -10.023730   -1.299057    2.238987
 C   -9.529314   -1.176144    0.945793
 C   -8.518256   -2.171813    0.442732
 O   -8.319514   -2.028661   -0.946653
 C   -7.249240   -2.794700   -1.440185
 C   -5.919298   -2.266988   -1.008606
 C   -5.527115   -0.957247   -0.810024
 N   -4.864081   -3.058222   -0.727641
 N   -3.868922   -2.332629   -0.386647
 N   -4.237277   -1.051025   -0.421986
 C   -3.331624    0.011469   -0.071345
 C   -1.895721   -0.367486   -0.497256
 O   -1.387017   -1.434619    0.247035
 O   -3.783268    1.162313   -0.723224
 C   -3.006685    2.306295   -0.429176
 C   -3.667247    3.512289   -1.115585
 O   -3.204059    4.724969   -0.607057
 C   -1.555375    2.113210   -0.903418
 O   -0.822294    3.253074   -0.541819
 C   -0.973043    0.836933   -0.273347
 O    0.275803    0.495867   -0.856904
 C    1.422085    0.844998   -0.170574
 C    2.513203   -0.136418   -0.619048
 O    2.210826   -1.432428   -0.180220
 O    1.764371    2.179805   -0.479808
 C    2.948451    2.609659    0.163944
 C    3.151054    4.099467   -0.156158
 O    4.069130    4.700148    0.704144
 C    4.149573    1.764520   -0.296222
 O    5.285126    2.207440    0.398000
 C    3.867720    0.273699   -0.036756
 O    4.838798   -0.553983   -0.658892
 C    5.880642   -1.023039    0.116861
 O    6.907763   -0.049879    0.157439
 O   10.034097    0.524604    1.885417
 O    9.781386   -2.122917    0.985022
 O    8.183750   -3.936141   -0.456569
 C    6.361479   -2.325691   -0.536525
 O    5.367284   -3.311628   -0.458501
 H    8.952891   -1.474783   -0.789270
 H    7.760507   -0.704415    1.926318
 H    8.510089    1.623309    1.181347
 H    9.477512    0.827887   -0.084448
 H    7.320540   -3.108064    1.220393
 H   -9.579018   -0.037174   -0.853046
 H  -11.207931    1.605632    0.015621
 H  -12.076451    1.381509    2.314692
 H  -11.312771   -0.485928    3.735749
 H   -9.691084   -2.117675    2.861754
 H   -7.567299   -2.017449    0.980725
 H   -8.857310   -3.196858    0.667698
 H   -7.331548   -2.742278   -2.530949
 H   -7.329289   -3.847243   -1.132289
 H   -6.034059   -0.023333   -0.909937
 H   -3.344497    0.152528    1.028373
 H   -1.903484   -0.600695   -1.573330
 H   -1.990937   -2.192793    0.131699
 H   -2.995164    2.486536    0.657917
 H   -4.742845    3.476564   -0.926648
 H   -3.500254    3.437823   -2.199886
 H   -2.235803    4.697324   -0.606760
 H   -1.549023    1.979136   -1.997628
 H    0.126673    3.060502   -0.649542
 H   -0.847376    0.987209    0.808068
 H    1.280081    0.749307    0.925713
 H    2.574310   -0.099250   -1.716827
 H    1.266487   -1.589306   -0.327673
 H    2.843469    2.498058    1.255280
 H    3.458428    4.197093   -1.207533
 H    2.200547    4.622424   -0.021055
 H    4.862968    4.145242    0.727175
 H    4.283605    1.894907   -1.382344
 H    6.005135    1.565614    0.255804
 H    3.860821    0.085953    1.046491
 H    5.546289   -1.241878    1.151848
 H   10.407324   -0.361175    1.768161
 H   10.006039   -3.014427    0.687429
 H    7.473922   -4.561677   -0.645636
 H    6.611825   -2.104567   -1.586071
 H    4.515949   -2.904851   -0.672311
