90 
5oa2_ligand_xtb.xyz
 C    5.147614    1.674786   -0.051225
 C    3.977141    2.520415    0.468552
 C    4.171563    4.013098    0.174699
 C    4.837378    0.178650    0.161397
 C   -9.234604   -0.147759   -0.183107
 C  -10.209408    0.246779    0.709982
 C  -11.383625   -0.491206    0.798848
 N  -12.409034   -0.082888    1.725754
 O  -12.197222    0.902810    2.399437
 O  -13.420560   -0.749169    1.775253
 C  -11.585260   -1.616113    0.007752
 C  -10.598449   -2.005191   -0.875728
 C   -9.418903   -1.274369   -0.980065
 C   -8.346758   -1.677105   -1.963497
 O   -7.045962   -1.333789   -1.554132
 C   -6.554987   -2.145561   -0.507745
 C   -5.202016   -1.660453   -0.126360
 C   -4.681658   -0.383751   -0.189807
 N   -4.244430   -2.470640    0.367490
 N   -3.192867   -1.785567    0.604579
 N   -3.420117   -0.514882    0.274484
 C   -2.408631    0.502237    0.414182
 C   -1.025183   -0.086606    0.057242
 O   -0.607080   -1.037578    0.989553
 O   -2.771340    1.544282   -0.440051
 C   -1.885281    2.652172   -0.399025
 C   -2.439983    3.681251   -1.394996
 O   -2.564159    3.144394   -2.679953
 C   -0.455048    2.250757   -0.781863
 O    0.356757    3.369471   -0.554094
 C    0.014358    1.041545    0.047971
 O    1.209862    0.494107   -0.495918
 C    2.393872    0.798236    0.151695
 C    3.445444   -0.195551   -0.358031
 O    3.147614   -1.495771    0.073524
 O    2.766300    2.121579   -0.153685
 O    3.229606    4.812782    0.829888
 O    6.296507    2.069146    0.639234
 O    5.747132   -0.650077   -0.546998
 C    6.861553   -1.114722    0.123721
 O    7.893618   -0.149696    0.049664
 C    9.102096   -0.564971    0.660192
 C   10.102352    0.597742    0.568400
 O   11.198209    0.413727    1.412305
 C    9.633431   -1.828318   -0.035211
 O   10.826575   -2.239128    0.582773
 C    8.575685   -2.935610    0.033781
 O    9.071938   -4.052545   -0.660586
 C    7.265091   -2.425642   -0.566032
 O    6.275611   -3.402907   -0.382644
 H    5.259710    1.843749   -1.134397
 H    3.897074    2.380321    1.557073
 H    4.136795    4.162246   -0.912517
 H    5.151645    4.308767    0.551457
 H    4.887961   -0.050649    1.235644
 H   -8.315755    0.411144   -0.274134
 H  -10.082996    1.116078    1.336952
 H  -12.507673   -2.168140    0.101610
 H  -10.743075   -2.880020   -1.491434
 H   -8.414832   -2.754806   -2.174075
 H   -8.503634   -1.133256   -2.902144
 H   -7.226141   -2.100865    0.365822
 H   -6.484527   -3.196194   -0.825479
 H   -5.081733    0.545763   -0.526751
 H   -2.381256    0.846671    1.466854
 H   -1.080281   -0.515055   -0.956099
 H   -1.283834   -1.738531    1.035112
 H   -1.866454    3.086042    0.611485
 H   -1.741253    4.515672   -1.462735
 H   -3.409650    4.041794   -1.024980
 H   -3.093576    2.340150   -2.614465
 H   -0.436836    1.964230   -1.845148
 H    1.280552    3.075953   -0.645885
 H    0.190906    1.358519    1.084840
 H    2.288495    0.690613    1.250839
 H    3.456133   -0.142315   -1.456958
 H    2.198582   -1.639346   -0.044506
 H    2.344416    4.593657    0.511529
 H    7.021064    1.464288    0.397021
 H    6.633245   -1.322772    1.189430
 H    8.927421   -0.796216    1.723158
 H   10.415052    0.713159   -0.479711
 H    9.606740    1.518255    0.887377
 H   11.545672   -0.477303    1.260848
 H    9.816763   -1.597953   -1.097416
 H   11.010240   -3.135131    0.270908
 H    8.395969   -3.201282    1.089119
 H    8.339649   -4.670699   -0.772234
 H    7.408743   -2.211719   -1.636818
 H    5.411862   -2.988523   -0.518227
