97 
5oa6_ligand_dft.xyz
 C   -0.879717    1.705131    0.531058
 C   -2.152242    1.845581    1.373341
 C   -2.959006    3.076498    1.010555
 C   -0.217916    0.351066    0.808891
 C   -6.224507    0.374221   -0.704183
 C   -6.515070    1.543855   -0.130918
 C   -7.906913    1.836209    0.354692
 C   -8.918209    0.945283   -0.340883
 C  -10.261489    1.306567   -0.373649
 C  -11.228942    0.497209   -0.960136
 C  -10.834837   -0.699021   -1.546352
 C   -9.497116   -1.075302   -1.546599
 C   -8.523387   -0.267308   -0.942819
 N   -7.167809   -0.620662   -0.959911
 C   -6.725981   -1.923763   -1.428754
 C   -7.109786   -3.098297   -0.515696
 C   -6.762399   -2.877931    0.963791
 C   -5.326506   -2.515026    1.165002
 C   -4.789054   -1.304840    1.532044
 N   -4.301226   -3.361953    0.870208
 N   -3.175131   -2.735130    1.027128
 N   -3.456653   -1.482724    1.424230
 C   -2.413153   -0.484255    1.598551
 C   -1.186171   -0.820565    0.740773
 O   -0.511441   -1.961888    1.200797
 O   -2.998441    0.719450    1.198759
 O   -3.330087    2.991288   -0.350530
 O   -0.041851    2.775365    0.899808
 O    0.795547    0.051026   -0.135986
 C    2.041262    0.597940    0.072915
 C    3.064584   -0.385364   -0.484190
 O    3.035269   -1.592447    0.233370
 O    2.127082    1.829468   -0.609644
 C    3.366539    2.480101   -0.397315
 C    3.241065    3.859448   -1.024218
 O    2.148279    4.573141   -0.479551
 C    4.493013    1.628305   -0.989285
 O    5.715364    2.282561   -0.748767
 C    4.447747    0.228813   -0.360309
 O    5.381453   -0.629220   -1.003547
 C    6.507726   -0.959335   -0.274358
 O    7.396390    0.139991   -0.311851
 C    8.603113   -0.069712    0.422431
 C    9.322638    1.266851    0.444007
 O    8.587330    2.235880    1.152578
 C    9.369348   -1.211686   -0.242026
 O   10.550151   -1.444926    0.485209
 C    8.486611   -2.456944   -0.257656
 O    9.209555   -3.472584   -0.919525
 C    7.148038   -2.176746   -0.926440
 O    6.341706   -3.320125   -0.767872
 H   -1.156914    1.750597   -0.529265
 H   -1.858157    1.931558    2.433215
 H   -3.844933    3.116173    1.661040
 H   -2.328135    3.951365    1.208718
 H    0.221347    0.382926    1.817732
 H   -5.210122    0.137596   -1.008216
 H   -5.718611    2.270366   -0.014373
 H   -8.167749    2.888710    0.183489
 H   -7.974308    1.690780    1.446110
 H  -10.553629    2.247952    0.086792
 H  -12.271923    0.797611   -0.959250
 H  -11.567179   -1.347059   -2.018949
 H   -9.215460   -1.998758   -2.038482
 H   -5.636085   -1.878604   -1.498991
 H   -7.094293   -2.114483   -2.446328
 H   -8.181843   -3.307714   -0.587641
 H   -6.583563   -3.985534   -0.886005
 H   -7.000396   -3.789191    1.522814
 H   -7.388087   -2.075737    1.368274
 H   -5.230804   -0.352866    1.775182
 H   -2.120531   -0.448587    2.660569
 H   -1.528752   -0.935208   -0.297846
 H   -1.131170   -2.702303    1.076369
 H   -3.634841    3.858912   -0.636665
 H    0.618617    2.915194    0.199050
 H    2.223820    0.759459    1.150330
 H    2.831331   -0.538735   -1.549033
 H    2.103044   -1.855696    0.297727
 H    3.548629    2.592964    0.686926
 H    4.189795    4.397312   -0.912868
 H    3.029261    3.748055   -2.091159
 H    2.375375    4.835179    0.421051
 H    4.313188    1.519829   -2.070600
 H    6.422460    1.641722   -0.937850
 H    4.703994    0.316135    0.705256
 H    6.247802   -1.185899    0.773981
 H    8.358111   -0.347531    1.458941
 H    9.523519    1.578568   -0.593708
 H   10.279762    1.147678    0.955264
 H    7.715054    2.309256    0.741484
 H    9.592511   -0.928444   -1.283834
 H   10.904494   -2.285039    0.162431
 H    8.292454   -2.745928    0.788476
 H    8.649510   -4.259763   -0.930388
 H    7.315295   -1.941750   -1.988495
 H    5.437723   -3.075527   -1.012441
