52 
5oah_ligand_xtb.xyz
 O    6.507401   -0.735074    0.219816
 C    5.872036    0.440888    0.028037
 C    6.683250    1.592986    0.022052
 O    8.020495    1.458808    0.199873
 C    6.113601    2.837212   -0.159578
 C    4.740255    2.948576   -0.334154
 C    3.938493    1.829628   -0.335957
 C    4.488089    0.553316   -0.160355
 C    3.687519   -0.691446   -0.164239
 O    4.193940   -1.795374    0.069794
 N    2.374085   -0.587450   -0.420200
 C    1.509622   -1.735722   -0.525841
 C    0.242928   -1.303113   -1.256525
 O   -0.607198   -2.291620   -1.399287
 O    0.064969   -0.166464   -1.625867
 C    1.175999   -2.357509    0.846656
 C    0.655356   -1.374276    1.897420
 C   -0.668544   -0.674021    1.582834
 C   -1.861017   -1.626253    1.433168
 N   -3.056717   -0.901641    1.062219
 C   -3.540601   -0.810727   -0.184901
 O   -3.058272   -1.407718   -1.145166
 C   -4.750980    0.043100   -0.373147
 C   -5.280866    0.075168   -1.666074
 C   -6.391905    0.825534   -1.976902
 C   -7.011885    1.577737   -0.990549
 C   -6.504840    1.564972    0.293407
 O   -7.058821    2.284094    1.327127
 C   -5.373447    0.801664    0.620217
 O   -4.934710    0.845217    1.911427
 H    5.799894   -1.434441    0.214408
 H    8.201904    0.512524    0.306316
 H    6.751174    3.706475   -0.159755
 H    4.300809    3.924390   -0.470981
 H    2.875292    1.955008   -0.468828
 H    1.953254    0.278542   -0.729046
 H    2.005986   -2.515144   -1.120103
 H   -1.536971   -1.965141   -1.577842
 H    0.462875   -3.164733    0.682819
 H    2.100202   -2.794594    1.228546
 H    0.545320   -1.924637    2.835204
 H    1.414095   -0.604763    2.057414
 H   -0.885437    0.022671    2.397576
 H   -0.574995   -0.081615    0.673752
 H   -1.670648   -2.372628    0.662185
 H   -2.049211   -2.140882    2.380248
 H   -3.479737   -0.328057    1.776255
 H   -4.781113   -0.514742   -2.418144
 H   -6.782319    0.833273   -2.981874
 H   -7.885240    2.173760   -1.216584
 H   -7.821047    2.775542    1.004021
 H   -5.526487    1.441602    2.395121
