78 
5oax_ligand_xtb.xyz
 O   -0.912292    1.387731   -1.618077
 O   -2.487130    1.756037    2.209822
 C    5.263926    0.478520   -2.062708
 N   -2.032998   -1.486090    0.025727
 C    6.264663   -2.512264   -0.304269
 C    5.411260   -1.640940   -0.974457
 C   -1.264349    1.196250    1.815096
 C   -0.111183    1.767325    2.662863
 C    3.543027   -2.953002   -0.294518
 N   -3.112477   -1.853566   -0.541048
 O   -1.048535    3.613540    0.086995
 O   -3.325688    4.788853   -1.176266
 C    1.121707    2.694674   -1.574574
 C    1.215476    2.649171   -0.041207
 C   -1.316968   -0.324363    2.038484
 C   -1.143935    3.735670   -1.323227
 C   -2.638985    3.669642   -1.657828
 C   -0.351937    2.613591   -2.005952
 O    1.122876    1.138353    2.446877
 C    0.263654    3.689821    0.573073
 C    0.070028   -0.924590    1.729707
 C    4.034704   -1.854525   -0.984783
 C    1.100765   -0.259109    2.659835
 F   -7.297424   -3.474173   -2.835924
 C   -7.070804   -2.788738   -1.695804
 C   -8.153565   -2.388893   -0.931860
 C   -5.770115   -2.511231   -1.331017
 C   -5.538259   -1.804540   -0.152835
 C   -6.618063   -1.394104    0.626930
 C   -7.911893   -1.685864    0.236269
 C   -4.169722   -1.511572    0.233632
 C   -3.662126   -0.888881    1.364592
 N   -2.326037   -0.902997    1.188876
 O    0.460548   -0.695072    0.404620
 C    2.530983   -0.756335    2.388008
 O    2.706550   -2.105899    2.699295
 S    0.150712    3.551973    2.389192
 O    2.540363    2.901686    0.335000
 O    1.763085    1.542670   -2.090675
 C    3.107152    1.542237   -2.078145
 C    3.803719    0.401244   -1.957202
 C    3.128995   -0.921536   -1.728111
 F    2.209727   -3.164847   -0.265926
 C    4.389963   -3.821939    0.377805
 F    3.878150   -4.875732    1.034897
 C    5.756495   -3.605533    0.368251
 O    5.989315   -0.584680   -1.616661
 O    5.863935    1.420880   -2.510051
 H   -0.327537    0.680312   -1.921156
 H   -2.491083    2.681022    1.931080
 H    7.323279   -2.313336   -0.322884
 H   -1.091296    1.367187    0.745726
 H   -0.400849    1.702786    3.724876
 H   -3.154297    4.864842   -0.230121
 H    1.599358    3.608898   -1.950305
 H    0.921543    1.635110    0.250844
 H   -1.589947   -0.523167    3.081483
 H   -0.733795    4.709037   -1.634968
 H   -2.771818    3.665090   -2.740567
 H   -3.041544    2.737633   -1.242024
 H   -0.412401    2.736921   -3.098162
 H    0.685386    4.693645    0.402480
 H    0.033921   -2.005366    1.941047
 H    0.827277   -0.478143    3.704016
 H   -9.155270   -2.625820   -1.252774
 H   -4.941048   -2.831293   -1.940670
 H   -6.444694   -0.842936    1.538009
 H   -8.742728   -1.363462    0.845305
 H   -4.114468   -0.451344    2.227274
 H   -0.228783   -1.096994   -0.163326
 H    2.776906   -0.538222    1.342447
 H    3.213232   -0.198287    3.032739
 H    2.223548   -2.650464    2.066101
 H    2.650581    2.622029    1.253569
 H    3.614921    2.493581   -2.184530
 H    2.198911   -0.767026   -1.173130
 H    2.854572   -1.376129   -2.688482
 H    6.401352   -4.290251    0.893433
