78 
5oax_ligand_dft.xyz
 O   -0.874241    1.469055   -1.688027
 O   -2.478492    1.740920    2.096181
 C    5.314126    0.560827   -2.096122
 N   -2.106548   -1.659064    0.035974
 C    6.393414   -2.427812   -0.382057
 C    5.503681   -1.586443   -1.040558
 C   -1.258001    1.130922    1.763841
 C   -0.127977    1.674313    2.671238
 C    3.683559   -2.910255   -0.301889
 N   -3.210594   -2.001458   -0.543882
 O   -1.025187    3.620775    0.149101
 O   -3.184885    4.925406   -1.027107
 C    1.176201    2.740528   -1.472741
 C    1.216600    2.615588    0.042779
 C   -1.376120   -0.374385    1.987670
 C   -1.063180    3.800843   -1.265831
 C   -2.540290    3.827149   -1.627678
 C   -0.267661    2.708790   -1.973115
 O    1.097313    0.996506    2.476152
 C    0.279950    3.653992    0.698247
 C   -0.013181   -1.044570    1.748406
 C    4.127176   -1.808150   -1.015216
 C    1.015953   -0.407812    2.679467
 F   -7.496239   -3.657341   -2.683750
 C   -7.240746   -2.819247   -1.667631
 C   -8.304723   -2.201750   -1.026770
 C   -5.924546   -2.605762   -1.297604
 C   -5.653465   -1.735169   -0.239106
 C   -6.711499   -1.098578    0.417398
 C   -8.023974   -1.334502    0.024352
 C   -4.260883   -1.505225    0.165815
 C   -3.751103   -0.818730    1.248125
 N   -2.414110   -0.943195    1.132482
 O    0.439790   -0.878437    0.423317
 C    2.421276   -0.963611    2.443695
 O    2.443766   -2.361755    2.590011
 S    0.155097    3.461654    2.498753
 O    2.536066    2.800617    0.478336
 O    1.823521    1.604644   -2.041395
 C    3.168588    1.595379   -2.038808
 C    3.852091    0.444669   -1.968473
 C    3.186911   -0.885466   -1.738028
 F    2.358459   -3.158017   -0.224673
 C    4.551232   -3.757728    0.369965
 F    4.046572   -4.789745    1.051772
 C    5.914420   -3.523415    0.326342
 O    6.057207   -0.531009   -1.724240
 O    5.907806    1.528826   -2.497688
 H   -0.245885    0.773251   -1.925450
 H   -2.489681    2.582561    1.618398
 H    7.454191   -2.211500   -0.431344
 H   -1.028842    1.282904    0.707584
 H   -0.459655    1.561995    3.716000
 H   -2.984054    4.882284   -0.083342
 H    1.677906    3.661535   -1.801398
 H    0.879964    1.603006    0.265490
 H   -1.681945   -0.563032    3.023991
 H   -0.620924    4.779188   -1.513529
 H   -2.653113    3.942864   -2.708998
 H   -2.992301    2.869249   -1.336175
 H   -0.274327    2.908519   -3.055719
 H    0.724029    4.651871    0.559664
 H   -0.093146   -2.109347    2.005955
 H    0.716273   -0.613836    3.719379
 H   -9.319761   -2.400593   -1.351698
 H   -5.119311   -3.107621   -1.821614
 H   -6.512973   -0.408696    1.232028
 H   -8.839361   -0.835409    0.538543
 H   -4.199543   -0.261835    2.053808
 H   -0.219394   -1.338190   -0.130297
 H    2.767415   -0.640832    1.453130
 H    3.095921   -0.541962    3.193836
 H    2.180115   -2.752053    1.746540
 H    2.619026    2.308200    1.308160
 H    3.668114    2.556508   -2.128144
 H    2.271401   -0.748219   -1.153203
 H    2.885808   -1.344384   -2.690642
 H    6.583835   -4.191678    0.855451
