30 
5obj_ligand_dft.xyz
 C   -3.984087   -1.606201   -0.421640
 N   -0.072461    1.156151   -0.169322
 C    2.617833   -2.179567    0.267085
 O    2.262805   -3.286993   -0.417760
 C    1.709111   -0.993082    0.083538
 C    1.269193    1.375304   -0.146747
 C    1.714343    2.716523   -0.264801
 C    3.053347    3.004093   -0.250365
 C    4.005017    1.966361   -0.116205
 C    3.607560    0.659090    0.000630
 C    2.227173    0.331224   -0.013471
 C    0.350236   -1.186090    0.057273
 C   -0.525742   -0.073610   -0.071539
 C   -2.003239   -0.254940   -0.083446
 C   -2.816313    0.833426    0.244519
 C   -4.189733    0.674102    0.240100
 C   -4.797611   -0.530334   -0.085016
 C   -2.598933   -1.474377   -0.421247
 F   -4.963010    1.720988    0.564468
 O    3.585722   -2.187558    0.979642
 H   -4.435300   -2.555644   -0.691881
 H    1.547691   -3.077590   -1.034074
 H    0.959423    3.488698   -0.366943
 H    3.390264    4.032199   -0.340948
 H    5.062988    2.208898   -0.101928
 H    4.339274   -0.129939    0.123191
 H   -0.063074   -2.179459    0.201715
 H   -2.373858    1.789752    0.496295
 H   -5.878921   -0.609081   -0.074703
 H   -1.991329   -2.324895   -0.712737
