30 
5obr_ligand_xtb.xyz
 C   -2.207244    0.982665    0.119918
 C   -0.851260    1.196898    0.101875
 C    0.026732    0.100822   -0.065463
 C    1.486481    0.278122   -0.083705
 C    2.073359    1.491953   -0.432577
 C    3.451936    1.586241   -0.440099
 C    4.274938    0.524083   -0.111020
 C    3.672330   -0.678687    0.227001
 C    2.295770   -0.810112    0.239857
 C   -2.167600   -2.697256   -0.401617
 C   -3.500128   -2.986444   -0.486393
 C   -4.074242   -0.661045   -0.214884
 N   -0.417206   -1.128004   -0.185612
 C   -3.093808    2.163068    0.375589
 O   -2.945588    3.220061   -0.166085
 C   -1.736980   -1.365284   -0.219739
 C   -4.455917   -1.961419   -0.407286
 C   -2.709006   -0.329862   -0.092262
 F    4.019616    2.756864   -0.781717
 O   -4.054609    1.981215    1.301216
Cl    4.661991   -2.029592    0.636928
 H   -0.473983    2.194220    0.260020
 H    1.487411    2.349436   -0.720590
 H    5.346445    0.637459   -0.126105
 H    1.829635   -1.747661    0.494623
 H   -1.411750   -3.461439   -0.487816
 H   -3.828797   -4.004370   -0.632027
 H   -4.821902    0.119086   -0.192122
 H   -5.503062   -2.204445   -0.506952
 H   -4.044532    1.092366    1.681705
