62 
5oci_ligand_xtb.xyz
 C   66.841140   33.830131   23.886642
 C   65.628276   33.291201   24.417341
 C   65.597642   32.719449   25.678521
 O   64.484756   33.326558   23.715560
 C   68.012052   33.118520   25.843162
 C   66.788943   32.647342   26.384863
 C   68.979760   32.839149   26.856271
 C   70.434491   33.170671   26.837804
 C   71.023491   32.999476   25.465324
 C   71.670530   34.047907   24.828772
 C   72.034821   32.670541   22.899643
 C   70.897549   31.783575   24.804370
 C   71.255076   30.290131   22.817094
 C   68.600483   37.387633   25.249058
 C   67.853414   36.665438   24.341421
 C   69.773529   36.444680   22.933141
 N   70.715068   38.445384   25.874005
 C   70.084666   39.177266   26.952436
 C   70.987681   40.356997   27.332232
 C   72.882649   39.224978   26.644579
 C   72.043929   38.006562   26.256240
 C   68.029903   33.698878   24.581153
 C   66.784658   34.454251   22.545077
 O   65.953117   34.083201   21.710221
 N   67.092470   32.143651   27.604914
 N   68.407210   32.261698   27.882846
 C   71.392933   31.605029   23.522396
 C   72.176235   33.880876   23.550824
 C   68.434721   36.160866   23.183315
 C   69.951633   37.663071   25.017437
 C   70.513689   37.184941   23.828791
 N   67.671044   35.436302   22.241784
 C   67.729559   35.903124   20.868757
 O   72.279070   39.936009   27.699076
 H   64.669741   32.328019   26.061811
 H   64.712353   33.582177   22.790026
 H   70.939986   32.524555   27.559894
 H   70.565446   34.206582   27.166044
 H   71.769155   35.000454   25.329255
 H   72.424267   32.545439   21.899257
 H   70.392459   30.967218   25.301555
 H   72.221922   29.788896   22.766105
 H   70.558513   29.639552   23.339521
 H   70.901963   30.436655   21.797899
 H   68.117800   37.733246   26.148989
 H   66.809660   36.475362   24.541788
 H   70.241125   36.078320   22.032469
 H   69.126091   39.572020   26.615310
 H   69.928324   38.541108   27.838479
 H   71.050647   41.047130   26.476608
 H   70.580874   40.886527   28.195186
 H   73.866313   38.918243   27.003591
 H   72.999232   39.881513   25.768634
 H   71.984582   37.331036   27.126426
 H   72.523711   37.477425   25.435227
 H   68.963153   34.020586   24.149687
 H   66.478222   31.713704   28.275418
 H   72.678857   34.701904   23.060048
 H   71.542419   37.409140   23.592398
 H   67.786024   36.990838   20.849734
 H   68.596985   35.485767   20.352960
 H   66.825986   35.570098   20.359613
