37 
5ocj_ligand_dft.xyz
 C   -1.104056   -1.325244    1.454398
 C   -3.184726   -0.131528   -0.409271
 C    4.388276   -1.357945    0.889248
 C    1.572024   -0.275590   -0.681243
 C   -0.773271   -0.573163    0.151023
 C   -1.821792    0.515374   -0.214170
 C    0.606029    0.027763    0.188350
 C   -1.935385    1.692118    0.767232
 C   -2.857758    2.818854    0.359794
 C   -4.417644   -1.600692   -1.751446
 C   -0.162665   -2.501604    1.703574
 O   -3.199007   -0.893310   -1.510821
 O   -1.302136    1.732281    1.797975
 O    4.219911   -0.773957   -0.401626
 O   -4.129822   -0.015304    0.335245
 O    3.331065    1.491378    0.526549
 O    3.485650    0.930370   -2.041519
 P    3.187504    0.464830   -0.527697
 H   -2.136116   -1.692875    1.397651
 H   -1.066427   -0.624478    2.292132
 H    4.705310   -0.605426    1.615982
 H    3.454427   -1.822260    1.228520
 H    5.155634   -2.126107    0.786011
 H    1.416763   -0.996957   -1.481889
 H   -0.802025   -1.297866   -0.672754
 H   -1.528102    0.936596   -1.185039
 H    0.805333    0.750195    0.978128
 H   -2.613442    3.711681    0.937393
 H   -3.889648    2.522521    0.573665
 H   -2.786374    3.031491   -0.711930
 H   -4.617923   -2.303399   -0.939050
 H   -4.266175   -2.132176   -2.689974
 H   -5.253591   -0.902553   -1.834154
 H   -0.453499   -3.045115    2.607704
 H   -0.177366   -3.208572    0.865427
 H    0.870692   -2.163459    1.834800
 H    4.270498    1.494580   -2.078521
