45 
5od1_ligand_dft.xyz
 C    0.599051   -0.413511    1.585150
 C   -3.535508   -0.849848   -1.113240
 C   -0.276338    0.537675    2.100555
 C    0.193349    1.803987    2.437397
 C   -0.558789   -0.750100   -1.726628
 C    1.544012    2.104502    2.273229
 C    2.418949    1.150962    1.762741
 C    1.491311    0.466744   -1.523223
 C    0.816768   -0.715234   -1.846323
 C   -1.283435    0.380135   -1.319544
 C   -2.706477    0.402601   -1.037304
 C    1.949956   -0.113797    1.399106
 O    4.993888    0.216252   -0.266122
 P    3.732806   -0.666794   -0.746199
 C    2.868053   -1.155984    0.794305
 C    3.905059   -1.696330    1.796422
 O    2.859427    0.521702   -1.458848
 S   -3.381272   -1.809125    0.409677
 O   -4.460808   -2.976286    0.079215
 O   -3.904863   -1.040593    1.522524
 O   -2.071101   -2.415805    0.468241
 C   -3.285288    1.547657   -0.622216
 C   -2.535221    2.790571   -0.462189
 O   -1.189044    2.723312   -0.729829
 O   -3.001084    3.843723   -0.114954
 C   -0.573421    1.572118   -1.104381
 C    0.807956    1.627800   -1.209611
 O    4.081981   -1.796942   -1.633367
 H    0.212938   -1.388023    1.298470
 H   -4.597344   -0.614063   -1.204961
 H   -3.250576   -1.515560   -1.931059
 H   -1.326508    0.288363    2.227029
 H   -0.489773    2.555366    2.821531
 H   -1.069574   -1.689004   -1.905895
 H    1.917181    3.089943    2.536156
 H    3.467453    1.400511    1.618941
 H    1.376831   -1.595259   -2.145075
 H    5.772961   -0.008785   -0.793693
 H    2.252502   -2.000549    0.462962
 H    3.380473   -2.126041    2.654221
 H    4.558260   -0.897352    2.155984
 H    4.524250   -2.476545    1.342728
 H   -5.130891   -2.960465    0.782353
 H   -4.336857    1.607563   -0.367471
 H    1.339860    2.535203   -0.954428
