19 
5oei_ligand_dft.xyz
 C   -1.981108   -0.747058   -0.257178
 C   -0.815293    0.202685    0.045998
 C    0.530943   -0.503018   -0.086196
 C    3.156049   -0.114617   -0.004954
 O    3.291150   -1.442430   -0.190375
 O    4.104401    0.609848    0.050727
 C    1.704527    0.440341    0.121990
 C   -3.350653   -0.148481    0.032910
 O   -4.160593   -0.655277    0.759022
 O   -3.629991    1.020259   -0.586203
 O    1.564259    1.609916    0.365028
 H   -1.910556   -1.652059    0.350832
 H   -1.949377   -1.056371   -1.311183
 H   -0.910796    0.606791    1.058642
 H   -0.815271    1.068672   -0.626245
 H    0.626470   -0.966545   -1.080412
 H    0.592431   -1.320850    0.648294
 H    2.439039   -1.896455   -0.196594
 H   -2.892528    1.299168   -1.144340
