53 
5of0_ligand_xtb.xyz
 O    1.046083    2.840195    1.764712
 C    1.615965    3.190199    0.758258
 O    1.041922    3.907205   -0.190813
 C    3.051872    2.849678    0.414236
 C    3.097490    1.965920   -0.839446
 C    2.626378    0.520323   -0.550410
 C    3.709506   -0.221606    0.211474
 O    4.762989   -0.476892   -0.558322
 O    3.645323   -0.523694    1.372654
 N    1.405054    0.485357    0.209861
 C    0.188216    0.624006   -0.385085
 O    0.011183    0.471781   -1.577340
 N   -0.836222    0.871013    0.503259
 C   -2.154172    1.105451   -0.038541
 C   -2.333620    2.540362   -0.503096
 O   -1.644557    3.472031   -0.161874
 O   -3.366537    2.685908   -1.322618
 C   -3.238509    0.759999    0.997808
 C   -4.595938    0.404582    0.389907
 C   -4.572528   -0.783731   -0.579496
 C   -4.023398   -2.050089    0.063090
 O   -4.726164   -2.906176    0.550723
 N   -2.680689   -2.190869   -0.113203
 C   -1.740013   -2.316750    0.718318
 C   -0.368310   -2.561275    0.321135
 C   -0.004766   -2.609705   -1.026642
 C    1.308954   -2.826833   -1.385688
 C    2.250510   -3.004138   -0.385298
 F    3.540731   -3.203166   -0.729379
 C    1.920580   -2.971241    0.958582
 C    0.606001   -2.739008    1.305475
 H    0.075625    3.997541   -0.036165
 H    3.519665    2.353697    1.265359
 H    3.575520    3.783691    0.206387
 H    4.112131    1.927162   -1.236769
 H    2.443921    2.396537   -1.599079
 H    2.451432    0.013785   -1.505790
 H    5.435071   -0.983903   -0.074271
 H    1.497986    0.607392    1.207331
 H   -0.594822    1.382973    1.342523
 H   -2.238884    0.459029   -0.917635
 H   -3.462381    3.610999   -1.604433
 H   -2.868807   -0.077906    1.587409
 H   -3.363609    1.606482    1.678364
 H   -4.994037    1.268622   -0.144945
 H   -5.279372    0.172554    1.209457
 H   -5.597934   -0.992879   -0.887938
 H   -3.981927   -0.545971   -1.463288
 H   -1.904816   -2.210199    1.797278
 H   -0.763611   -2.460086   -1.776919
 H    1.612949   -2.855752   -2.419885
 H    2.686316   -3.104537    1.705306
 H    0.328772   -2.698985    2.348249
