37 
5ofu_ligand_xtb.xyz
 P   -1.151151   -2.468636   -0.363989
 O   -1.449984   -3.029716    0.954853
 O    0.362691   -2.450768   -0.806535
 O   -1.867663   -3.214062   -1.575087
 O   -1.618491   -0.949502   -0.580091
 C   -2.851428   -0.590361    0.025215
 C   -2.801198    0.855533    0.528732
 O   -1.793894    1.018570    1.520448
 C   -2.480541    1.882353   -0.568824
 O   -3.069442    3.112566   -0.262404
 C   -0.947545    1.952343   -0.509173
 O   -0.477345    3.212734   -0.871706
 C   -0.651936    1.594185    0.972754
 N    0.479585    0.695312    1.024974
 C    0.585858   -0.541899    1.578982
 N    1.715452   -1.137485    1.311234
 C    2.419608   -0.240853    0.541843
 C    3.689411   -0.247326   -0.064368
 N    4.540757   -1.279351    0.025666
 N    4.055220    0.827215   -0.770599
 C    3.223097    1.844984   -0.886239
 N    2.012103    1.977410   -0.371028
 C    1.644738    0.911042    0.347849
 H    0.934329   -2.267443   -0.044530
 H   -1.939040   -4.148851   -1.386997
 H   -3.032872   -1.256561    0.874312
 H   -3.659739   -0.699797   -0.703359
 H   -3.757217    1.096996    1.002946
 H   -2.822200    1.531524   -1.551873
 H   -2.446240    3.801424   -0.537205
 H   -0.530443    1.166133   -1.152564
 H    0.498186    3.166499   -0.843800
 H   -0.395016    2.504728    1.539582
 H   -0.195210   -0.967861    2.176227
 H    4.300275   -2.073409    0.590511
 H    5.445501   -1.201596   -0.402878
 H    3.577781    2.677442   -1.478703
