94 
5ogl_ligand_dft.xyz
 C    1.573585   -1.223765    1.225904
 C    0.263420   -1.504844    1.961557
 C   -4.473423   -2.046888   -0.085753
 C   -6.088628   -0.120930   -0.136522
 C   -5.305577    0.715073    0.851569
 C   -4.144373    1.463360    0.170664
 C   -3.376578    2.287059    1.168429
 C   -2.109388    4.167213    2.156947
 C   -7.326559    0.527464   -0.694925
 C   -2.839802    3.506452    1.013271
 C   -2.913808    4.313177   -0.260349
 C   -1.016808    3.109774   -1.434179
 C    0.574774    1.236671   -1.726728
 C    0.170788    2.563075   -1.141130
 C    1.182676    3.226053   -0.229551
 C    2.241042    4.081386   -0.963645
 C    3.206077    3.272431   -1.788057
 C    4.973455    2.987521   -0.018878
 C    4.382192    2.775336   -1.389252
 C    5.235962    1.944078   -2.311469
 C   -1.558003    4.438277   -0.987221
 C   -5.700493   -1.333012   -0.548320
 O   -3.468360   -1.927109   -1.138520
 P   -1.963549   -2.264441   -0.792990
 O   -1.702319   -3.404216    0.111370
 O   -1.306882   -2.257147   -2.220063
 O   -1.371643   -0.866551   -0.155566
 P   -1.170779   -0.547268    1.429285
 O   -0.568569    0.934066    1.361499
 O   -2.397915   -0.739481    2.231795
 O    2.619485   -1.639027    2.105643
 C    3.915250   -1.201231    1.709768
 C    4.325909   -0.062117    2.638641
 O    5.639080    0.342062    2.270977
 C    3.998133   -0.769073    0.233909
 O    5.332532   -0.822859   -0.228885
 C    3.177001   -1.672052   -0.680328
 O    3.019415   -1.070906   -1.944461
 C    1.771056   -1.970439   -0.101529
 N    1.588598   -3.388668    0.140422
 C    1.053918   -4.240945   -0.758708
 C    0.813057   -5.648951   -0.280059
 O    0.742221   -3.889713   -1.899082
 H    1.647950   -0.144878    1.042970
 H   -0.032606   -2.555988    1.889621
 H    0.409886   -1.266850    3.019570
 H   -4.658137   -3.114544    0.060569
 H   -4.070729   -1.633387    0.841969
 H   -5.973840    1.446079    1.323322
 H   -4.890647    0.101549    1.657757
 H   -4.529175    2.076234   -0.652036
 H   -3.483083    0.719643   -0.292565
 H   -3.258815    1.803145    2.139348
 H   -2.580338    5.124725    2.413342
 H   -2.104390    3.536373    3.050334
 H   -1.066392    4.388522    1.898384
 H   -8.062776    0.705301    0.099168
 H   -7.086094    1.507556   -1.126605
 H   -7.797274   -0.082231   -1.471245
 H   -3.273061    5.323319   -0.020778
 H   -3.640827    3.878535   -0.953368
 H   -1.683394    2.545183   -2.088732
 H   -0.252130    0.741464   -2.242593
 H    0.925768    0.566086   -0.939205
 H    1.411588    1.336743   -2.424945
 H    1.700851    2.451338    0.350605
 H    0.673246    3.864956    0.499426
 H    2.778898    4.676291   -0.216750
 H    1.719529    4.796915   -1.610337
 H    2.887617    3.052512   -2.806263
 H    4.331937    3.577154    0.640674
 H    5.942557    3.498248   -0.095847
 H    5.166394    2.024545    0.470370
 H    5.444867    0.965058   -1.861657
 H    6.207351    2.425388   -2.487093
 H    4.753546    1.790237   -3.281617
 H   -1.709175    5.075613   -1.868993
 H   -0.841854    4.970581   -0.352977
 H   -6.288406   -1.848098   -1.306042
 H   -0.492363   -2.831561   -2.235268
 H   -1.184968    1.584970    0.965245
 H    4.599962   -2.046571    1.844538
 H    3.608112    0.763319    2.519898
 H    4.292504   -0.405767    3.680003
 H    5.854290    1.164929    2.723476
 H    3.605168    0.254931    0.121297
 H    5.855822   -0.275921    0.378385
 H    3.717271   -2.625532   -0.768730
 H    3.904328   -0.838890   -2.257231
 H    1.037855   -1.650907   -0.843892
 H    1.876697   -3.735962    1.044071
 H    1.424181   -5.926119    0.583604
 H    0.995914   -6.344369   -1.100635
 H   -0.244378   -5.707415   -0.001899
