94 
5ogl_ligand_xtb.xyz
 C    1.567221   -1.181556    1.312400
 C    0.298475   -1.674095    1.992221
 C   -4.316226   -2.221179   -0.069365
 C   -5.859231   -0.221205   -0.220084
 C   -5.158643    0.604095    0.822266
 C   -4.036106    1.459240    0.211367
 C   -3.331940    2.222316    1.290419
 C   -2.171305    4.046858    2.463586
 C   -7.043444    0.444949   -0.855652
 C   -2.834382    3.456738    1.250171
 C   -2.897033    4.380151    0.066196
 C   -1.307938    3.243664   -1.529467
 C   -0.170794    1.236650   -2.378621
 C   -0.271624    2.414794   -1.455847
 C    0.843929    2.572800   -0.457642
 C    1.908212    3.606207   -0.895151
 C    2.929867    2.992533   -1.799359
 C    4.912040    3.177345   -0.264892
 C    4.215177    2.784779   -1.537842
 C    5.125958    2.144330   -2.546952
 C   -1.565482    4.465528   -0.704344
 C   -5.491625   -1.447268   -0.579649
 O   -3.312899   -2.194131   -1.102332
 P   -1.788180   -2.348929   -0.761664
 O   -1.362695   -3.460738    0.092948
 O   -1.181569   -2.210481   -2.183893
 O   -1.377364   -0.921075   -0.071117
 P   -1.182058   -0.729089    1.517668
 O   -0.680941    0.776074    1.568211
 O   -2.403223   -0.990357    2.279954
 O    2.665570   -1.607161    2.112701
 C    3.923005   -1.086401    1.721254
 C    4.382883   -0.067531    2.779962
 O    5.680536    0.386492    2.452321
 C    3.938511   -0.441372    0.324504
 O    5.250659   -0.392003   -0.182213
 C    3.090644   -1.216823   -0.699160
 O    2.755189   -0.382519   -1.773727
 C    1.771247   -1.753623   -0.095464
 N    1.786969   -3.194003    0.012088
 C    1.316305   -4.046172   -0.914006
 C    1.290517   -5.487195   -0.481405
 O    0.935840   -3.683688   -2.017687
 H    1.533621   -0.087352    1.264628
 H    0.094031   -2.722127    1.778301
 H    0.405622   -1.556302    3.070556
 H   -4.587040   -3.268057    0.103033
 H   -3.905262   -1.808458    0.852257
 H   -5.881477    1.267236    1.303744
 H   -4.721013   -0.035740    1.587908
 H   -4.444846    2.128850   -0.546668
 H   -3.324728    0.795048   -0.288902
 H   -3.269197    1.675433    2.225371
 H   -2.750538    4.894438    2.830546
 H   -2.085353    3.315678    3.263313
 H   -1.175662    4.414344    2.219310
 H   -7.822817    0.609672   -0.111821
 H   -6.757290    1.417184   -1.253788
 H   -7.453568   -0.156586   -1.661895
 H   -3.148402    5.381556    0.427182
 H   -3.679353    4.066031   -0.625150
 H   -2.069653    3.050360   -2.275149
 H   -0.670884    1.431874   -3.324361
 H   -0.652535    0.372782   -1.922944
 H    0.865168    0.968301   -2.564941
 H    1.328896    1.605945   -0.321418
 H    0.435083    2.878805    0.506725
 H    2.385195    4.027400   -0.009344
 H    1.409774    4.423748   -1.421832
 H    2.537943    2.674695   -2.756065
 H    4.224454    3.268552    0.571210
 H    5.415374    4.136189   -0.396680
 H    5.669512    2.437469   -0.013072
 H    5.556673    1.228859   -2.138871
 H    5.952253    2.815062   -2.782910
 H    4.596959    1.912198   -3.468106
 H   -1.625513    5.327521   -1.377411
 H   -0.748681    4.650552   -0.008209
 H   -6.039969   -1.951333   -1.364201
 H   -0.355996   -2.744738   -2.279665
 H   -1.417596    1.393946    1.427175
 H    4.633749   -1.924743    1.714361
 H    3.671247    0.769432    2.799769
 H    4.371005   -0.558555    3.760212
 H    5.988289    0.983155    3.142186
 H    3.533600    0.581637    0.391290
 H    5.816461   -0.033029    0.516773
 H    3.695117   -2.067861   -1.051243
 H    3.563902    0.022848   -2.111177
 H    0.968995   -1.448747   -0.771308
 H    2.109469   -3.546731    0.901717
 H    2.110765   -5.731234    0.187362
 H    1.313185   -6.131226   -1.355469
 H    0.343691   -5.640319    0.034983
