11 
5oh7_ligand_xtb.xyz
 O    2.289256   -0.614133   -0.001230
 C    1.161818   -0.205418    0.000096
 C    0.688882    1.247495    0.001494
 N   -0.739910    1.110249   -0.001778
 N    0.018894   -0.950603    0.001006
 C   -1.153364   -0.179732   -0.000108
 O   -2.274780   -0.604530    0.000128
 H    1.065849    1.768929   -0.884472
 H    1.061381    1.764511    0.892151
 H   -1.381460    1.883064   -0.002691
 H    0.001508   -1.958786    0.000341
