10 
5oh9_ligand_dft.xyz
 O   -2.029087   -1.264963   -0.000530
 C   -1.027704   -0.604406    0.000113
 N    0.267735   -1.107958    0.001486
 S   -0.968477    1.185075   -0.000307
 C    0.850165    1.205228    0.000610
 C    1.340053   -0.238122    0.000147
 O    2.498666   -0.571573   -0.001082
 H    0.411141   -2.109568   -0.000109
 H    1.238809    1.709567    0.888066
 H    1.239834    1.710600   -0.885772
