27 
5oht_ligand_xtb.xyz
 O    1.502034    1.199934    0.612837
 S    1.979492   -0.029434    0.011661
 O    2.471734   -1.005264    0.927871
 O    3.067165    0.303653   -1.079799
 C    0.673935   -0.683277   -1.041017
 C   -0.567465   -1.179941   -0.285766
 C   -0.586574   -0.921581    1.226172
 N   -0.796614    0.510034    1.537815
 C   -2.070729    1.022589    1.000433
 C   -2.063180    0.882367   -0.528073
 O   -1.033648    1.631995   -1.115693
 C   -1.878253   -0.606609   -0.890399
 O   -2.990883   -1.279374   -0.359017
 H    3.978980    0.190108   -0.796073
 H    1.143383   -1.480037   -1.607092
 H    0.439739    0.146300   -1.700999
 H   -0.618179   -2.268507   -0.394585
 H    0.350870   -1.254935    1.674367
 H   -1.420566   -1.488878    1.649943
 H    0.043171    1.030979    1.114954
 H   -0.761215    0.647005    2.550378
 H   -2.184846    2.069557    1.285190
 H   -2.905032    0.439015    1.394772
 H   -3.049922    1.183887   -0.903268
 H   -1.272367    2.564803   -1.153164
 H   -1.837483   -0.688459   -1.982405
 H   -3.179724   -2.078979   -0.860990
