27 
5ohy_ligand_dft.xyz
 O   -3.321542    0.510426    0.332277
 S   -1.886893   -0.071646   -0.087492
 O   -1.511949   -1.085695    0.888602
 O   -1.929711   -0.370291   -1.507169
 C   -0.899291    1.391048    0.240753
 C    0.617675    1.226916    0.453389
 C    1.024353    0.399524    1.685383
 N    1.247476   -1.046047    1.351693
 C    2.309216   -1.228783    0.306959
 C    1.756663   -0.628872   -0.976100
 O    0.598696   -1.381382   -1.213506
 C    1.494703    0.877998   -0.783045
 O    2.781565    1.427345   -0.593690
 H   -3.968168    0.298060   -0.364418
 H   -1.343233    1.822975    1.142741
 H   -1.099743    2.076344   -0.587742
 H    0.917936    2.250434    0.706242
 H    1.971783    0.771579    2.079990
 H    0.268023    0.438240    2.471091
 H    0.349740   -1.434254    0.998418
 H    1.488079   -1.558998    2.202613
 H    3.219303   -0.729661    0.641485
 H    2.477962   -2.299247    0.184955
 H    2.505337   -0.737623   -1.769138
 H    0.091283   -1.064262   -1.973646
 H    1.013391    1.270812   -1.689493
 H    2.809874    2.334056   -0.921229
