54 
5okt_ligand_xtb.xyz
 C   -8.331122   -1.596535   -0.382265
 C   -7.233671   -0.581316   -0.344596
 C   -5.943994   -0.942404    0.011804
 C   -4.960450    0.029276    0.029619
 C   -5.242214    1.370268   -0.306500
 C   -6.540440    1.724389   -0.665085
 C   -7.511888    0.750663   -0.679020
 N   -4.169073    2.211976   -0.237762
 C   -3.113520    1.589814    0.128430
 N   -1.900564    2.233944    0.266886
 C   -0.773504    1.629543    0.694666
 O   -0.728628    0.440899    0.966968
 C    0.449033    2.523556    0.775332
 S    1.775222    1.845603   -0.285106
 C    2.705287    0.751969    0.968304
 N    1.927955    0.036847    1.878569
 C    0.807667   -1.432833   -0.603042
 C    1.985971   -1.929273   -0.196039
 S    1.918381   -3.636998    0.294303
 C    0.089747   -3.601964    0.256309
 C   -0.336431   -2.376801   -0.553881
 C    3.289178   -1.313204   -0.261376
 O    4.294880   -1.995804   -0.760328
 N    3.565770   -0.099102    0.146276
 C    4.860691    0.448164   -0.160712
 C    5.126828    0.862084   -1.457037
 C    6.362680    1.413317   -1.747507
 C    7.319417    1.541645   -0.753912
 C    7.044446    1.120741    0.537128
 C    5.810091    0.573851    0.842376
 S   -3.273206   -0.132817    0.445135
 H   -7.993961   -2.555554    0.001139
 H   -9.179330   -1.259205    0.210646
 H   -8.678635   -1.734293   -1.405645
 H   -5.709057   -1.962291    0.275009
 H   -6.758181    2.748398   -0.920320
 H   -8.522318    1.013898   -0.953146
 H   -1.926913    3.221604    0.048665
 H    0.826073    2.564586    1.796737
 H    0.255513    3.531500    0.414764
 H    3.391844    1.437878    1.474891
 H    0.999157   -0.226206    1.552517
 H    1.862846    0.470343    2.787727
 H    0.686889   -0.447288   -1.017127
 H    4.045596   -2.903666   -1.005693
 H   -0.241180   -3.535134    1.292403
 H   -0.253757   -4.540251   -0.171836
 H   -0.619161   -2.649545   -1.575787
 H   -1.200205   -1.888257   -0.098140
 H    4.369246    0.764783   -2.219189
 H    6.575045    1.743217   -2.752046
 H    8.281802    1.969637   -0.985895
 H    7.790835    1.215539    1.309886
 H    5.590057    0.231577    1.842247
