46 
5olk_ligand_xtb.xyz
 P    3.188825   -0.471098   -0.105342
 O    4.207413   -0.622787    1.055625
 O    4.132109   -0.556346   -1.359609
 O    2.037560   -1.378052   -0.194063
 P    1.357162    1.345680   -0.785935
 O    1.243477    0.767700   -2.113412
 O    1.231435    2.899774   -0.652481
 O    2.754909    1.097721   -0.077184
 P    0.484210    0.103461    1.723847
 O    1.859255   -0.100111    2.167254
 O   -0.317513    1.106576    2.621040
 O    0.301516    0.761080    0.260289
 O   -0.502533   -1.125950    1.699626
 C   -0.186912   -2.485523    1.419237
 C   -0.985564   -2.994330    0.217267
 O   -2.395294   -2.869732    0.422719
 C   -0.667212   -2.251405   -1.105368
 O    0.306248   -2.903558   -1.860004
 C   -2.040179   -2.212866   -1.785218
 C   -2.940852   -2.043132   -0.569570
 N   -2.931774   -0.660252   -0.088124
 C   -3.100025   -0.329074    1.222631
 N   -2.806370    0.907119    1.506324
 C   -2.414060    1.453540    0.306981
 C   -1.802113    2.670181   -0.031888
 N   -1.614735    3.667998    0.852945
 N   -1.382275    2.837205   -1.291867
 C   -1.601544    1.867629   -2.177761
 N   -2.142304    0.691287   -1.972642
 C   -2.484411    0.477156   -0.700729
 H    3.736859   -0.503387    1.889512
 H    3.623209   -0.556691   -2.173363
 H    0.422784    3.199543   -1.115375
 H   -1.285090    1.082716    2.452884
 H    0.878513   -2.590412    1.214133
 H   -0.465212   -3.054022    2.311235
 H   -0.759684   -4.061992    0.093739
 H   -0.347298   -1.230011   -0.881151
 H    1.158755   -2.570488   -1.545213
 H   -2.126362   -1.403623   -2.503399
 H   -2.235096   -3.173386   -2.261609
 H   -3.982378   -2.351958   -0.723441
 H   -3.430084   -1.049953    1.943657
 H   -1.744415    3.466500    1.829366
 H   -1.005169    4.423720    0.590333
 H   -1.281502    2.075726   -3.188192
