57 
5om2_ligand_dft.xyz
 C   -1.797429   -1.431489   -0.425034
 O   -1.282637   -2.410885   -0.933179
 C   -3.129017   -0.934437   -0.779232
 O   -5.291650   -1.278870   -1.668355
 C   -4.130646   -1.728613   -1.534121
 N   -3.761145   -2.899086   -2.047848
 C   -3.521562    0.307572   -0.370605
 O   -4.729081    0.788863   -0.536301
 C   -2.571491    1.328357    0.201037
 N   -3.307689    2.082577    1.291910
 C   -3.598112    1.289158    2.526218
 C   -2.664596    3.392737    1.610721
 C   -1.167456    0.819666    0.568504
 C   -0.174600    1.276023   -0.516063
 O   -0.349512    2.682556   -0.570964
 C    1.273776    0.887459   -0.186305
 C    2.219906    0.877584   -1.413308
 C    2.092669    2.095077   -2.329380
 C    3.641212    0.641686   -0.912382
 C    4.733701    1.320245   -1.414745
 C    6.026724    1.017833   -0.957039
 C    6.248273    0.029491   -0.024714
 C    5.159481   -0.687994    0.491316
 O    5.423028   -1.648509    1.373457
 C    3.845923   -0.358216    0.076808
 C    2.708881   -1.035670    0.677133
 O    2.854409   -2.072509    1.372993
 C    1.376026   -0.466480    0.482791
 C    0.303797   -1.158605    0.934893
 O    0.353158   -2.308876    1.591098
 C   -1.122433   -0.693101    0.761496
 O   -1.871814   -1.009059    1.917670
 H   -4.444419   -3.440413   -2.557912
 H   -2.805222   -3.220862   -1.945515
 H   -5.247361    0.008201   -1.030907
 H   -2.450353    2.085298   -0.580940
 H   -4.218459    2.276170    0.856259
 H   -2.661343    1.029922    3.014722
 H   -4.119393    0.375493    2.245780
 H   -4.222035    1.902508    3.177010
 H   -3.328661    3.949003    2.272719
 H   -1.710641    3.212092    2.104217
 H   -2.493334    3.940518    0.685045
 H   -0.839881    1.271117    1.511558
 H   -0.465557    0.815206   -1.475953
 H    0.243375    3.051078   -1.236546
 H    1.637342    1.655443    0.514064
 H    1.938051   -0.002700   -2.011057
 H    2.335578    3.030654   -1.810030
 H    2.769744    2.009955   -3.182401
 H    1.088850    2.159938   -2.765752
 H    4.619511    2.089679   -2.167988
 H    6.871652    1.567711   -1.360042
 H    7.244446   -0.224514    0.319186
 H    4.583030   -2.104713    1.593295
 H    1.321397   -2.535237    1.696830
 H   -1.529850   -1.857368    2.246641
