82 
5oot_ligand_dft.xyz
 C   -4.276348   -0.078541   -0.573392
 C   -5.225973    0.625449   -1.326243
 C   -4.916194    1.960223   -1.570317
 N   -3.780315    2.539118   -1.200451
 N   -3.118487    0.470535   -0.219148
 C    7.604696    0.401446   -0.531070
 C    7.217467    0.435540   -2.012795
 N    7.931952   -0.600562   -2.747674
 C    7.578788   -0.644921   -4.157253
 C    6.198503   -3.625534   -2.022683
 C    6.530056   -4.291429   -0.920380
 N    7.410463   -0.887657    0.116707
 C    6.165388   -1.112760    0.842719
 C    6.153383   -0.357485    2.175931
 C    4.882680   -0.669725    2.968050
 C    4.862424   -0.832236    0.073410
 C    3.629910   -1.129870    0.933253
 N    3.680092   -0.383617    2.189594
 C    3.125059    0.867334    2.338913
 O    3.617334    1.714976    3.074236
 C    1.844434    1.158208    1.614788
 C    1.659264    2.461258    1.138583
 C    0.476070    2.814066    0.516830
 O    0.205437    4.048133    0.005292
 C    1.178442    5.058335    0.160685
 C    0.810853    0.238084    1.493081
 C   -0.390522    0.588154    0.879875
 C   -0.572956    1.873340    0.374657
 N   -1.715082    2.345028   -0.268174
 C   -2.905558    1.741721   -0.567840
 N   -4.513928   -1.395060   -0.174130
 C   -3.333426   -2.176104    0.168755
 C   -5.697119   -1.618574    0.585228
 C   -5.605719   -2.207361    1.852108
 C   -6.740179   -2.427712    2.621462
 C   -7.994629   -2.063751    2.144567
 C   -8.094528   -1.500340    0.882549
 C   -6.964955   -1.266764    0.093518
 C   -7.253673   -0.787050   -1.296075
 O   -8.296886   -1.104446   -1.848712
 N   -6.340412    0.011041   -1.939625
 C   -6.669669    0.396429   -3.308277
 H   -5.613945    2.585853   -2.123186
 H    7.047439    1.178267    0.003169
 H    8.665891    0.683239   -0.449149
 H    7.403026    1.448144   -2.418622
 H    6.145369    0.237203   -2.127252
 H    8.932217   -0.441484   -2.655306
 H    6.527023   -0.936998   -4.255541
 H    7.709317    0.318075   -4.681199
 H    8.184494   -1.401493   -4.664706
 H    6.821589   -2.821922   -2.412489
 H    5.287427   -3.856450   -2.569906
 H    7.442370   -4.067060   -0.372189
 H    5.910696   -5.090659   -0.521380
 H    7.531779   -1.610069   -0.586397
 H    6.164657   -2.186792    1.080358
 H    6.191647    0.726061    2.008380
 H    7.041512   -0.632661    2.754086
 H    4.838993   -0.083172    3.885117
 H    4.856580   -1.735731    3.231557
 H    4.832345   -1.444128   -0.836010
 H    4.821678    0.223191   -0.228552
 H    3.591274   -2.200798    1.174167
 H    2.719810   -0.881058    0.389425
 H    2.456311    3.179909    1.287714
 H    1.387839    5.248233    1.220158
 H    2.111296    4.793753   -0.352233
 H    0.756384    5.954956   -0.294042
 H    0.926502   -0.762553    1.898579
 H   -1.195994   -0.126127    0.794709
 H   -1.671312    3.311972   -0.559659
 H   -2.864446   -1.867776    1.111730
 H   -3.623528   -3.227247    0.231832
 H   -2.596957   -2.058202   -0.627370
 H   -4.638016   -2.485983    2.251093
 H   -6.635631   -2.880602    3.602885
 H   -8.884944   -2.232966    2.741084
 H   -9.061710   -1.252206    0.459495
 H   -7.145888   -0.448670   -3.804979
 H   -7.367415    1.241120   -3.337997
 H   -5.748557    0.665179   -3.829426
