38 
5op5_ligand_dft.xyz
 N   15.301347  -35.864887   19.618674
 C   18.330851  -35.194108   14.420477
 N   15.185762  -33.508784   19.217411
 C   17.339742  -35.375072   16.699273
 C   18.857088  -33.500913   16.046016
 C   16.050073  -35.918717   18.512886
 C   15.660914  -32.501448   15.917603
 C   17.394272  -36.725783   16.927109
 N   19.433710  -35.553232   11.116049
 C   15.578634  -31.191690   17.942919
 C   19.680461  -32.863940   15.124574
 C   19.844659  -33.384886   13.846559
 C   19.165763  -34.556063   13.498470
 C   18.172395  -34.675562   15.706804
 N   16.609363  -37.055600   18.004957
 C   16.447206  -34.837453   17.703397
 C   15.883265  -33.594252   18.082903
 C   14.951256  -34.625130   19.921119
 N   16.039841  -32.438698   17.334323
 C   16.190881  -31.275386   15.188243
 O   15.734081  -30.082629   15.786662
 C   16.130482  -30.021789   17.139721
 C   19.314317  -35.106652   12.178976
 H   17.791115  -36.088568   14.125735
 H   18.727451  -33.082728   17.038726
 H   14.562547  -32.525819   15.832423
 H   16.057073  -33.405693   15.456563
 H   17.983878  -37.476367   16.420337
 H   15.931630  -31.145884   18.974589
 H   14.479777  -31.147191   17.964690
 H   20.202504  -31.955091   15.406721
 H   20.485823  -32.895207   13.121743
 H   16.513009  -37.966839   18.423376
 H   14.382498  -34.491619   20.838144
 H   15.831917  -31.268845   14.156096
 H   17.291534  -31.301933   15.179393
 H   17.231008  -30.014141   17.212179
 H   15.746874  -29.078400   17.536161
