55 
5op6_ligand_xtb.xyz
 O   -2.619603    0.936182    0.162783
 C   -1.498240    0.512973   -0.012737
 N   -1.270026   -0.870363   -0.073030
 C   -2.465882   -1.708405    0.116284
 C   -2.857292   -2.511159   -1.129426
 C   -4.223501   -3.151900   -0.885409
 C   -4.188756   -4.030737    0.362289
 C   -3.789964   -3.211413    1.587017
 C   -2.416878   -2.572046    1.381466
 C   -0.020520   -1.378672   -0.289913
 O    0.133345   -2.687095   -0.343870
 C    1.072789   -0.555522   -0.432419
 C    2.407715   -1.181663   -0.683545
 N    3.462661   -0.344584   -0.569956
 C    4.803865   -0.839508   -0.669916
 C    5.562779   -0.683255    0.644729
 O    6.821116   -1.161411    0.615288
 O    5.112693   -0.174561    1.625736
 O    2.545251   -2.352522   -0.988780
 C    0.905193    0.871165   -0.342189
 N   -0.409791    1.317260   -0.157906
 C   -0.608870    2.775870   -0.092817
 C   -1.120979    3.224368    1.274197
 C   -1.165760    4.749242    1.314001
 C   -2.061240    5.284762    0.200925
 C   -1.565078    4.807696   -1.160695
 C   -1.521984    3.282824   -1.206989
 O    1.804650    1.693655   -0.421452
 H   -3.262839   -0.970519    0.272936
 H   -2.143707   -3.301586   -1.375696
 H   -2.907340   -1.836262   -1.986428
 H   -4.507693   -3.747630   -1.754125
 H   -4.972658   -2.368788   -0.755630
 H   -3.474724   -4.845308    0.217470
 H   -5.170918   -4.476863    0.523710
 H   -3.766293   -3.849493    2.471599
 H   -4.532251   -2.429411    1.756655
 H   -2.165959   -1.939431    2.235394
 H   -1.669461   -3.367694    1.332104
 H   -0.703553   -3.159024   -0.234909
 H    3.302405    0.620441   -0.303269
 H    5.355099   -0.314454   -1.462414
 H    4.726689   -1.904657   -0.926862
 H    7.046939   -1.569473   -0.230872
 H    0.391772    3.193268   -0.243815
 H   -0.458106    2.845056    2.055092
 H   -2.120705    2.822951    1.440957
 H   -0.155182    5.145243    1.190998
 H   -1.539568    5.078770    2.285063
 H   -2.076418    6.376038    0.228994
 H   -3.081663    4.928951    0.357038
 H   -0.564242    5.205585   -1.343355
 H   -2.223165    5.178607   -1.948686
 H   -2.526862    2.884108   -1.068343
 H   -1.143521    2.943671   -2.174121
