27 
5ops_ligand_xtb.xyz
 C    4.142124   -7.763423   17.470545
 C    4.118045   -6.621372   18.250549
 C    4.569781   -5.412890   17.727912
 C    5.028521   -5.363778   16.416550
 C    5.063347   -6.514522   15.640541
 C    4.612019   -7.719639   16.172694
 C    4.554056   -4.200227   18.554513
 C    3.441271   -3.863591   19.319392
 C    3.426198   -2.709285   20.098339
 N    4.434031   -1.860089   20.189508
 C    5.639250   -3.316729   18.637064
 C    5.499851   -2.180911   19.473887
 N    6.662901   -1.468285   19.430066
 C    7.543394   -2.102333   18.615178
 C    6.970182   -3.243674   18.101552
 C    7.612345   -4.132134   17.230579
 N    8.161920   -4.832755   16.505470
 O    5.517140   -6.505897   14.363409
 H    3.796653   -8.700266   17.881437
 H    3.773597   -6.666956   19.272751
 H    5.345684   -4.421731   15.989620
 H    4.643516   -8.602745   15.555216
 H    2.568026   -4.496531   19.293039
 H    2.553440   -2.451840   20.682251
 H    6.828352   -0.616520   19.939862
 H    8.529460   -1.716580   18.439831
 H    5.922895   -5.653298   14.164244
