31 
5opu_ligand_xtb.xyz
 C    5.888711   -5.940148   13.883733
 C    5.295699   -6.130197   15.244704
 C    5.135753   -5.036490   16.084307
 C    4.926299   -7.385691   15.707241
 C    4.404859   -7.543063   16.980453
 C    4.257794   -6.450993   17.813297
 C    4.635403   -5.185776   17.371394
 C    4.513967   -4.021444   18.257751
 C    5.565096   -3.105739   18.436956
 C    3.355655   -3.767844   18.966624
 C    3.243176   -2.636960   19.801679
 N    2.109946   -2.432272   20.537162
 N    4.220686   -1.751330   19.966788
 C    5.338306   -2.013972   19.302425
 N    6.473314   -1.260183   19.350133
 C    7.424968   -1.834227   18.564281
 C    6.919841   -2.973047   17.980212
 C    7.638035   -3.821868   17.129775
 N    8.257435   -4.496936   16.436903
 H    5.354179   -5.166514   13.334544
 H    6.925846   -5.621829   13.985530
 H    5.860701   -6.863271   13.310402
 H    5.397006   -4.051627   15.724388
 H    5.049322   -8.248249   15.068034
 H    4.119594   -8.525813   17.327454
 H    3.874854   -6.574881   18.815958
 H    2.509193   -4.430941   18.870393
 H    2.023597   -1.525192   20.963527
 H    1.260629   -2.875813   20.233896
 H    6.582034   -0.425266   19.900611
 H    8.404101   -1.407427   18.462445
