41 
5opv_ligand_dft.xyz
 N  -18.531324   -2.263755   19.795801
 C  -19.412008   -4.276988   18.776694
 C  -19.523820   -3.135443   19.603837
 N  -16.256734   -1.808888   19.237613
 C  -18.227528   -4.549205   18.108739
 N  -14.315229   -5.036170   16.386632
 C  -15.275720   -2.394686   18.491078
 N  -20.680381   -2.807529   20.285416
 C  -15.771318   -3.531350   17.897446
 N  -23.443601   -4.886834   20.096037
 C  -17.156489   -3.652001   18.303983
 N  -22.164686   -4.609250   19.758328
 C  -17.408401   -2.557025   19.150947
 C  -14.983289   -4.375343   17.068211
 C  -18.122622   -5.745747   17.240581
 C  -18.586374   -6.987319   17.689312
 C  -18.468554   -8.104966   16.874466
 C  -17.884341   -7.997624   15.614212
 C  -17.421938   -6.768820   15.145533
 C  -17.564215   -5.649877   15.966989
 C  -21.899599   -3.459207   20.367504
 C  -23.010995   -2.987401   21.106494
 C  -23.977836   -3.944221   20.897481
 C  -24.055607   -6.090454   19.587325
 C  -16.746188   -6.631482   13.805843
 H  -20.270798   -4.922159   18.652980
 H  -16.168093   -0.973452   19.792936
 H  -14.283984   -1.972771   18.427162
 H  -20.594602   -1.954659   20.817118
 H  -19.017177   -7.071996   18.682725
 H  -18.820827   -9.070120   17.226698
 H  -17.780525   -8.881836   14.990266
 H  -17.227904   -4.682977   15.602588
 H  -23.087374   -2.086567   21.696629
 H  -24.993976   -4.019183   21.257079
 H  -24.062894   -6.073810   18.494481
 H  -23.499507   -6.967435   19.928647
 H  -25.081382   -6.145539   19.956257
 H  -17.230338   -5.863330   13.192695
 H  -15.700495   -6.333525   13.942716
 H  -16.764326   -7.572056   13.247522
