56 
5oq8_ligand_dft.xyz
 C    0.994995   -4.477330   19.261749
 C    1.859561   -4.747657   18.205429
 C    1.344138   -5.404308   17.072483
 C    0.007362   -5.779839   17.044664
 C   -0.829738   -5.530217   18.126449
 C   -0.350313   -4.861228   19.258411
 O    2.154888   -5.637001   15.988668
 C    2.204192   -6.967559   15.450905
 C    3.647851   -7.318291   15.208624
 N   -1.165764   -4.536137   20.359403
 C    3.290974   -4.303259   18.424720
 N    4.142373   -4.460480   17.369705
 O    3.633094   -3.840632   19.504615
 C    5.519492   -4.211459   17.329749
 C    6.270934   -3.676710   18.377518
 C    7.636394   -3.505156   18.175771
 C    8.202650   -3.864091   16.959413
 N    7.491626   -4.374877   15.949335
 C    6.188265   -4.536867   16.140212
 C    4.213041   -7.200929   13.939719
 C    5.570261   -7.450532   13.746392
 C    6.371054   -7.813818   14.824311
 C    5.813213   -7.932317   16.095925
 C    4.458919   -7.686749   16.285588
 C   -0.699901   -4.992914   21.667692
 C   -1.461095   -4.283335   22.776881
 N   -2.890853   -4.507853   22.635328
 C   -3.339043   -4.023727   21.340679
 C   -2.597760   -4.729583   20.212360
 C   -3.636715   -3.900110   23.718779
 H    1.412963   -3.939677   20.105292
 H   -0.385310   -6.276466   16.162484
 H   -1.859681   -5.864093   18.072756
 H    1.627685   -6.991256   14.519663
 H    1.744059   -7.658936   16.165160
 H    3.734235   -4.861677   16.532486
 H    5.792048   -3.411599   19.309579
 H    8.255640   -3.092229   18.965779
 H    9.268335   -3.739096   16.781980
 H    5.627284   -4.961340   15.307123
 H    3.590026   -6.905490   13.099084
 H    6.003243   -7.350028   12.756003
 H    7.431967   -7.989079   14.678571
 H    6.437745   -8.203805   16.941017
 H    4.026461   -7.762328   17.280397
 H   -0.843671   -6.082475   21.770960
 H    0.365932   -4.783300   21.772706
 H   -1.135271   -4.679779   23.745074
 H   -1.213882   -3.203602   22.751312
 H   -3.186570   -2.930881   21.239822
 H   -4.412147   -4.222542   21.241138
 H   -2.918055   -4.298285   19.258966
 H   -2.871772   -5.800368   20.218425
 H   -3.301487   -4.314737   24.675033
 H   -3.518552   -2.800077   23.759516
 H   -4.702320   -4.124890   23.605196
