32 
5oqu_ligand_xtb.xyz
 C    3.393387   -1.967347    0.374361
 C   -4.409268   -0.517710    0.015858
 C    4.126582   -0.870727   -0.042517
 C    3.491558    0.282842   -0.469508
 C    2.103934    0.360239   -0.471956
 C   -0.797228    0.272093    0.762049
Cl    0.059117    1.394127    1.743562
 C   -2.181264    0.306792    0.771645
 C   -2.911959   -0.618031    0.032182
 N   -4.802358    0.649970   -0.855931
 C   -2.243825   -1.585576   -0.707260
 C   -0.862032   -1.617776   -0.707462
 C   -0.112166   -0.685120    0.004345
 C    1.357007   -0.744009   -0.026421
 O    1.385610    1.428374   -0.917590
 C    2.083018    2.570776   -1.361867
 C    2.012561   -1.901238    0.373824
 H    3.892275   -2.865724    0.700815
 H   -4.803166   -0.334496    1.016554
 H   -4.862410   -1.422016   -0.389971
 H    5.204873   -0.908923   -0.043016
 H    4.087346    1.118249   -0.799247
 H   -2.679215    1.041018    1.387705
 H   -5.817679    0.807627   -0.858525
 H   -4.323508    1.491623   -0.506379
 H   -4.481947    0.481285   -1.818295
 H   -2.799076   -2.319750   -1.270974
 H   -0.342187   -2.370064   -1.279869
 H    2.698468    2.999839   -0.566024
 H    2.709740    2.345995   -2.229515
 H    1.316113    3.288740   -1.648303
 H    1.425165   -2.741604    0.713090
