36 
5org_ligand_xtb.xyz
 O   -3.817320    1.191958   -0.358123
 C   -2.680898    0.523549   -0.342059
 C   -1.531127    1.359428    0.196493
 C   -1.782048    1.647073    1.680736
 N   -0.293906    0.622558   -0.004474
 C    0.931872    1.404412    0.032635
 C    1.802852    1.069199   -1.167469
 O    2.736049    1.971370   -1.382354
 O    1.659805    0.072043   -1.840156
 C    1.740197    1.178537    1.332897
 C    2.480635   -0.154785    1.475440
 C    1.587673   -1.395021    1.559935
 N    1.198013   -1.847542    0.239112
 C   -0.016491   -2.193273   -0.161857
 N   -0.246442   -2.318868   -1.470495
 N   -0.972847   -2.537474    0.697472
 O   -2.572438   -0.622394   -0.712775
 H   -4.556347    0.659284   -0.696787
 H   -1.549401    2.319055   -0.350297
 H   -2.756981    2.109208    1.804769
 H   -1.749420    0.723519    2.252945
 H   -1.028153    2.329160    2.061908
 H   -1.922399   -2.585806    0.364522
 H   -0.349513    0.150513   -0.902889
 H    0.715812    2.481979   -0.023360
 H    3.294494    1.758363   -2.149619
 H    2.481161    1.976682    1.395127
 H    1.052927    1.290572    2.170541
 H    3.198740   -0.282591    0.663094
 H    3.055905   -0.097101    2.400850
 H    2.134557   -2.199232    2.063381
 H    0.697789   -1.152596    2.142727
 H    1.854381   -1.625301   -0.498602
 H    0.405298   -1.908253   -2.122743
 H   -1.191382   -2.463557   -1.788085
 H   -0.825960   -2.453140    1.687966
