36 
5org_ligand_dft.xyz
 O   -4.046589   -0.640850   -0.116632
 C   -2.745686   -0.600695   -0.367271
 C   -2.043698    0.436157    0.503670
 C   -2.265044    0.178089    1.992881
 N   -0.601200    0.360919    0.153273
 C    0.229311    1.528137    0.548793
 C    0.328150    2.432711   -0.676099
 O    0.876843    3.602936   -0.379075
 O   -0.031301    2.087307   -1.777023
 C    1.622494    1.128050    1.073997
 C    2.579903    0.484363    0.036377
 C    3.232140   -0.860322    0.448135
 N    2.608094   -2.036055   -0.156560
 C    1.260637   -2.219040   -0.077293
 N    0.637079   -2.747586   -1.149179
 N    0.541123   -1.846678    0.958105
 O   -2.173670   -1.283271   -1.185207
 H   -4.455424   -1.302920   -0.699880
 H   -2.424846    1.423833    0.217999
 H   -3.330304    0.242173    2.220380
 H   -1.903095   -0.816873    2.267471
 H   -1.746770    0.923238    2.603040
 H   -0.183648   -0.608125    0.562807
 H   -0.539429    0.269739   -0.870353
 H   -0.288927    2.073862    1.341498
 H    0.938459    4.133292   -1.192220
 H    2.067505    2.045192    1.468924
 H    1.474089    0.474066    1.937635
 H    2.072903    0.331382   -0.924800
 H    3.378854    1.201150   -0.173336
 H    4.275100   -0.878686    0.127022
 H    3.256180   -0.961797    1.539679
 H    3.096834   -2.468731   -0.926535
 H    1.051558   -2.740423   -2.067425
 H   -0.356510   -2.916158   -1.082111
 H    1.130280   -1.712091    1.775079
