23 
5orl_ligand_dft.xyz
 C   -1.604420    2.165129    0.400514
 C   -2.612958   -0.393673    0.018098
 F   -0.416371   -1.231856    0.077012
 C   -1.239503   -0.194356    0.122947
 C   -0.724037    1.091267    0.300164
 N    0.671536    1.286857    0.409799
 C    1.563114    0.896378   -0.558129
 C    3.025042    1.203171   -0.258936
 C    3.894830   -0.027780   -0.504629
 S    3.629942   -1.370608    0.705956
 O    1.220222    0.365225   -1.594898
 C   -2.977580    1.962566    0.322954
 C   -3.485342    0.684424    0.121510
Cl   -3.221567   -2.003659   -0.214326
 H   -1.197568    3.163358    0.529171
 H    1.017941    1.742660    1.239667
 H    3.171078    1.584083    0.758368
 H    3.331387    1.995552   -0.953556
 H    4.953546    0.240329   -0.526429
 H    3.633486   -0.455171   -1.475566
 H    4.236644   -0.761160    1.740297
 H   -3.656110    2.804932    0.403059
 H   -4.552895    0.511497    0.043761
