22 
5orr_ligand_xtb.xyz
 C   -3.729212    0.021056   -0.010244
 C   -0.202717   -1.292539   -0.325810
 C   -1.503582    1.051664    0.385557
 C   -2.231347   -0.065269   -0.005880
 C   -1.581146   -1.244192   -0.348991
 C   -0.124024    0.998393    0.410797
 C    0.542775   -0.170049    0.040151
 C    1.994867   -0.266522    0.050999
 F   -4.173193    1.138668   -0.617232
 F   -4.240770    0.054665    1.236812
 F   -4.321509   -1.007089   -0.631693
 C    2.930419    0.757389   -0.139776
 N    2.720041    2.079417   -0.378000
 N    2.593480   -1.453149    0.259322
 N    3.838571   -1.457511    0.275715
 S    4.503071    0.060360   -0.003071
 H    0.319029   -2.199803   -0.585111
 H   -2.021301    1.954437    0.672672
 H   -2.154129   -2.112352   -0.635557
 H    0.430834    1.854318    0.762484
 H    1.840602    2.326187   -0.806130
 H    3.514215    2.614393   -0.690291
