34 
5orw_ligand_xtb.xyz
 C   -3.523262   -0.191946   -1.066102
 C   -2.565033    0.777555   -0.818013
 C    0.966738   -0.712198   -0.033609
 C    1.645567   -1.708931   -0.969428
 C    3.932669   -0.861323    0.218318
 C    3.010351    0.052041    1.011977
 C   -0.515920    2.690095   -0.137518
 C    0.527877    2.057216   -1.071772
 C    1.751944    1.666995   -0.254611
 C   -1.989711    0.884633    0.445195
 C   -2.391888    0.004796    1.454721
 C   -3.343781   -0.961644    1.212672
 O    2.609144    2.498325   -0.019567
 N    1.832116    0.409753    0.242898
 S    3.106978   -2.440102   -0.165653
 O   -1.042200    1.789732    0.811770
 C   -3.899371   -1.049835   -0.052911
 F   -4.827951   -1.998341   -0.302455
 H   -3.974827   -0.281550   -2.041372
 H   -2.285875    1.442049   -1.620209
 H    0.738774   -1.211598    0.915473
 H    0.022798   -0.387942   -0.467728
 H    1.969128   -1.223807   -1.891955
 H    0.978911   -2.535967   -1.204745
 H    4.819359   -1.114599    0.795263
 H    4.228947   -0.393287   -0.721211
 H    3.532724    0.979586    1.258281
 H    2.694267   -0.446343    1.934039
 H   -1.318379    3.156501   -0.721812
 H   -0.024980    3.463880    0.459055
 H    0.853548    2.829532   -1.770174
 H    0.106338    1.228415   -1.636665
 H   -1.939411    0.106690    2.427809
 H   -3.658849   -1.642328    1.987071
