24 
5orx_ligand_xtb.xyz
 C   -2.406877   -0.139666    1.232189
 C    2.327098    0.794926    0.151414
 C    3.422103    0.175057    0.729143
 C    3.440376   -1.203036    0.847074
 C    1.243710    0.055590   -0.326465
 C    1.297384   -1.335147   -0.215556
 C    2.383070   -1.959999    0.375221
 C   -1.044973    0.516856   -0.459709
 C   -2.119976    0.911813   -1.254561
 C   -3.390219    0.754118   -0.745613
Cl    2.278254    2.509009    0.006934
Cl    0.012341   -2.290225   -0.852540
 O    0.217122    0.711196   -0.945113
 N   -1.186722    0.013530    0.751842
 C   -3.562306    0.207467    0.531821
 N   -4.816887   -0.046322    1.042196
 H   -2.463460   -0.561264    2.227260
 H    4.243468    0.774542    1.086834
 H    4.286287   -1.691012    1.304757
 H    2.395082   -3.035369    0.451318
 H   -1.941013    1.325852   -2.232754
 H   -4.253751    1.043799   -1.327483
 H   -4.875489   -0.177898    2.038688
 H   -5.579285    0.474108    0.639586
