24 
5orz_ligand_xtb.xyz
 C   -4.743834    0.000703    0.014966
 C   -4.315218   -1.289299    0.002876
 C   -2.912793   -1.395663   -0.004341
 C   -2.280343   -0.179041    0.002092
 C    1.145023    1.244997   -0.014533
 C   -0.265211    1.315995   -0.002163
 C   -0.877967    0.088640   -0.004528
 C    1.597007   -0.070209   -0.017876
 C    2.930102   -0.614224   -0.001884
 C    5.227594   -0.142150    0.036950
 O    3.896823    0.348585    0.020763
 O    3.195119   -1.794528    0.002826
 S    0.276424   -1.206072   -0.021023
 S   -3.441257    1.119450    0.017570
 N    1.945687    2.342261   -0.085821
 H   -5.750119    0.369328    0.022398
 H   -4.978184   -2.135651   -0.000787
 H   -2.374247   -2.326062   -0.014275
 H   -0.811013    2.243424    0.003911
 H    5.395978   -0.756655    0.923789
 H    5.418575   -0.749107   -0.850245
 H    5.874386    0.731909    0.048224
 H    1.552085    3.225134    0.190046
 H    2.928361    2.196841    0.074863
