24 
5orz_ligand_dft.xyz
 C   -4.780500    0.009686    0.000240
 C   -4.352879   -1.284576   -0.000809
 C   -2.934789   -1.391661   -0.001087
 C   -2.299751   -0.176206   -0.000202
 C    1.172926    1.236182   -0.000503
 C   -0.253874    1.318055   -0.000573
 C   -0.869989    0.095268   -0.000215
 C    1.608717   -0.082668   -0.000065
 C    2.950024   -0.626479    0.000202
 C    5.245757   -0.132332    0.000264
 O    3.902418    0.346074    0.000006
 O    3.228160   -1.807921    0.000573
 S    0.273199   -1.204906    0.000278
 S   -3.462360    1.118135    0.001108
 N    1.969557    2.337027   -0.000952
 H   -5.797026    0.378018    0.000632
 H   -5.022571   -2.136030   -0.001427
 H   -2.403537   -2.337052   -0.001995
 H   -0.789513    2.261845   -0.001003
 H    5.438995   -0.736890    0.889560
 H    5.439168   -0.737342   -0.888688
 H    5.875299    0.757724    0.000095
 H    1.570825    3.258595   -0.000476
 H    2.969559    2.223441   -0.000362
