31 
5os0_ligand_dft.xyz
 C   -4.456071   -1.342383    0.680654
 C   -4.057082   -0.678938   -0.558700
 C   -1.142678    1.500810    0.667831
 C   -2.556236    0.881197    0.726324
 C   -2.200741    0.549804   -1.690297
 C   -0.674605    0.755016   -1.555818
 C    1.807285   -0.536852   -0.116077
 C    3.182803   -0.550632    0.076328
 C    3.861147    0.591447    0.494306
 C    1.100783    0.645974    0.093195
 C    1.765621    1.800884    0.499070
 C    3.142021    1.760947    0.708515
Cl    4.059383   -2.028236   -0.190379
 N   -0.316138    0.620762   -0.145013
 N   -2.688354   -0.092617   -0.420916
 N   -4.738530   -1.859627    1.674779
 H   -4.752418    0.128440   -0.805238
 H   -4.043056   -1.396955   -1.383179
 H   -0.733991    1.554928    1.677771
 H   -1.193246    2.525953    0.268968
 H   -3.352449    1.621612    0.618399
 H   -2.719222    0.309846    1.641667
 H   -2.456072   -0.101942   -2.527785
 H   -2.750187    1.488200   -1.795705
 H   -0.405888    1.740217   -1.966048
 H   -0.135240   -0.003973   -2.126197
 H    1.286357   -1.441870   -0.410749
 H    4.933354    0.560111    0.650367
 H    1.225750    2.730240    0.652815
 H    3.662067    2.656010    1.033005
 H   -2.007588   -0.834068   -0.205592
