28 
5os3_ligand_dft.xyz
 C    3.801737    0.699372   -0.918244
 C    2.962070   -0.377571   -0.248461
 C   -0.774970   -1.035674   -0.282145
 C    0.601443   -1.205678   -0.374702
 C   -0.415271    1.304258    0.231673
 C    0.948481    1.120649    0.132360
 C    1.481374   -0.142053   -0.173670
 C   -1.295771    0.228189    0.022269
 C   -3.565802   -0.514581   -0.079921
 C   -4.933843    0.111913    0.078731
 O   -2.595423    0.515576    0.131462
 N    3.476750   -0.545616    1.203013
 H    4.860929    0.425080   -0.955022
 H    3.707616    1.668933   -0.419817
 H    3.450285    0.821450   -1.944955
 H    3.164183   -1.349538   -0.706761
 H   -1.427105   -1.882253   -0.458075
 H    0.988258   -2.190698   -0.628124
 H   -0.837611    2.277026    0.457632
 H    1.597131    1.980897    0.279699
 H   -3.436565   -0.933004   -1.086050
 H   -3.408086   -1.314069    0.655385
 H   -5.706270   -0.648640   -0.066078
 H   -5.082592    0.903199   -0.660469
 H   -5.049626    0.539096    1.078148
 H    4.478564   -0.760133    1.245986
 H    3.310882    0.316997    1.731535
 H    2.959452   -1.292575    1.676844
