26 
5osd_ligand_xtb.xyz
 C   -3.538000   -0.986881   -0.203597
 C   -2.471678   -0.008351   -0.226589
 C   -2.439372    1.373749   -0.405827
 C   -1.092305    1.741190   -0.388027
 C   -0.365122    0.572272   -0.193482
 C    2.895499   -1.204844    0.102099
 C    1.542203   -0.965512    0.011821
 C    1.055659    0.343820   -0.092628
 C    3.786995   -0.136097    0.089622
 C    3.318019    1.170709   -0.013893
 C    1.964051    1.408669   -0.104366
 O   -1.205311   -0.463914   -0.101523
 O   -3.453484   -2.164972   -0.402587
 N   -4.838895   -0.436858    0.044953
 N   -5.003212    0.665193    0.934259
Cl    5.473071   -0.429466    0.200481
 H   -3.248519    2.035487   -0.657610
 H   -0.702703    2.728249   -0.520649
 H    3.268185   -2.213510    0.179602
 H    0.846606   -1.790347    0.014592
 H    4.018470    1.990314   -0.023440
 H    1.608800    2.423517   -0.182939
 H   -5.553055   -1.158465    0.098629
 H   -5.778123    1.276102    0.620064
 H   -5.177398    0.390990    1.921642
 H   -4.095054    1.198985    0.869526
