26 
5osd_ligand_dft.xyz
 C   -3.551096   -0.918979    0.276530
 C   -2.484525    0.065618    0.268696
 C   -2.447172    1.424776    0.507109
 C   -1.086920    1.790492    0.493249
 C   -0.373119    0.633907    0.253321
 C    2.872355   -1.221153   -0.048246
 C    1.515123   -0.962641    0.067360
 C    1.048792    0.356666    0.123694
 C    3.768982   -0.156622   -0.106935
 C    3.322485    1.162570   -0.051521
 C    1.964752    1.414286    0.062443
 O   -1.222707   -0.404282    0.120925
 O   -3.474430   -2.088234    0.540676
 N   -4.856906   -0.357188   -0.033590
 N   -4.890050    0.423969   -1.237798
Cl    5.467362   -0.476586   -0.251667
 H   -3.286628    2.063220    0.754983
 H   -0.679448    2.773036    0.676693
 H    3.237383   -2.241047   -0.088501
 H    0.816265   -1.790281    0.122093
 H    4.033536    1.979246   -0.100384
 H    1.622342    2.443842    0.095711
 H   -5.552462   -1.100041   -0.079171
 H   -4.979840   -0.131181   -2.101523
 H   -5.656289    1.105378   -1.192122
 H   -3.992167    0.938933   -1.276751
