36 
5ot8_ligand_xtb.xyz
 O   -2.570790   -0.617227   -0.714700
 C   -2.678234    0.528007   -0.341252
 C   -1.528800    1.359659    0.204245
 C   -1.781960    1.638416    1.689853
 N   -0.291885    0.623077    0.001120
 C    0.934157    1.404391    0.037822
 C    1.801596    1.073109   -1.166006
 O    1.657135    0.077333   -1.840494
 O    2.732999    1.976842   -1.382036
 C    1.745413    1.172852    1.335172
 C    2.483367   -0.162538    1.470985
 C    1.587420   -1.400740    1.554291
 N    1.195292   -1.849674    0.232969
 C   -0.020189   -2.194164   -0.166147
 N   -0.253260   -2.316398   -1.474615
 N   -0.974693   -2.539643    0.694610
 O   -3.812967    1.199092   -0.360352
 H   -1.545408    2.322672   -0.336608
 H   -1.751503    0.711326    2.256425
 H   -2.756395    2.101247    1.815102
 H   -1.027642    2.317076    2.076240
 H   -0.348356    0.151767   -0.897573
 H   -1.924679   -2.590704    0.363447
 H    0.718560    2.482227   -0.013431
 H    3.289328    1.766300   -2.151541
 H    2.487912    1.969446    1.398646
 H    1.060219    1.283200    2.174767
 H    3.198207   -0.289406    0.655631
 H    3.062052   -0.109200    2.394499
 H    0.698650   -1.157045    2.138291
 H    2.132648   -2.207330    2.055782
 H    1.850286   -1.625786   -0.505461
 H   -1.199525   -2.456876   -1.790156
 H    0.397418   -1.904489   -2.127099
 H   -0.825787   -2.457363    1.684978
 H   -4.551812    0.669137   -0.703641
