32 
5ota_ligand_xtb.xyz
 O   -2.624688   -2.003921   -0.475508
 C   -3.198180   -1.006154   -0.101035
 C   -2.370669    0.299035    0.020043
 C   -2.284475    0.693471    1.487551
 N   -1.063485   -0.068842   -0.624726
 C    0.216762    0.258506    0.037265
 C    0.562080    1.751722   -0.152156
 O   -0.310288    2.357580   -0.940973
 O    1.524726    2.254556    0.342992
 C    1.358354   -0.609447   -0.531401
 C    2.624436   -0.504319    0.331389
 C    3.801414   -1.234128   -0.312476
 N    5.045196   -1.027657    0.484236
 O   -4.435555   -0.878843    0.242125
 H   -2.852820    1.101246   -0.542419
 H   -1.691834    1.593258    1.626657
 H   -3.292469    0.909743    1.835165
 H   -1.890480   -0.110412    2.105026
 H   -1.199045   -1.128993   -0.721516
 H   -1.039524    0.327471   -1.570705
 H    0.129699    0.062719    1.109578
 H   -0.102736    3.300371   -1.070803
 H    1.029421   -1.650420   -0.563304
 H    1.586887   -0.294966   -1.551877
 H    2.871116    0.551344    0.458947
 H    2.419194   -0.928659    1.315850
 H    3.976329   -0.854956   -1.321056
 H    3.604225   -2.306113   -0.375206
 H    5.266612   -0.023630    0.554611
 H    4.935216   -1.396342    1.439542
 H    5.847060   -1.504191    0.047811
 H   -4.960719   -1.699072    0.182965
