29 
5otc_ligand_dft.xyz
 O    2.061726   -2.035116    0.108816
 C    2.862450   -1.175214   -0.185128
 O    3.962324   -1.306510   -0.884327
 C    2.663151    0.263987    0.279689
 N    1.338069    0.292023    0.978794
 C    0.135787    0.404501    0.070129
 C   -0.122664    1.867998   -0.298321
 O    0.704109    2.696673    0.345345
 C   -1.084429   -0.265689    0.733164
 C   -2.294981   -0.369610   -0.211079
 C   -3.451225   -1.086796    0.481994
 N   -4.661010   -1.142322   -0.426018
 O   -0.985599    2.186896   -1.066608
 H    4.097321   -2.237227   -1.141376
 H    3.443883    0.550126    0.988991
 H    2.665828    0.977686   -0.545804
 H    1.272171   -0.609361    1.473867
 H    1.321710    1.058060    1.660586
 H    0.389211   -0.136162   -0.845836
 H    0.511236    3.619012    0.092576
 H   -0.778836   -1.276124    1.032097
 H   -1.359556    0.284712    1.641600
 H   -2.003153   -0.919657   -1.114339
 H   -2.602918    0.631817   -0.525935
 H   -3.212616   -2.122270    0.735545
 H   -3.775641   -0.568195    1.387131
 H   -4.980610   -0.203468   -0.692522
 H   -5.451829   -1.613637    0.029883
 H   -4.464623   -1.653822   -1.294381
