31 
5oui_ligand_dft.xyz
Br    4.952823   -0.262406    0.167963
 C    3.099631   -0.002903   -0.004152
 C    2.227037   -1.082242   -0.068541
 C    0.863216   -0.846574   -0.195451
 C    0.453662    0.482950   -0.248202
 N    1.277251    1.524485   -0.188814
 C    2.580255    1.287811   -0.069497
 N   -0.897229    0.900405   -0.370545
 C   -2.016535    0.165001   -0.444802
 O   -2.035040   -1.073818   -0.446292
 C   -3.327964    0.957147   -0.477074
 C   -3.849870    1.209999    0.956307
 C   -4.257783   -0.094457    1.649693
 C   -5.237497   -0.901654    0.804644
 N   -4.667422   -1.106695   -0.570407
 C   -4.374866    0.182547   -1.281800
 H    2.605798   -2.097201   -0.020995
 H    0.151607   -1.657626   -0.252129
 H    3.233930    2.153602   -0.024680
 H   -0.968680    1.911302   -0.395305
 H   -3.173853    1.917206   -0.979777
 H   -4.711228    1.885551    0.892294
 H   -3.086698    1.723831    1.547430
 H   -3.374870   -0.705284    1.865703
 H   -4.736232    0.121893    2.608417
 H   -5.426007   -1.889360    1.229287
 H   -6.191825   -0.382174    0.677804
 H   -5.282884   -1.697267   -1.133150
 H   -3.723990   -1.556369   -0.495933
 H   -5.308294    0.745079   -1.363402
 H   -4.019168   -0.071536   -2.282315
