28 
5oul_ligand_dft.xyz
 C   -2.922023   -0.207468    0.519432
 C   -2.243366   -1.406175    0.744698
 C   -0.871737   -1.464614    0.545843
 C   -0.135513   -0.351938    0.117386
 C   -0.841067    0.839837   -0.115729
 C   -2.215194    0.914637    0.088215
 F    4.423240    0.922534    1.142571
 C    3.579433    0.139688    0.465228
 C    4.092104   -0.839182   -0.374436
 C    3.201762   -1.653396   -1.064546
 C    1.828229   -1.488549   -0.910725
 C    2.217865    0.332563    0.631462
 C    1.332257   -0.490391   -0.067758
Cl   -0.042057    2.265369   -0.703658
 C   -4.408562   -0.131564    0.678608
 N   -5.071306   -0.453791   -0.663250
 H   -2.772952   -2.285178    1.104451
 H   -0.337011   -2.387050    0.747510
 H   -2.719327    1.862632   -0.081449
 H    5.165702   -0.950622   -0.475247
 H    3.582622   -2.422371   -1.728397
 H    1.140445   -2.123719   -1.460924
 H    1.869887    1.105891    1.307100
 H   -4.762457    0.864028    0.953289
 H   -4.800835   -0.862317    1.388357
 H   -6.095511   -0.418084   -0.619138
 H   -4.756506    0.207925   -1.380907
 H   -4.794237   -1.389357   -0.978920
