63 
5ov8_ligand_xtb.xyz
 C   -2.890482   -0.496095   -1.785737
 C   -5.132869    0.577533   -2.078970
 C   -1.768542    0.657689    2.871055
 C   -1.102403   -3.899224   -0.440179
 C   -0.537821    1.876070   -2.151060
 C   -1.700297    2.954129   -0.352738
 C    0.665532    2.063763   -1.493733
 C   -0.502131    3.142927    0.310888
 C    0.624836    0.261603    1.408097
 C    0.954841   -1.954219   -0.204126
 C    4.488477   -2.905500   -0.097705
 C    3.877089   -3.321403   -1.445658
 C    4.366208   -1.372014   -0.092762
 C    3.258236   -2.017023   -1.992587
 C   -3.052584    1.986985   -2.219923
 C   -1.735179    2.295522   -1.578759
 C    1.780302    0.125231    0.660261
 C    0.667486    2.677132   -0.256862
 C    1.971360   -1.013526   -0.145478
 C   -2.673966   -1.323769    1.847358
 C   -2.486094   -2.549081    0.987991
 C   -0.408588   -0.668123    1.316886
 C   -0.244085   -1.788675    0.487546
 C   -3.714554    0.765836   -1.549643
 N    2.724318    1.149649    0.670690
 N    3.168841   -1.087643   -0.879063
 N   -1.600786   -0.486998    1.998345
 N   -1.271726   -2.715590    0.377283
 O   -3.740490   -1.108095    2.386458
 O   -3.388242   -3.351636    0.852840
 O    3.200621    3.491539    0.017951
 O    1.851079    3.111631    2.042374
 S    2.181038    2.751651    0.697287
 H   -2.821941   -0.710413   -2.850808
 H   -1.882558   -0.380853   -1.389456
 H   -3.363127   -1.344519   -1.296838
 H   -5.737602    1.461601   -1.891033
 H   -5.118909    0.390480   -3.150826
 H   -5.604088   -0.269617   -1.587317
 H   -2.760326    0.575569    3.314534
 H   -1.014209    0.649921    3.657298
 H   -1.699140    1.585871    2.303751
 H   -2.023608   -4.475008   -0.358078
 H   -0.942039   -3.627543   -1.484394
 H   -0.268628   -4.500468   -0.076710
 H   -0.550326    1.385621   -3.113028
 H   -2.621777    3.305688    0.087715
 H    1.594908    1.728043   -1.927124
 H   -0.450672    3.632941    1.270860
 H    0.543594    1.127373    2.039614
 H    1.091844   -2.831226   -0.810610
 H    5.521881   -3.226825    0.009019
 H    3.912281   -3.320591    0.729535
 H    3.121486   -4.094345   -1.311313
 H    4.630971   -3.706416   -2.129640
 H    5.223695   -0.923446   -0.603940
 H    4.289099   -0.958294    0.910749
 H    2.292346   -2.154104   -2.474527
 H    3.938743   -1.566211   -2.722522
 H   -2.918979    1.779796   -3.282879
 H   -3.719764    2.844928   -2.117965
 H   -3.766285    0.949159   -0.470922
 H    3.449625    1.028434   -0.022465
