45 
5ovr_ligand_xtb.xyz
 C   -3.714410    1.350071    0.613619
 C   -2.440912   -0.682041    0.617886
 C   -2.576234    2.061296    0.284624
 C   -1.355209    1.412645    0.119224
 C   -0.142686    2.168833   -0.226661
 C    2.165212    3.591341   -0.879341
 C    2.220509    2.578054    0.066576
 C   -0.182774    3.190607   -1.173385
 C    0.963096    3.891849   -1.497312
 C   -3.653329   -0.025592    0.789371
 C   -1.304381    0.030116    0.289586
 C    1.070448    1.872004    0.385029
 C   -4.895855   -0.811086    1.083226
 P   -5.492245   -1.383194   -0.571827
 O   -4.627952   -2.237015   -1.389515
 O   -6.897398   -2.051169   -0.170798
 O   -5.974716   -0.053936   -1.333808
 O   -5.874124   -0.041962    1.713560
 C    3.520943    2.214570    0.759778
 O    3.375837    2.158777    2.162306
 C    3.957517    0.861841    0.242700
 C    4.678772   -1.630287   -0.757862
 C    4.732476   -0.509566   -1.574023
 C    4.373851    0.727719   -1.076745
 C    3.901240   -0.257221    1.057436
 C    4.262768   -1.499996    0.562614
Cl    4.189986   -2.879125    1.592431
Cl    5.128837   -3.170464   -1.386488
 H   -4.657286    1.855070    0.756077
 H   -2.393356   -1.753860    0.737842
 H   -2.630431    3.134359    0.173538
 H    3.058014    4.145819   -1.131095
 H   -1.113248    3.420894   -1.670653
 H    0.921822    4.678982   -2.235701
 H   -0.369313   -0.490117    0.144491
 H    1.123405    1.096900    1.135017
 H   -4.645482   -1.709074    1.670386
 H   -7.117642   -2.739074   -0.800378
 H   -5.307993    0.229693   -1.958220
 H   -6.733380   -0.452024    1.560382
 H    4.291287    2.958367    0.492770
 H    2.979184    2.983126    2.462772
 H    5.056735   -0.617854   -2.596813
 H    4.414702    1.594136   -1.719117
 H    3.587244   -0.152928    2.083079
