45 
5ovx_ligand_xtb.xyz
 C   -1.386408    3.880728   -0.925770
 C   -0.189417    3.215189   -1.110410
 C    2.565121    2.021466   -0.747838
 C    2.551136   -0.744441   -0.821237
 C   -3.136173   -0.794140    1.764756
 C   -3.576998   -1.990260    1.229328
 C   -0.831335    1.612337    0.549975
 C   -4.387648    0.412746    0.113868
 C    1.362802    1.339994   -0.578586
 C    0.102218    2.068423   -0.374188
 C    3.746463   -0.055882   -0.989006
 C   -2.032666    2.278708    0.738025
 C   -3.539745    0.413080    1.213314
 C   -3.023639    1.729952    1.748469
 C    5.028195   -0.818500   -1.142272
 C    1.374141   -0.053715   -0.613048
 C   -2.310281    3.417320   -0.003998
 C    3.746956    1.331146   -0.940198
 C   -4.422146   -1.992005    0.131293
 C   -4.828135   -0.782669   -0.426464
 O    4.581470   -2.150488    1.358302
 O   -2.429952    1.522702    3.012785
 O    6.039894   -0.051172   -1.719167
 O    5.881315    0.061661    1.321624
 O    6.940620   -1.958225    0.326416
 P    5.493142   -1.309043    0.579922
Cl   -4.965860   -3.485450   -0.535535
Cl   -5.879217   -0.762563   -1.792005
 H   -1.604931    4.765617   -1.505100
 H    0.516665    3.570575   -1.845963
 H    2.578058    3.100702   -0.705732
 H    2.548993   -1.823530   -0.851944
 H   -2.485045   -0.787690    2.623448
 H   -3.267002   -2.929866    1.658455
 H   -0.620199    0.737263    1.146416
 H   -4.706555    1.342674   -0.330934
 H   -3.869618    2.431460    1.842813
 H    4.849477   -1.745667   -1.710290
 H    0.447413   -0.596446   -0.500450
 H   -3.244943    3.941069    0.137344
 H    4.678716    1.859374   -1.069972
 H   -2.003793    2.341044    3.288174
 H    6.891425   -0.432097   -1.474837
 H    5.157309    0.359007    1.871355
 H    7.121800   -2.614314    1.000803
