33 
5ow8_ligand_xtb.xyz
 C    4.824231   -1.417534   -0.753801
 C    4.600126   -0.063916   -0.669043
 C    3.321123    0.378528   -0.324001
 C    1.420445    1.473694    0.172738
 C    2.737686    1.661198   -0.164845
 C    0.416704    2.471070    0.593405
 C   -0.097864   -0.450690    0.513578
 C   -1.208670   -0.059246   -0.226127
 C   -2.441686   -0.619872    0.056778
 C   -2.579760   -1.584734    1.047309
 C   -3.653188   -0.218279   -0.734976
 C    2.299288   -0.566003   -0.059063
 C    2.529280   -1.933356   -0.170052
 C    3.799602   -2.339916   -0.513781
 N    1.153809    0.121061    0.247267
 O   -0.503179    2.216535    1.346247
 N    0.618059    3.712737    0.089272
 C   -1.465631   -1.980158    1.764931
 C   -0.229395   -1.415891    1.505632
 F   -4.007081   -1.172181   -1.624739
 F   -4.733688   -0.021040    0.036138
 F   -3.479565    0.902523   -1.447290
 H    5.805067   -1.783907   -1.017820
 H    5.387425    0.647427   -0.867801
 H    3.251792    2.598359   -0.253482
 H   -1.110412    0.684267   -1.002010
 H   -3.550198   -2.008760    1.253223
 H    1.739522   -2.649002    0.001273
 H    4.012674   -3.394642   -0.602891
 H   -0.007178    4.449398    0.369422
 H    1.371199    3.920823   -0.539693
 H   -1.563984   -2.723298    2.540919
 H    0.635726   -1.702617    2.084040
