27 
5owl_ligand_dft.xyz
 C   -0.087473    1.736712   -0.318050
 C    1.024768    0.885024   -0.462337
 C    0.865381   -0.500540   -0.365042
 C   -0.411337   -1.017671   -0.150603
 C   -1.530568   -0.158253   -0.028532
 N    0.290063    3.058061   -0.416059
 C    3.516799    1.495228   -0.929041
 C    4.438989    0.694931    1.390273
 C   -1.369933    1.221649   -0.105135
 C    4.427588    1.741610    0.282042
 C    1.569505    3.014688   -0.615080
 N    3.079722    0.479112    2.023135
 N    2.105567    1.742206   -0.640608
Br    2.366691   -1.660980   -0.465854
Br   -0.641022   -2.873928   -0.008960
Br   -3.238375   -0.877307    0.249903
Br   -2.784410    2.421712    0.067807
 H    3.628526    0.488390   -1.327047
 H    3.811123    2.185255   -1.723938
 H    5.112416    1.004515    2.190920
 H    4.750020   -0.286712    1.027384
 H    4.204637    2.727022    0.710072
 H    5.461277    1.796958   -0.076251
 H    2.203469    3.880553   -0.767155
 H    3.161407    0.090633    2.967321
 H    2.533636    1.344615    2.081425
 H    2.542799   -0.199560    1.459635
