27 
5owl_ligand_xtb.xyz
 C   -0.370432    1.818011   -0.160156
 C    0.837925    1.073362   -0.256943
 C    0.784995   -0.312433   -0.205222
 C   -0.446104   -0.942580   -0.076120
 C   -1.636397   -0.199412    0.007391
 N   -0.088769    3.146924   -0.222997
 C    3.246810    1.836288   -0.543787
 C    5.390957    1.179141    0.668467
 C   -1.608094    1.189218   -0.029456
 C    3.941995    1.626882    0.814084
 C    1.191808    3.232253   -0.355328
 N    5.471156   -0.290951    0.427420
 N    1.828314    2.019016   -0.388895
Br    2.336929   -1.410133   -0.281759
Br   -0.526039   -2.831726   -0.003397
Br   -3.285818   -1.104766    0.179479
Br   -3.176402    2.214801    0.091298
 H    3.419831    0.991007   -1.214505
 H    3.642108    2.735970   -1.021727
 H    5.950023    1.405441    1.576935
 H    5.863962    1.695844   -0.167762
 H    3.388394    0.893698    1.402469
 H    3.916985    2.567659    1.364326
 H    1.725681    4.157659   -0.441889
 H    6.427995   -0.586860    0.203178
 H    5.149706   -0.807978    1.256181
 H    4.836146   -0.567873   -0.340188
