32 
5ox6_ligand_xtb.xyz
 O   -1.122709   -2.348607    1.124764
 C   -0.612665   -1.166794    0.761556
 C   -1.465433   -0.092691    0.446098
 C   -2.947052   -0.213454    0.490525
 N   -3.576487    0.907429    0.097448
 C   -5.008736    1.087509    0.192411
 C   -5.801777    0.259490   -0.845829
 O   -5.624278   -1.043201   -0.768580
 O   -6.540101    0.779476   -1.634277
 O   -3.547286   -1.225745    0.836627
 N   -0.987189    1.093525    0.080255
 C    0.308139    1.291389    0.010361
 C    1.251154    0.300222    0.305379
 C    0.762063   -0.943012    0.682600
 C    2.690927    0.568005    0.213983
 C    3.548524   -0.387464   -0.325098
 C    4.903784   -0.122949   -0.413411
Cl    5.955635   -1.314585   -1.094290
 C    5.428383    1.079543    0.033857
 C    4.573419    2.025916    0.572437
 C    3.215947    1.779148    0.660190
 H   -0.422619   -2.989716    1.308202
 H   -2.985700    1.673260   -0.195697
 H   -5.247150    2.140767    0.050816
 H   -5.347416    0.765681    1.186323
 H   -4.944408   -1.293446   -0.079281
 H    0.616579    2.275496   -0.313056
 H    1.445522   -1.742847    0.938429
 H    3.159809   -1.322138   -0.698277
 H    6.487173    1.269149   -0.040151
 H    4.973115    2.963830    0.926608
 H    2.559962    2.516720    1.096480
