54 
5oxg_ligand_xtb.xyz
 C   -7.910732    1.527308   -0.979753
 C   -6.551165    1.622989   -0.286038
 N   -6.030354    0.288504   -0.131783
 C   -6.875739   -0.514255    0.719105
 C   -8.240377   -0.669774    0.050818
 N   -8.818795    0.686259   -0.153641
 C   -4.630829    0.094694   -0.047201
 C   -3.749399    1.126052    0.254672
 C   -2.386924    0.896541    0.275375
 C   -1.866431   -0.367255    0.009971
 C   -2.757571   -1.398757   -0.285252
 C   -4.116832   -1.171152   -0.319671
 C   -0.421006   -0.599944    0.029854
 C    0.491623    0.389822   -0.438379
 N    1.781890    0.246531   -0.427637
 C    2.290781   -0.888562    0.040739
 C    3.591899   -1.374313    0.184292
 C    3.413884   -2.664080    0.706448
 N    2.137771   -2.975042    0.895415
 N    1.450875   -1.923645    0.492092
 C    0.116381   -1.774812    0.495203
 C    4.858982   -0.754695   -0.185692
 C    5.796506   -1.517188   -0.847485
 C    7.017936   -0.974172   -1.262820
 C    7.309368    0.339398   -1.023393
 C    6.389361    1.151668   -0.329425
 C    5.151483    0.603125    0.113162
 C    4.312075    1.449354    0.866254
 C    4.688139    2.745478    1.092880
 C    5.912230    3.194402    0.567961
 N    6.730981    2.435270   -0.100490
 H   -7.791140    1.048380   -1.952626
 H   -8.349055    2.516883   -1.113560
 H   -6.666262    2.154806    0.675440
 H   -5.878052    2.199252   -0.921050
 H   -7.007108   -0.056484    1.716652
 H   -6.426016   -1.495948    0.861428
 H   -8.913792   -1.267020    0.666520
 H   -8.122006   -1.142543   -0.925181
 H   -9.744303    0.621540   -0.590908
 H   -8.927804    1.133868    0.766639
 H   -4.112446    2.115296    0.487527
 H   -1.722427    1.707903    0.528651
 H   -2.380073   -2.381973   -0.519056
 H   -4.784003   -1.979494   -0.579407
 H    0.124470    1.319225   -0.849825
 H    4.174631   -3.371897    0.970737
 H   -0.462377   -2.594658    0.894520
 H    5.574800   -2.550743   -1.071759
 H    7.722223   -1.604595   -1.784909
 H    8.235779    0.787572   -1.344924
 H    3.384651    1.070778    1.267333
 H    4.069231    3.415911    1.669638
 H    6.232649    4.217559    0.720684
