54 
5oxg_ligand_dft.xyz
 C   -8.044022    1.452665   -1.013522
 C   -6.600727    1.543063   -0.540378
 N   -6.104689    0.214088   -0.256559
 C   -6.842362   -0.408748    0.828886
 C   -8.298904   -0.583857    0.428705
 N   -8.866204    0.763482    0.049383
 C   -4.682162    0.055370   -0.184297
 C   -3.822299    1.112550    0.107893
 C   -2.447768    0.902022    0.153828
 C   -1.902301   -0.363324   -0.075897
 C   -2.778199   -1.416799   -0.369156
 C   -4.147679   -1.211569   -0.426659
 C   -0.441410   -0.580440   -0.020144
 C    0.478363    0.377996   -0.560663
 N    1.776790    0.250379   -0.543228
 C    2.281956   -0.867280    0.025309
 C    3.576964   -1.339363    0.218064
 C    3.384547   -2.578085    0.857788
 N    2.105413   -2.890192    1.072455
 N    1.438170   -1.844646    0.559979
 C    0.092329   -1.705169    0.547018
 C    4.857613   -0.750503   -0.213018
 C    5.724109   -1.518072   -0.960240
 C    6.965472   -1.010241   -1.401834
 C    7.332952    0.273790   -1.101840
 C    6.478267    1.097237   -0.325985
 C    5.234426    0.584424    0.136979
 C    4.451765    1.437129    0.955227
 C    4.899927    2.698948    1.236173
 C    6.139523    3.117655    0.698380
 N    6.908196    2.360965   -0.045969
 H   -8.122680    0.840992   -1.914034
 H   -8.488003    2.434887   -1.186898
 H   -6.544435    2.226636    0.329241
 H   -6.011641    1.989891   -1.344962
 H   -6.776358    0.173829    1.768085
 H   -6.429775   -1.397544    1.037994
 H   -8.910918   -0.982638    1.240039
 H   -8.388168   -1.217726   -0.455509
 H   -9.835660    0.662730   -0.264470
 H   -8.893434    1.358538    0.884873
 H   -4.206468    2.106532    0.315644
 H   -1.795350    1.733420    0.402919
 H   -2.378439   -2.400565   -0.596380
 H   -4.808353   -2.030227   -0.698098
 H    0.086382    1.272525   -1.041855
 H    4.155044   -3.263777    1.185284
 H   -0.469365   -2.506165    1.013474
 H    5.435218   -2.529136   -1.233151
 H    7.619649   -1.644472   -1.991879
 H    8.274089    0.698209   -1.434612
 H    3.509792    1.083344    1.359046
 H    4.326952    3.373986    1.863331
 H    6.505912    4.121815    0.905796
