33 
5oxl_ligand_xtb.xyz
 N    3.738724   -0.996097   -0.650664
 C    2.637492   -1.190206    0.322749
 C    1.440665   -0.516225   -0.403584
 O    1.683303   -0.075818   -1.526382
 C    2.935872   -0.493754    1.642341
 N    0.265530   -0.478369    0.195612
 C   -0.726688    0.489643   -0.241540
 C   -0.134066    1.881588    0.032621
 O    0.971830    2.029275    0.484169
 C   -2.059383    0.281680    0.470553
 C   -2.732180   -1.057921    0.137673
 C   -3.117719   -1.142161   -1.336707
 C   -3.972953   -1.219950    1.013436
 O   -0.960955    2.851384   -0.289176
 H    4.173978   -1.851447   -0.994687
 H    3.137208   -0.490458   -1.452832
 H    4.453939   -0.353198   -0.303632
 H    2.441658   -2.255186    0.468855
 H    2.944283    0.586288    1.508753
 H    2.179845   -0.733010    2.384005
 H    3.893811   -0.821007    2.039774
 H    0.175289   -0.807082    1.146669
 H   -0.849501    0.400738   -1.325799
 H   -1.897561    0.349983    1.549803
 H   -2.724671    1.096001    0.181775
 H   -2.035992   -1.873799    0.365169
 H   -3.739762   -0.295536   -1.615713
 H   -3.683018   -2.051707   -1.519665
 H   -2.243697   -1.160928   -1.983327
 H   -3.716631   -1.172562    2.069198
 H   -4.448693   -2.177509    0.821817
 H   -4.691840   -0.433535    0.798779
 H   -0.578087    3.730326   -0.127719
