34 
5oxn_ligand_xtb.xyz
 N    0.992287   -0.567275   -1.830528
 C    0.345464   -0.999674   -0.571176
 C   -1.153932   -0.727164   -0.843935
 O   -1.417823   -0.177774   -1.907102
 C    0.819136   -0.114221    0.601565
 C    2.311869    0.076466    0.539038
 C    2.842061    1.153900   -0.169941
 C    3.174506   -0.844789    1.119056
 C    4.215179    1.307899   -0.285613
 C    4.544669   -0.687767    1.002716
 C    5.066291    0.383848    0.295578
 N   -2.038504   -1.100872    0.069159
 C   -3.367059   -0.510261    0.060210
 C   -3.193668    0.995112    0.329844
 O   -4.342787    1.633008    0.347097
 C   -4.269311   -1.172060    1.088598
 O   -2.113818    1.498339    0.495004
 H    0.121301   -0.142636   -2.337685
 H    1.725088    0.139993   -1.630041
 H    1.383618   -1.325917   -2.388960
 H    0.539055   -2.054897   -0.372134
 H    0.309927    0.850514    0.548581
 H    0.541471   -0.588821    1.541852
 H    2.185374    1.915896   -0.571922
 H    2.773471   -1.677704    1.677465
 H    4.615975    2.153800   -0.821891
 H    5.206557   -1.400593    1.468600
 H    6.134255    0.505349    0.209376
 H   -1.720907   -1.470592    0.953624
 H   -3.785259   -0.613288   -0.947226
 H   -4.232786    2.585637    0.506549
 H   -4.379747   -2.229710    0.865369
 H   -3.859703   -1.059480    2.090315
 H   -5.249977   -0.706843    1.062077
