28 
5prc_ligand_xtb.xyz
 N   -1.354735    0.739807    0.194515
 C   -0.141627    1.214946    0.066880
Cl   -0.006244    2.918547   -0.021729
 N    0.982667    0.546937   -0.002084
 C    0.832637   -0.789037    0.063417
 N   -0.345234   -1.404115    0.189902
 C   -1.408138   -0.604692    0.257111
 N    1.910905   -1.575052   -0.004541
 C    3.291722   -1.132408   -0.113001
 C    3.508409   -0.350049   -1.406865
 C    3.689513   -0.301632    1.105872
 N   -2.601700   -1.183009    0.421720
 C   -3.857631   -0.474873    0.408710
 C   -4.657216   -0.767236   -0.857472
 H    1.711679   -2.559636    0.063192
 H    3.896932   -2.045802   -0.139496
 H    3.214399   -0.948209   -2.266203
 H    2.910768    0.555849   -1.386244
 H    4.556710   -0.083155   -1.507062
 H    3.094063    0.605670    1.134717
 H    3.520972   -0.864582    2.021186
 H    4.741054   -0.035270    1.046609
 H   -2.609431   -2.190939    0.404730
 H   -3.618227    0.587150    0.471268
 H   -4.436043   -0.766740    1.291778
 H   -4.091131   -0.467517   -1.735594
 H   -4.882378   -1.829211   -0.933323
 H   -5.592547   -0.214997   -0.840663
