45 
5pzm_ligand_dft.xyz
 C    4.544112   -0.545204    0.159042
 C    1.877911   -1.712625   -0.686895
 C   -4.587458    0.044247    1.032205
 C   -4.578154   -1.557649   -0.774907
 C   -6.621958   -0.984118    0.319237
 C   -5.961711   -0.104040    1.164497
 C   -5.950997   -1.719201   -0.647560
 C    5.850283   -0.053371    0.172314
 C    3.506524    0.178533   -0.435270
 C    3.809808    1.412384   -1.019847
 C   -1.570440    0.539220    0.016081
 C   -2.430298   -0.518340   -0.089595
 C   -0.246354   -0.008269   -0.182308
 O   -1.761049   -1.677571   -0.367465
 C   -0.436442   -1.367418   -0.427249
 C   -1.815058    1.993333    0.219460
 C    1.048337    0.515067   -0.180522
 C    6.985394   -0.792448    0.817237
 C    2.115662   -0.343534   -0.434503
 C   -3.882931   -0.668161    0.053719
 C    0.600414   -2.251274   -0.685149
 O   -0.954334    2.708321    0.716043
 O    7.986028   -0.252734    1.211243
 N   -3.016355    2.469866   -0.207468
 O    6.844221   -2.131408    0.938921
 F   -7.946158   -1.132780    0.444272
 C    6.127710    1.190607   -0.395363
 C    5.106662    1.915310   -0.995458
 C   -3.379873    3.864741   -0.091799
 H    4.295627   -1.471953    0.672616
 H    2.720428   -2.360250   -0.910968
 H   -4.053472    0.711384    1.700414
 H   -4.035794   -2.125236   -1.523591
 H   -6.519636    0.436677    1.920539
 H   -6.503693   -2.400920   -1.284082
 H    3.019843    1.978233   -1.504993
 H    1.203957    1.562511    0.051822
 H    0.417322   -3.301326   -0.882594
 H   -3.640671    1.845898   -0.694387
 H    6.071251   -2.429914    0.442559
 H    7.143174    1.569569   -0.355501
 H    5.320309    2.877080   -1.451166
 H   -2.658804    4.342388    0.572094
 H   -3.351008    4.369878   -1.063876
 H   -4.384716    3.962344    0.330799
