58 
5pzn_ligand_dft.xyz
 C    2.111595    0.619599   -0.541614
 C    2.296535    1.921312   -1.022913
 C    4.654846    1.806713   -0.534039
 C    8.112488   -0.706635    0.331398
 C    3.553977    2.512406   -1.008107
 C    8.040376   -2.180016   -0.093539
 C    9.225275    0.007282   -0.441947
 C    8.373675   -0.590871    1.838186
 C   -5.181410   -0.817575    0.050889
 C   -3.320480    1.979689    0.330097
 C    4.492779    0.500862   -0.067400
 C   -5.034427    3.734534    0.147274
 C    0.763415   -0.005609   -0.539355
 C    0.622671   -1.372916   -0.865283
 C   -0.609969   -2.006910   -0.868082
 C   -1.704243   -1.221390   -0.538554
 C   -1.610972    0.131794   -0.218127
 C   -0.359356    0.751607   -0.212410
 O   -3.000738   -1.635372   -0.470153
 C   -3.747888   -0.548876   -0.111756
 C   -2.967668    0.563752    0.038567
 C    5.627453   -0.330454    0.471605
 N    6.860366   -0.011631   -0.011266
 C    3.222967   -0.073031   -0.057894
 O    5.425545   -1.226693    1.281315
 O   -2.512928    2.732118    0.859369
 N   -4.562284    2.383505   -0.056744
 C   -5.825703   -1.713008   -0.811772
 C   -7.179168   -1.986799   -0.668407
 C   -7.882343   -1.357658    0.348737
 C   -7.272166   -0.475259    1.228316
 C   -5.916329   -0.214757    1.079392
 F   -9.188937   -1.614434    0.489662
 H    1.447324    2.471032   -1.418416
 H    5.626094    2.292362   -0.494941
 H    3.676652    3.529545   -1.367761
 H    7.229407   -2.686467    0.433873
 H    7.863207   -2.260050   -1.171843
 H    8.983632   -2.686521    0.138806
 H    9.281253    1.065494   -0.162154
 H   10.191714   -0.454603   -0.219872
 H    9.063427   -0.061867   -1.524928
 H    8.427954    0.461555    2.135903
 H    7.574519   -1.074082    2.403127
 H    9.325416   -1.071943    2.088676
 H   -4.345547    4.227290    0.833975
 H   -5.058257    4.299322   -0.791696
 H   -6.038620    3.725336    0.582719
 H    1.506990   -1.941522   -1.136020
 H   -0.717233   -3.056005   -1.119228
 H   -0.277897    1.792464    0.079398
 H    6.890171    0.592124   -0.818620
 H    3.117405   -1.068278    0.362675
 H   -5.141684    1.741083   -0.574071
 H   -5.258196   -2.196908   -1.599570
 H   -7.692256   -2.674923   -1.330705
 H   -7.852516   -0.019841    2.022777
 H   -5.419727    0.455056    1.773190
