76 
5q0o_ligand_xtb.xyz
 C    2.265268    0.680170    4.074055
 C    1.559845    0.559526    2.881107
 C    2.189591    0.843254    1.646735
 C    0.102741    0.218948    1.356985
 C    1.384018    0.912953   -0.719973
 N    2.770641   -1.057730   -0.820305
 C    1.405113    2.433463   -0.982262
 C    1.200178    4.203273   -2.756517
 C    0.331816    3.152597   -0.161720
 C    3.536336   -3.238673   -1.622130
 C    4.775703   -4.086869   -1.892485
 C    5.996506   -2.894158   -0.056929
 C   -3.611761   -0.724233   -0.475496
 C   -2.437152   -1.299300   -0.955300
 C    3.580012    1.085007    3.998912
 C    4.192742    1.366746    2.775040
 C    3.512484    1.253317    1.579876
 N    0.263721    0.184872    2.652099
 N    1.238749    0.601701    0.681085
 C    2.652186    0.213619   -1.251999
 O    3.446113    0.744046   -1.996828
 C    3.942955   -1.873997   -1.067651
 C    5.598326   -4.255650   -0.618613
 C    4.758853   -2.045173    0.215616
 C    1.178545    2.705217   -2.470886
 C    0.134131    4.919448   -1.934729
 C    0.350528    4.650951   -0.449630
 C   -1.157175   -0.120772    0.703572
 C   -1.222694   -1.014560   -0.364832
 C   -4.890783   -1.037511   -1.165491
 O   -4.927199   -1.249105   -2.361253
 C   -6.114225   -1.078211   -0.326363
 C   -7.331705   -0.723352   -0.904355
 C   -8.495706   -0.767270   -0.161690
 C   -8.458213   -1.187719    1.158418
 C   -7.255069   -1.567111    1.732238
 C   -6.084613   -1.510213    0.998245
 C   -3.548219    0.156614    0.602993
 C   -2.332739    0.454121    1.184204
 H    1.787266    0.462232    5.015343
 H    0.521752    0.492027   -1.250618
 H    2.117005   -1.412224   -0.137948
 H    2.388545    2.822480   -0.701094
 H    2.184230    4.604656   -2.505916
 H    1.030232    4.374569   -3.821104
 H    0.495969    2.995049    0.906856
 H   -0.650951    2.743700   -0.415390
 H    2.898093   -3.746537   -0.893754
 H    2.963118   -3.105121   -2.541538
 H    5.385339   -3.599211   -2.655870
 H    4.476120   -5.063993   -2.275929
 H    6.564707   -3.021847    0.866190
 H    6.635411   -2.377546   -0.776120
 H   -2.497200   -1.981295   -1.790457
 H    4.157170    1.189870    4.905651
 H    5.225702    1.681480    2.765944
 H    3.992068    1.471846    0.638147
 H    4.534903   -1.331443   -1.811676
 H    5.009296   -4.796843    0.125489
 H    6.492089   -4.845110   -0.830387
 H    5.048216   -1.064931    0.599166
 H    4.138695   -2.530936    0.974405
 H    0.208999    2.294946   -2.767755
 H    1.954921    2.207722   -3.051422
 H    0.169985    5.993448   -2.127862
 H   -0.854624    4.558861   -2.228383
 H   -0.425574    5.145471    0.138334
 H    1.315055    5.062917   -0.143929
 H   -0.329973   -1.508816   -0.722621
 H   -7.341705   -0.407523   -1.936994
 H   -9.434250   -0.479604   -0.611652
 H   -9.368150   -1.227174    1.738829
 H   -7.229654   -1.909433    2.756255
 H   -5.151428   -1.823510    1.443310
 H   -4.449431    0.626357    0.968479
 H   -2.271986    1.137315    2.016852
