70 
5q0y_ligand_dft.xyz
 C    2.190807   -1.893690   -3.153875
 C    1.248780   -1.367707   -2.261716
 C    1.616368   -1.074212   -0.939717
 C    0.350439   -1.721570    1.867648
 C   -0.270282   -1.532207    3.261311
 C   -0.382820   -4.144440    1.912466
 C   -0.383555   -2.839016    1.111863
 C    3.866438    2.265220    0.453520
 C    4.512573    4.669709    0.018761
 C    2.087590    4.066138    0.409355
 C   -1.870113   -0.098745   -1.096267
 F    4.413821   -2.612631   -3.465158
 C    3.461185   -2.110988   -2.669853
 N   -0.078305   -1.047475   -2.473121
 C   -0.499885   -0.577648   -1.326138
 C   -2.163315    1.107544   -0.449231
 C   -3.479692    1.497504   -0.285151
 C   -4.466939    0.650980   -0.793289
 N   -4.218746   -0.488878   -1.427801
 C   -2.945479   -0.847461   -1.574888
 N   -5.824734    0.987057   -0.649713
 C   -6.900098    0.277227   -1.096873
 C   -8.013252    0.985916   -0.727958
 C   -7.504980    2.122983   -0.055010
 N   -6.185127    2.122008   -0.008232
 N    0.479895   -0.552682   -0.347187
 C    0.314693   -0.390028    1.093928
 C   -0.266109   -2.836053    4.062257
 C   -0.983602   -3.956439    3.307066
 C    1.351356    0.640941    1.598137
 O    1.972811    0.490103    2.637413
 N    1.477166    1.734756    0.801878
 C    2.518766    2.731187    1.019297
 C    4.945120    3.336460    0.635202
 C    3.170723    5.133207    0.593108
 C    2.901584   -1.297206   -0.440888
 C    3.809609   -1.818784   -1.337436
 F    5.066209   -2.061718   -0.950578
 H    1.942757   -2.123163   -4.183244
 H    1.398680   -2.018983    2.001241
 H    0.269868   -0.751410    3.801803
 H   -1.310497   -1.192149    3.137515
 H   -0.930567   -4.916165    1.359932
 H    0.652050   -4.501524    2.009859
 H    0.078768   -3.012504    0.133782
 H   -1.421915   -2.525655    0.923786
 H    4.159166    1.333153    0.947630
 H    3.740787    2.041678   -0.615932
 H    5.279635    5.433699    0.187874
 H    4.417383    4.550757   -1.069771
 H    1.901987    3.924319   -0.666625
 H    1.142354    4.388303    0.860584
 H   -1.365954    1.750879   -0.085669
 H   -3.757622    2.420698    0.205749
 H   -2.759754   -1.780639   -2.099377
 H   -6.762416   -0.652262   -1.625554
 H   -9.044811    0.728677   -0.913955
 H   -8.051896    2.939687    0.396195
 H   -0.675135    0.051038    1.244657
 H   -0.734672   -2.671585    5.039094
 H    0.773452   -3.133782    4.256897
 H   -2.048927   -3.703569    3.209511
 H   -0.931138   -4.894538    3.871296
 H    1.113291    1.660495   -0.138594
 H    2.614306    2.843906    2.104317
 H    5.886394    2.995352    0.190942
 H    5.134992    3.478187    1.708149
 H    3.289511    5.343355    1.664968
 H    2.853541    6.069213    0.120675
 H    3.197145   -1.083584    0.580045
