72 
5q10_ligand_dft.xyz
 C   -2.061624    2.834361   -2.444202
 C   -2.575385    3.507505   -1.341091
 C   -2.172158    3.187688   -0.048911
 C   -1.260963    2.156695    0.141013
 C    1.267349   -1.532629    0.406179
 C    4.285134    0.778602    0.791611
 C    6.457090    1.957616    0.274914
 C    3.649786    2.124427    1.167306
 C    0.369057   -3.039195   -1.419464
 C    0.717708   -3.999283   -2.559687
 C    2.943551   -4.480827   -1.478430
 C   -0.999478   -0.711939    0.960626
 C   -3.390001   -1.032997    1.125467
 C    0.293460    0.378879   -0.831072
 O    1.232024    0.377682   -1.626714
 C   -0.747950    1.455391   -0.951532
 C   -1.134940    1.819613   -2.241443
Cl   -3.745276    4.781809   -1.583115
 N    0.175476   -0.560631    0.156624
 C    1.627888   -2.426159   -0.793093
 C    1.684176   -5.092233   -2.096741
 C    2.594038   -3.528289   -0.332179
 C    2.444669   -0.809747    1.090770
 O    2.565703   -0.847429    2.309626
 N    3.289795   -0.144924    0.269014
 C    5.407361    0.963398   -0.231002
 C    5.822552    3.301730    0.644524
 C    4.701273    3.116806    1.671022
 C   -2.231477   -0.914500    0.352428
 C   -3.295777   -0.989539    2.520186
 C   -2.046338   -0.825265    3.109744
 C   -0.891925   -0.678645    2.350114
 N   -4.603645   -1.197323    0.435382
 C   -5.870281   -1.375265    0.946502
 O   -6.125649   -1.411293    2.134654
 C   -6.933180   -1.546829   -0.124506
 H   -2.375346    3.107933   -3.445582
 H   -2.570802    3.734176    0.798315
 H   -0.956532    1.901156    1.150208
 H    0.878066   -2.190427    1.185452
 H    4.692940    0.319234    1.698522
 H    7.234403    2.096995   -0.484901
 H    6.952669    1.536600    1.160749
 H    3.148839    2.532738    0.277607
 H    2.880329    1.953151    1.927803
 H   -0.285818   -2.244235   -1.793983
 H   -0.195722   -3.577559   -0.643349
 H    1.182290   -3.429991   -3.376957
 H   -0.197345   -4.445377   -2.966296
 H    3.614090   -5.268577   -1.116904
 H    3.494039   -3.927348   -2.252056
 H   -0.697590    1.302962   -3.089372
 H    2.127458   -1.831167   -1.563013
 H    1.950228   -5.745454   -2.935781
 H    1.184313   -5.723878   -1.348790
 H    3.507014   -3.079590    0.075901
 H    2.127536   -4.099308    0.484316
 H    2.954246    0.016554   -0.675561
 H    5.865149   -0.007057   -0.453188
 H    4.975124    1.340020   -1.170330
 H    5.409319    3.767098   -0.261494
 H    6.585409    3.986617    1.032248
 H    4.229524    4.078885    1.900179
 H    5.129382    2.742087    2.611277
 H   -2.287983   -0.958478   -0.731979
 H   -4.189714   -1.090217    3.118525
 H   -1.976436   -0.799719    4.192813
 H    0.082110   -0.547555    2.812689
 H   -4.529544   -1.178363   -0.571222
 H   -7.912367   -1.500062    0.351337
 H   -6.823107   -2.521023   -0.613516
 H   -6.866169   -0.769334   -0.892702
