57 
5q11_ligand_dft.xyz
 N    1.369349   -0.023557    0.214643
 C    2.326950   -1.089709   -0.133096
 C    0.388789    2.201252   -0.187088
 C    1.499391   -0.197764    2.694423
 C   -0.314026   -1.429075    1.424512
 C    3.799283   -0.699127    0.063403
 C    0.667694   -0.301248    3.976563
 C    2.994292   -2.850327   -1.805622
 C   -1.975371    1.064705   -0.384954
 C    1.975448    4.239912    0.189572
 C   -0.243323   -1.531540    3.951463
 C    4.465693   -2.473737   -1.608646
 C   -2.940116    0.824249    0.596733
 C   -3.728329   -1.097928   -0.583853
 C    0.690068    3.507289    0.058844
 O   -0.440795    4.208190    0.217401
 N   -1.530611    3.385042    0.046552
 C   -1.041111    2.193393   -0.199202
 C   -3.816959   -0.248001    0.511833
Cl   -4.799579   -2.468497   -0.702494
 C   -2.803940   -0.874165   -1.596663
 C   -1.939327    0.210259   -1.492131
Cl   -0.831281    0.495148   -2.802860
 C    1.408561    1.146125   -0.487555
 O    2.244231    1.380988   -1.355219
 C    0.596066   -0.193664    1.451794
 C   -1.139916   -1.521767    2.711058
 C    2.070025   -1.659874   -1.532783
 C    4.705753   -1.903796   -0.207520
 H    2.124552   -1.900167    0.575576
 H    2.194170   -1.047148    2.646245
 H    2.107703    0.714271    2.698357
 H    0.289450   -2.341163    1.329177
 H   -0.966343   -1.386701    0.547410
 H    3.946976   -0.330119    1.085382
 H    4.046396    0.116734   -0.620063
 H    0.050662    0.602561    4.081154
 H    1.330429   -0.331594    4.848467
 H    2.739981   -3.675086   -1.123521
 H    2.828462   -3.222621   -2.822816
 H    2.152817    4.538351    1.228045
 H    2.788987    3.598782   -0.152582
 H    1.956975    5.144552   -0.424608
 H   -0.853086   -1.570297    4.861108
 H    0.375426   -2.439994    3.945087
 H    4.747500   -1.719438   -2.355925
 H    5.106409   -3.346778   -1.778634
 H   -2.986083    1.494386    1.448744
 H   -4.551685   -0.427931    1.287976
 H   -2.758982   -1.526752   -2.460247
 H   -0.052005    0.680939    1.541352
 H   -1.770257   -2.417401    2.681457
 H   -1.820878   -0.661410    2.765357
 H    2.239486   -0.874354   -2.275357
 H    1.018641   -1.961623   -1.608532
 H    4.511350   -2.687984    0.539352
 H    5.755342   -1.611672   -0.089274
