46 
5q12_ligand_dft.xyz
 N    0.374096    1.185224    0.913159
 C    3.977312   -1.655928   -0.638033
 C    2.653875   -1.285796   -0.302746
 C    3.445555    0.871072    0.516682
 C    4.711108    0.494483    0.172301
 C   -0.711220    1.780266   -1.198386
 C   -3.091151    2.267123   -1.221038
 C   -1.879720    2.114622   -1.881817
 C   -0.872607   -1.529489    0.034455
 C   -1.578784   -1.746085    1.212899
 C   -1.617303   -1.583451   -1.142058
 C   -2.979944   -1.832459   -1.161120
 C   -2.081297    1.558367    2.374053
 C   -2.000419    1.749795    0.879278
 C   -3.138886    2.098116    0.156499
 C    0.582941    1.647065   -1.960517
 C   -0.787967    1.570775    0.189672
 C    1.052622    0.034007    0.484539
 C    0.558370   -1.172447    0.037499
 N    1.534767   -1.978030   -0.452964
 C    4.989381   -0.773005   -0.409287
 C    3.140363    2.184190    1.174105
 N    2.421895   -0.028187    0.267007
 F   -0.907732   -1.670325    2.378049
 C   -2.939706   -2.000503    1.250641
 C   -3.635836   -2.041840    0.047325
 F   -0.990707   -1.351096   -2.300751
 H    0.228681    1.202699    1.914002
 H    4.132433   -2.636058   -1.072579
 H    5.520987    1.189826    0.363204
 H   -3.988743    2.527114   -1.773509
 H   -1.827729    2.265325   -2.957135
 H   -3.504895   -1.846418   -2.108848
 H   -1.499416    2.315129    2.917433
 H   -3.115981    1.644582    2.715997
 H   -1.715962    0.572651    2.682775
 H   -4.079330    2.224566    0.686806
 H    0.821478    0.599413   -2.172620
 H    0.513226    2.172609   -2.917357
 H    1.424902    2.070399   -1.403689
 H    6.013006   -1.029747   -0.660618
 H    2.682906    2.037159    2.157924
 H    4.071707    2.739385    1.308519
 H    2.446276    2.789973    0.587833
 H   -3.429373   -2.157633    2.204561
 H   -4.703654   -2.234489    0.051521
