46 
5q12_ligand_xtb.xyz
 N    0.433318    1.494564    0.132162
 C    4.049805   -1.690337    0.161490
 C    2.727176   -1.228184    0.214043
 C    3.480380    1.060438   -0.000901
 C    4.760888    0.594351   -0.058943
 C   -1.125619    0.877464   -1.623340
 C   -3.454041    1.470168   -1.405367
 C   -2.429862    0.849102   -2.093657
 C   -0.793164   -1.390193    0.515114
 C   -1.588179   -0.829256    1.510523
 C   -1.420663   -2.312556   -0.318267
 C   -2.759686   -2.632794   -0.194076
 C   -1.589397    3.030895    1.489811
 C   -1.879792    2.220516    0.257265
 C   -3.166022    2.181716   -0.255236
 C   -0.031119    0.280878   -2.458246
 C   -0.864439    1.509817   -0.399553
 C    1.107844    0.280429    0.249332
 C    0.611451   -1.011205    0.364935
 N    1.614272   -1.917480    0.332900
 C    5.057370   -0.783175    0.025746
 C    3.154400    2.517888   -0.082703
 N    2.469372    0.151338    0.141906
 F   -1.012996    0.030494    2.380420
 C   -2.927695   -1.122504    1.661445
 C   -3.514155   -2.028384    0.794982
 F   -0.716980   -2.890241   -1.306320
 H    0.543405    2.109494    0.927341
 H    4.217963   -2.751486    0.227323
 H    5.567292    1.300801   -0.175511
 H   -4.465455    1.429341   -1.780024
 H   -2.637406    0.341628   -3.024579
 H   -3.194811   -3.345128   -0.876614
 H   -0.877202    3.828231    1.269353
 H   -2.503716    3.492417    1.853852
 H   -1.183051    2.413490    2.290136
 H   -3.953960    2.712795    0.259247
 H    0.181390   -0.749645   -2.177856
 H   -0.327729    0.283937   -3.505058
 H    0.889325    0.852872   -2.356836
 H    6.086323   -1.102680   -0.020624
 H    2.825210    2.891515    0.886916
 H    4.039731    3.074665   -0.377564
 H    2.362094    2.700476   -0.805273
 H   -3.490260   -0.647415    2.448584
 H   -4.560959   -2.266983    0.895134
