71 
5q15_ligand_xtb.xyz
 C   -0.190856    1.780782   -0.397583
 C   -0.176304    2.188285   -1.754468
 C   -0.551424    3.478245   -2.115167
 C    0.402027   -0.375730    0.753899
 C    3.646646    1.255665    2.149401
 C   -5.952292   -2.157503    0.010305
 C   -3.624932   -2.885948    0.595901
 C   -3.231423   -1.431153    0.845081
 C    4.070030    0.107685    3.058946
 C    1.850503   -0.989967    2.688729
 C    2.652643    0.768402    1.099297
 C   -0.943583    4.319914   -1.100244
 C   -0.978120    3.901997    0.238135
 C   -0.606850    2.630356    0.617655
 N    0.222299    1.138726   -2.534410
 C    0.448204    0.153225   -1.710225
 N    0.237602    0.476594   -0.400277
 C   -0.998697   -0.555196    1.383827
 O   -1.306959   -0.101957    2.464602
 N   -1.820534   -1.240926    0.575786
 C   -5.110968   -3.089689    0.876800
 C   -5.558710   -0.704034    0.255219
 C   -4.074000   -0.496269   -0.027086
 C    1.423077    0.158100    1.771837
 C    2.847436   -0.503249    3.735197
 C    0.873376   -1.203079   -2.188401
 C    2.307805   -1.477975   -1.775431
 C    2.641216   -2.511892   -0.912737
 C    3.959442   -2.704410   -0.532939
 C    4.950030   -1.864638   -1.009551
 C    4.621290   -0.834146   -1.876493
 C    3.307104   -0.642163   -2.260393
 O   -0.053807   -2.169640   -1.707549
 C   -0.203636   -3.284580   -2.555913
 F   -1.391097    4.770419    1.179829
 F   -1.317314    5.580428   -1.395675
 H   -0.542948    3.808315   -3.139714
 H    0.737068   -1.348226    0.387592
 H    4.520595    1.683098    1.653842
 H    3.183386    2.041866    2.749509
 H   -7.011103   -2.298297    0.234719
 H   -5.798312   -2.402883   -1.043142
 H   -3.027079   -3.541711    1.232007
 H   -3.412134   -3.136857   -0.446898
 H   -3.379344   -1.176533    1.899802
 H    4.576465   -0.656023    2.463446
 H    4.772895    0.468283    3.812339
 H    2.314861   -1.776683    2.087416
 H    0.969838   -1.406750    3.180202
 H    2.362937    1.606129    0.461002
 H    3.133248    0.016623    0.469751
 H   -0.670554    2.330736    1.650142
 H   -1.469570   -1.564907   -0.316924
 H   -5.383671   -4.128786    0.682062
 H   -5.309661   -2.882757    1.930293
 H   -6.149997   -0.044174   -0.381979
 H   -5.766945   -0.441883    1.294443
 H   -3.864795   -0.704082   -1.079944
 H   -3.791494    0.538956    0.174804
 H    0.935601    0.919425    2.387177
 H    3.148626   -1.337107    4.372319
 H    2.369016    0.246260    4.368521
 H    0.821259   -1.156846   -3.286464
 H    1.872104   -3.169602   -0.532967
 H    4.208682   -3.511084    0.140780
 H    5.975925   -2.011256   -0.706816
 H    5.391247   -0.176719   -2.251082
 H    3.040990    0.162817   -2.929403
 H   -0.886835   -3.964798   -2.049638
 H    0.751377   -3.789708   -2.729854
 H   -0.629617   -2.986637   -3.520434
