55 
5q17_ligand_xtb.xyz
 C    0.605262    0.923147   -0.198879
 C   -0.719995    1.621017   -0.325580
 C   -1.623601    0.769796   -0.971156
 C    5.213109   -1.132516    0.348758
 C    1.714414    1.668325   -0.963865
 C   -1.617708   -1.552228   -1.922114
 C    3.052663    0.956516   -0.800156
 C   -4.847074   -3.151853    0.414537
 C    5.061806   -2.298202    1.034607
 C   -4.992047   -2.976967   -0.959590
 C   -2.420302    3.262033   -0.189279
 O   -7.142459   -3.607353    0.769144
 C   -6.014960   -3.697736    1.168418
 O   -5.743473   -4.318139    2.329971
 C   -3.953594   -2.467887   -1.713023
 C   -2.753606   -2.113693   -1.108259
 N   -0.991642   -0.426395   -1.273195
 C    0.307749   -0.433458   -0.845389
 O    1.053859   -1.378102   -0.979435
 N    3.367373    0.849558    0.606065
 C    2.402834    0.078453    1.355529
 C    1.039444    0.757377    1.268202
 S    4.958246    0.515597    0.952026
 O    5.090925    0.493158    2.376067
 O    5.762694    1.410788    0.180309
 C    5.267267   -3.429631    0.216471
 C    5.556918   -3.091891   -1.068613
 S    5.592103   -1.389012   -1.305916
 C   -1.109294    2.879161    0.072033
Br   -2.993318    4.997578    0.343462
 C   -3.319770    2.421248   -0.823659
 C   -2.927498    1.152873   -1.225039
 C   -2.613857   -2.274810    0.265303
 C   -3.647590   -2.790502    1.023367
 H    1.791914    2.677882   -0.558234
 H    1.459075    1.735168   -2.022981
 H   -1.970907   -1.255688   -2.915462
 H   -0.830185   -2.306547   -2.039699
 H    3.856556    1.529996   -1.262925
 H    2.998381   -0.036117   -1.269795
 H    4.831809   -2.326214    2.083501
 H   -5.931857   -3.246873   -1.415867
 H   -4.796253   -4.371006    2.513104
 H   -4.074029   -2.342616   -2.779322
 H    2.755649    0.049609    2.386934
 H    2.333141   -0.947856    0.967225
 H    0.298641    0.171216    1.815672
 H    1.102974    1.747431    1.721623
 H    5.202279   -4.442431    0.570196
 H    5.754790   -3.745832   -1.894458
 H   -0.429530    3.552920    0.569054
 H   -4.329172    2.755053   -1.005706
 H   -3.627474    0.494678   -1.713188
 H   -1.685779   -1.996152    0.742795
 H   -3.515396   -2.873616    2.094348
