72 
5q18_ligand_xtb.xyz
 N    0.577559    0.332147   -0.371833
 N    0.784268    0.573062   -2.586641
 C    0.014344    1.546567   -0.688696
 C    0.195408    1.698783   -2.085977
 C   -0.723073   -0.363521    1.550643
 C    0.691332   -0.270173    0.939569
 C   -0.710253    2.475350    0.046615
 C   -0.264020    2.829650   -2.753382
 C   -0.938649    3.765076   -2.004527
 C    2.782574   -1.955780   -1.274837
 C   -2.987020   -1.140990    0.989244
 C   -5.740361   -1.765307    0.141479
 C   -3.436767   -2.579744    0.741838
 C   -4.929684   -2.725543    1.011064
 C    3.022588   -2.904260   -0.291394
 C    0.144847   -3.670944   -1.837455
 O    0.374717   -2.454782   -1.164698
 C    1.383001   -1.644702   -1.763012
 C    0.973770   -0.213575   -1.563835
 F   -1.415257    4.874178   -2.602135
 C   -1.173436    3.579847   -0.634798
 F   -1.892609    4.500936    0.033984
 C    1.730929    0.387778    1.875236
 C    1.438605    1.831078    2.284587
 C    2.486075    2.319495    3.282241
 C    3.880830    2.250019    2.671852
 C    4.186189    0.821106    2.238456
 C    3.130392    0.312214    1.261262
 O   -1.028825    0.080123    2.635432
 N   -1.570445   -1.001898    0.725853
 O   -7.102030   -1.948403    0.466899
 C   -5.282009   -0.324584    0.386552
 C   -3.790191   -0.178523    0.108575
 C    3.851118   -1.277135   -1.848597
 C    5.143425   -1.540787   -1.435378
 C    5.380805   -2.491920   -0.455534
 C    4.320068   -3.173849    0.113039
 H    1.024491   -1.300355    0.773746
 H   -0.939664    2.354278    1.091034
 H   -0.119351    2.961690   -3.811765
 H   -3.131353   -0.876632    2.042024
 H   -5.578531   -2.016241   -0.921945
 H   -2.875582   -3.256633    1.388044
 H   -3.222796   -2.844766   -0.297363
 H   -5.147430   -2.503724    2.056590
 H   -5.257681   -3.746081    0.811587
 H    2.196250   -3.429290    0.165865
 H   -0.604252   -4.204417   -1.254305
 H   -0.236188   -3.491542   -2.849146
 H    1.054940   -4.274767   -1.902699
 H    1.364522   -1.787267   -2.854923
 H    1.713191   -0.221776    2.786153
 H    0.455105    1.884630    2.749271
 H    1.461687    2.479666    1.407037
 H    2.256524    3.345640    3.574890
 H    2.449247    1.699170    4.180226
 H    3.931390    2.911808    1.804089
 H    4.625389    2.588170    3.395170
 H    4.202518    0.172586    3.117423
 H    5.170193    0.770481    1.767525
 H    3.365130   -0.717071    0.990322
 H    3.160265    0.914564    0.349242
 H   -1.213718   -1.396324   -0.134438
 H   -7.626370   -1.283311    0.008030
 H   -5.491773   -0.064365    1.426065
 H   -5.846246    0.358678   -0.253938
 H   -3.585948   -0.399226   -0.942825
 H   -3.472230    0.846952    0.304606
 H    3.656168   -0.540958   -2.614477
 H    5.968971   -1.006586   -1.880916
 H    6.390780   -2.700406   -0.136527
 H    4.497563   -3.915036    0.877987
