67 
5q1b_ligand_dft.xyz
 N    1.392273   -1.160820   -0.485263
 N    1.057995   -1.208124   -2.712854
 C    2.629837   -0.945187   -1.069755
 C    2.398907   -1.007312   -2.454216
 C    1.210281    0.474320    1.293281
 C    1.064287   -1.019198    0.930712
 C    3.894001   -0.685414   -0.532957
 C    3.455832   -0.854174   -3.359221
 N    0.179341    1.227584    0.799810
 C    4.916351   -0.531837   -1.444024
 C    4.705227   -0.623108   -2.832322
 C   -0.420872    5.375875    0.679291
 C   -7.287505   -0.781332   -0.880135
 C   -7.524613   -1.917412   -0.169366
 C   -1.791423   -0.439511   -1.925029
 C   -3.163960   -0.476877   -1.727633
 C    1.862863   -1.936766    1.861948
 C    0.497237   -1.287501   -1.535343
 F    5.764268   -0.463452   -3.635351
 F    6.157386   -0.277183   -1.015353
 C   -0.960692   -1.395155   -1.328384
 C   -3.739147   -1.476926   -0.934469
 C   -5.198401   -1.474931   -0.740198
 N   -5.978699   -0.537182   -1.198027
 S   -6.041246   -2.739153    0.124131
 C   -2.910879   -2.443304   -0.356514
 C   -1.537069   -2.403832   -0.551932
 O    2.163738    0.907354    1.912595
 C    0.024971    2.623495    0.793141
 C   -1.129492    3.127831    0.179316
 C   -1.348799    4.491746    0.123964
 C   -0.701032    6.828775    0.590527
 O   -1.683486    7.313789    0.074773
 O    0.261507    7.589347    1.150582
 C    0.726064    4.868355    1.290994
 C    0.957439    3.500817    1.355557
 C    1.970526   -3.365187    1.316049
 C    2.751887   -4.263539    2.278529
 C    2.127610   -4.266778    3.676068
 C    1.995171   -2.843452    4.223290
 C    1.220350   -1.942607    3.257652
 H    0.009018   -1.289499    1.023721
 H    4.087219   -0.558785    0.524142
 H    3.303670   -0.907256   -4.430531
 H   -0.541455    0.721886    0.300009
 H   -8.047429   -0.078748   -1.198907
 H   -8.467164   -2.306416    0.187837
 H   -1.346430    0.327340   -2.551678
 H   -3.811331    0.263474   -2.184766
 H    2.872976   -1.527132    1.972928
 H   -3.332886   -3.238012    0.252544
 H   -0.907347   -3.171259   -0.111509
 H   -1.854239    2.442326   -0.254479
 H   -2.238923    4.892363   -0.349080
 H   -0.025277    8.508453    1.033460
 H    1.450114    5.550912    1.721839
 H    1.846184    3.109390    1.829765
 H    2.449862   -3.364247    0.331842
 H    0.959437   -3.778684    1.179130
 H    3.786514   -3.899223    2.344287
 H    2.801975   -5.282008    1.877898
 H    1.131341   -4.728887    3.624577
 H    2.726226   -4.882009    4.357081
 H    2.995765   -2.418623    4.381472
 H    1.499147   -2.853768    5.200095
 H    1.172182   -0.923081    3.654619
 H    0.185698   -2.309723    3.171764
