67 
5q1b_ligand_xtb.xyz
 N    1.132460   -1.294729   -0.472316
 N    0.778533   -1.242307   -2.682725
 C    2.371918   -1.242656   -1.064732
 C    2.124676   -1.240109   -2.460678
 C    1.246415    0.270220    1.343951
 C    0.841183   -1.165603    0.938401
 C    3.660535   -1.176289   -0.555961
 C    3.173999   -1.215450   -3.373392
 N    0.450220    1.185327    0.726252
 C    4.685957   -1.144870   -1.476680
 C    4.448665   -1.173718   -2.858340
 C    0.557068    5.358602    0.708458
 C   -7.382724    0.174516   -0.868284
 C   -7.728260   -0.883073   -0.083620
 C   -1.927555   -0.167702   -1.934520
 C   -3.283814   -0.025368   -1.740886
 C    1.523654   -2.222856    1.821237
 C    0.219391   -1.272800   -1.505136
 F    5.500917   -1.147794   -3.697167
 F    5.954192   -1.082104   -1.033347
 C   -1.225591   -1.196355   -1.302760
 C   -3.975735   -0.917392   -0.915751
 C   -5.393457   -0.736379   -0.715386
 N   -6.083067    0.238217   -1.207584
 S   -6.356126   -1.854286    0.251187
 C   -3.279479   -1.966055   -0.314340
 C   -1.919981   -2.104242   -0.504781
 O    2.167651    0.518353    2.081574
 C    0.522404    2.580084    0.751435
 C   -0.440371    3.283308    0.024392
 C   -0.423101    4.659522    0.004359
 C    0.543238    6.834539    0.658197
 O   -0.274423    7.492635    0.063031
 O    1.545028    7.402028    1.348959
 C    1.515581    4.654422    1.432824
 C    1.501428    3.274450    1.457933
 C    1.473909   -3.617970    1.198106
 C    2.174232   -4.624178    2.106888
 C    1.521941   -4.648029    3.485436
 C    1.547301   -3.255763    4.108078
 C    0.852830   -2.247841    3.196746
 H   -0.245113   -1.256643    1.056393
 H    3.884605   -1.126205    0.495628
 H    3.001199   -1.222855   -4.435749
 H   -0.293156    0.826293    0.138499
 H   -8.053527    0.935973   -1.222405
 H   -8.689555   -1.143243    0.309804
 H   -1.387805    0.510146   -2.578472
 H   -3.834678    0.769558   -2.217457
 H    2.567539   -1.934566    1.966705
 H   -3.812263   -2.675204    0.302353
 H   -1.398337   -2.938442   -0.059548
 H   -1.199468    2.740343   -0.521862
 H   -1.159827    5.217748   -0.552422
 H    1.485385    8.367108    1.275385
 H    2.273146    5.195593    1.976692
 H    2.242558    2.730521    2.018787
 H    1.954437   -3.617330    0.217655
 H    0.431999   -3.920792    1.063471
 H    3.225742   -4.347255    2.207340
 H    2.132208   -5.617224    1.655582
 H    0.486959   -4.985623    3.391643
 H    2.045814   -5.354332    4.131627
 H    2.582212   -2.945635    4.264401
 H    1.052779   -3.272291    5.080894
 H    0.898324   -1.253473    3.643880
 H   -0.199768   -2.523989    3.085750
