57 
5q1e_ligand_dft.xyz
 C   41.378238   13.283013    1.956971
 C   41.332463   13.492487    0.463310
 C   40.073842   13.976730    0.100612
 C   42.292765   12.382316    7.013453
 C   41.619520   11.804176    2.330264
 C   37.916686   14.595936    1.271791
 C   39.754884   14.276703   -1.212912
 C   37.795732   18.875614    0.746972
 C   41.769781   11.593799    3.833712
 C   42.118456   13.581584    7.647270
 C   40.993009   13.567595    8.515380
Br   43.296868   13.307814   -3.167581
 C   41.985685   13.579692   -1.826816
 C   40.735880   14.069400   -2.184923
 N   39.271018   14.084888    1.242511
 C   37.860275   16.096694    1.082367
 C   38.548557   16.930678    1.966273
 C   38.517316   18.307178    1.801718
 C   37.098377   18.045459   -0.132273
 C   37.134686   16.667470    0.038872
 C   37.741670   20.323582    0.534455
 N   38.484675   21.258961    1.157531
 N   38.150923   22.473479    0.687197
 N   37.233376   22.271387   -0.190875
 N   36.953234   20.956113   -0.313309
 C   39.968332   13.734682    2.378630
 O   39.515102   13.800255    3.507875
 N   42.848469   12.457168    4.328464
 C   42.595058   13.887345    4.125463
 C   42.455683   14.160048    2.630471
 S   43.522503   12.036760    5.793582
 O   44.613614   12.964117    6.028254
 O   43.711868   10.598001    5.767511
 C   40.347496   12.363688    8.510603
 S   41.093787   11.222816    7.464253
 C   42.301848   13.286563   -0.498425
 H   42.539776   11.476746    1.833476
 H   40.801108   11.182038    1.952374
 H   37.326959   14.086279    0.502023
 H   37.511557   14.318161    2.249033
 H   38.784087   14.672842   -1.489736
 H   40.824169   11.819044    4.345993
 H   42.045034   10.557070    4.031426
 H   42.786993   14.421994    7.505737
 H   40.683838   14.410335    9.121459
 H   40.523342   14.294506   -3.223880
 H   39.099122   16.494083    2.795195
 H   39.046800   18.933567    2.514699
 H   36.536623   18.492273   -0.945518
 H   36.589008   16.029476   -0.652087
 H   39.213500   21.174756    1.848889
 H   41.686289   14.198963    4.658952
 H   43.448898   14.442854    4.516082
 H   43.414353   13.950050    2.142991
 H   42.230613   15.220305    2.469947
 H   39.475096   12.078106    9.082956
 H   43.286161   12.909361   -0.239663
