74 
5q1f_ligand_xtb.xyz
 N   -1.353041   -1.113475   -2.543657
 C   -2.529599    0.648743   -1.358435
 C   -0.436640   -2.075355   -2.225060
 C    0.486611   -0.341628    1.549297
 C   -0.115375   -1.981275   -0.848661
 C   -2.181751    1.930650   -0.913830
 C   -0.948030   -0.524586    1.012314
 C   -3.840787    0.469992   -1.797284
 C   -4.297121    2.732371   -1.231395
 C   -1.758467   -1.526943    1.857090
 C    1.047117   -3.886675   -2.403927
 C    4.542319    2.266322    1.091559
 C   -4.743886    1.508299   -1.734381
 C    2.662756    0.614213    0.930184
 C   -4.668313    4.970352   -0.642367
 O   -5.167256    3.745578   -1.144786
 O   -0.902544    2.172665   -0.549112
 C   -0.614233    3.498684   -0.141860
 N   -3.043990    2.930523   -0.843414
 C   -1.577827   -0.453915   -1.438938
 C    0.155941   -3.044451   -3.027937
 F    1.655307   -4.848756   -3.137304
 C    1.366126   -3.810189   -1.048074
 C    0.783726   -2.849667   -0.247106
 N   -0.854293   -0.923674   -0.371150
 C   -2.119245   -0.894943    3.202769
 C   -2.916085   -1.870907    4.062555
 C   -4.184668   -2.309664    3.339085
 C   -3.831500   -2.938777    1.995787
 C   -3.034687   -1.963118    1.134592
 O    0.893297   -0.858481    2.567129
 N    1.236525    0.440559    0.752335
 C    3.432627   -0.149139   -0.151401
 C    4.934703    0.011247    0.053589
 C    5.323057    1.497556    0.026684
 C    3.040538    2.094048    0.891351
 C    6.810848    1.595283    0.275429
 O    7.511165    1.443834   -0.856268
 O    7.336292    1.758858    1.342492
 H   -1.451175    0.447113    1.046659
 H   -4.130270   -0.495861   -2.179787
 H   -1.134529   -2.406695    2.041694
 H    4.833194    1.894305    2.074909
 H    4.804450    3.324922    1.046905
 H   -5.765749    1.406541   -2.055770
 H    2.898422    0.195020    1.913848
 H   -3.857561    5.344068   -1.271368
 H   -5.507359    5.662224   -0.655959
 H   -4.295293    4.847257    0.376817
 H   -0.805187    4.199909   -0.956086
 H   -1.228293    3.779796    0.715737
 H    0.438785    3.507831    0.129874
 H   -0.071096   -3.132600   -4.076516
 H    2.072185   -4.516204   -0.640795
 H    1.024399   -2.785933    0.801867
 H   -1.205868   -0.606054    3.722703
 H   -2.716872    0.004870    3.029119
 H   -3.171548   -1.397657    5.012621
 H   -2.299706   -2.745460    4.279516
 H   -4.736419   -3.025394    3.951503
 H   -4.829083   -1.442539    3.175201
 H   -3.235767   -3.838899    2.163115
 H   -4.741197   -3.233034    1.468415
 H   -2.790163   -2.443475    0.184596
 H   -3.646954   -1.082579    0.917630
 H    0.817883    0.837918   -0.076498
 H    3.163647   -1.206216   -0.115027
 H    3.148746    0.234983   -1.134638
 H    5.475736   -0.523836   -0.728484
 H    5.218365   -0.412747    1.018915
 H    5.117842    1.898813   -0.969914
 H    2.751718    2.509850   -0.078154
 H    2.499974    2.631977    1.672188
 H    8.464009    1.470246   -0.673295
