56 
5q1g_ligand_dft.xyz
 C   -4.265422    0.281550   -0.953849
 C   -1.667844    0.850443    0.287646
 C   -1.162908   -1.505683   -0.338229
 C   -5.603695   -1.379496    1.099077
 C   -5.739178   -0.117679   -1.084545
 C   -6.379350   -0.336078    0.289634
 C    1.267158   -1.825040   -0.569501
 C    0.902499    2.959601   -1.380984
 C    2.174280    2.102935   -1.318914
 C    3.638749   -1.627286   -1.258475
 C    3.117497   -1.404762    1.080140
 C    4.978373   -1.368176   -0.996337
 C    5.362816   -1.128617    0.314283
 F    6.652850   -0.882757    0.579748
 C    2.685174   -1.631889   -0.233217
 C    0.242467   -1.302006    0.112117
 O   -1.512121   -2.535255   -0.891674
 N   -2.057810   -0.476883   -0.056857
 C   -3.502774   -0.772113   -0.145889
 C   -4.127719   -0.993180    1.236029
 O   -2.276254    1.513912    1.109941
 N   -0.611356    1.326578   -0.417863
 C   -0.056965    2.664253   -0.221664
 C    0.666161    2.808520    1.126386
 C    1.950583    1.979793    1.196013
 C    2.891448    2.269473    0.023526
 C    4.452447   -1.150237    1.362011
 H   -4.197760    1.253042   -0.451280
 H   -3.806336    0.385959   -1.944370
 H   -5.680379   -2.354835    0.597578
 H   -6.049747   -1.500163    2.092709
 H   -5.815572   -1.044274   -1.670826
 H   -6.282994    0.653948   -1.641099
 H   -6.385235    0.615391    0.839205
 H   -7.424881   -0.644586    0.174704
 H    1.043918   -2.388978   -1.474066
 H    0.383572    2.822976   -2.338061
 H    1.181188    4.018927   -1.322393
 H    2.840963    2.374865   -2.144774
 H    1.930194    1.040272   -1.460532
 H    3.323435   -1.814262   -2.281401
 H    2.402398   -1.441961    1.896288
 H    5.720894   -1.353400   -1.786244
 H    0.404874   -0.687863    0.991722
 H   -3.543651   -1.714113   -0.699310
 H   -3.572330   -1.780273    1.759399
 H   -4.027382   -0.073183    1.820924
 H   -0.247202    0.768698   -1.173431
 H   -0.894486    3.370546   -0.244971
 H   -0.022778    2.537935    1.931909
 H    0.908156    3.872122    1.256623
 H    1.696500    0.914665    1.183762
 H    2.461767    2.165096    2.147474
 H    3.268108    3.299099    0.104650
 H    3.761487    1.604177    0.067572
 H    4.796006   -0.978081    2.375856
