28 
5qa4_ligand_dft.xyz
 C   -3.339324   -0.933789    0.440144
 O   -4.565085   -0.741682   -0.096831
 C   -2.262493    0.015347    0.004042
 C    2.217536    1.814027    1.340092
 C   -0.174479    1.688944   -0.753818
 C   -1.486806    2.139500   -0.831274
 C   -2.534524    1.305865   -0.454629
 C   -0.940590   -0.419702    0.101804
 C    0.117719    0.404723   -0.279883
 C    1.518931   -0.095711   -0.207706
 C    1.841381   -1.270097   -0.895018
 C    3.130126   -1.788413   -0.869994
 C    4.115759   -1.130810   -0.142605
 C    3.798841    0.029209    0.555256
 C    2.509958    0.566917    0.539291
 O   -3.154785   -1.830402    1.220720
 H   -4.515185   -0.100571   -0.817774
 H    2.254325    2.715283    0.716948
 H    1.225615    1.777867    1.799662
 H    2.956954    1.939854    2.136233
 H    0.637226    2.336436   -1.071667
 H   -1.694978    3.144060   -1.186047
 H   -3.552056    1.688774   -0.483535
 H   -0.747452   -1.414257    0.491814
 H    1.065787   -1.773364   -1.466078
 H    3.360777   -2.698861   -1.414539
 H    5.127698   -1.523416   -0.109453
 H    4.568050    0.528808    1.139108
