25 
5qaf_ligand_xtb.xyz
 C    3.610790   -0.996484   -0.114613
 O    3.320777   -2.123753   -0.791658
 C    2.516928    0.014073   -0.009726
 C   -3.910025   -0.433433    0.002132
 C   -3.025352   -1.196773    0.742291
 C   -1.689949   -0.841457    0.755057
 C    1.170755   -0.332892   -0.048372
 C    0.184362    0.642343    0.066108
 C    0.567768    1.974736    0.206727
 C    1.906250    2.322099    0.258664
 C    2.881297    1.347594    0.160753
 C   -1.238905    0.268157    0.042929
 C   -2.156472    1.019633   -0.688650
 C   -3.493736    0.672670   -0.716750
 F   -5.213526   -0.776510   -0.019010
 O    4.699341   -0.830435    0.360896
 H    2.432220   -2.108450   -1.171274
 H   -3.385288   -2.049002    1.296606
 H   -0.993585   -1.418014    1.345284
 H    0.864404   -1.366709   -0.147921
 H   -0.191303    2.736373    0.305594
 H    2.188515    3.356565    0.382749
 H    3.930445    1.594229    0.208836
 H   -1.815949    1.871925   -1.257150
 H   -4.210944    1.243594   -1.284840
