31 
5qag_ligand_xtb.xyz
 C   -1.183101    1.385971    0.638724
 O   -0.366075    1.290664    1.521334
 C   -0.830627    3.697490    0.538650
 C    2.354317   -0.490421   -0.217118
 C    3.275510    0.492854   -0.856225
 C    2.799904   -1.529255    0.598081
 C    1.884025   -2.398991    1.161527
 C    0.528652   -2.228537    0.940941
 C   -1.965015    0.254355    0.072007
 C   -3.315075    0.428946   -0.212601
 C   -4.080196   -0.635627   -0.651966
 C   -3.499520   -1.883766   -0.809188
 C   -2.155077   -2.062493   -0.538841
 C   -1.369916   -1.001141   -0.101590
 C    0.070074   -1.192377    0.132947
 C    0.994766   -0.343949   -0.461864
 O   -1.520957    2.549093    0.068114
 O    3.002201    1.092049   -1.859877
 O    4.450169    0.700361   -0.232021
 H   -0.944259    3.792004    1.620602
 H    0.232797    3.621037    0.301981
 H   -1.273039    4.548959    0.028300
 H    3.855968   -1.691836    0.771326
 H    2.229065   -3.210537    1.784819
 H   -0.182859   -2.891465    1.410570
 H   -3.759754    1.402358   -0.073868
 H   -5.128364   -0.493944   -0.867618
 H   -4.094716   -2.718395   -1.148687
 H   -1.696662   -3.029842   -0.684144
 H    0.672375    0.448051   -1.121848
 H    4.514412    0.207912    0.597249
