33 
5qam_ligand_dft.xyz
 N    3.685955   -0.809332    0.194409
 C    4.032474    1.330288   -1.485531
 O   -6.095291    1.604976   -0.628859
 C    2.272127   -0.799372    0.179224
 C   -4.829582   -0.914446    0.084749
 C   -4.144942    0.299072   -0.009981
 C   -4.844090    1.622541   -0.119838
 C   -2.751448    0.311893    0.019745
 C    1.593021   -1.779319   -0.548423
 C    0.205797   -1.809490   -0.554811
 C    1.542780    0.154786    0.893769
 C    0.155214    0.128972    0.854527
 C   -0.539262   -0.850930    0.138138
 C   -2.022399   -0.874033    0.117908
 C   -2.724883   -2.082625    0.202226
 C   -4.114284   -2.102192    0.191908
 O   -4.341537    2.662634    0.216597
 O    4.340562    1.472885    1.107775
 O    5.967870    0.048502   -0.216595
 S    4.631152    0.563417    0.016112
 H    4.134078   -1.607634   -0.239486
 H    2.965863    1.536213   -1.377120
 H    4.584229    2.263612   -1.611468
 H    4.218686    0.660045   -2.325822
 H   -6.293159    0.734944   -0.999120
 H   -5.915930   -0.945804    0.122690
 H   -2.244473    1.268804   -0.054241
 H    2.152307   -2.518093   -1.116868
 H   -0.303846   -2.570435   -1.139080
 H    2.063027    0.898081    1.486687
 H   -0.398564    0.867364    1.427187
 H   -2.175619   -3.013653    0.309167
 H   -4.642681   -3.045630    0.285830
