36 
5qao_ligand_xtb.xyz
 C    2.998443    0.328673    0.106004
 O   -4.383402    0.322968   -1.555877
 C    3.179179   -1.995521   -0.459238
 C    4.547842   -1.856447   -0.607307
 C    0.929119   -1.044180    0.022776
 C    5.147818   -0.629223   -0.399005
 C    0.068470   -0.074547   -0.488036
 C    5.081894    1.766367    0.189350
 C    4.375760    0.469424   -0.026877
 C    0.380362   -2.151773    0.663606
 C   -0.989404   -2.281812    0.794069
 C   -1.844152   -1.317126    0.277044
 C   -3.338555   -1.449366    0.411467
 C   -6.217889    1.053723    0.190895
 C    2.387224   -0.902795   -0.111596
 C   -1.300540   -0.210906   -0.365938
 N   -3.986117   -0.243456    0.891116
 O    4.468845    2.660115    0.987941
 O    6.148376    2.016860   -0.300833
 O   -3.819333    2.136594    0.024943
 S   -4.475731    0.888968   -0.243200
 H    2.370897    1.173245    0.361628
 H    2.710717   -2.951194   -0.641530
 H    5.147251   -2.707943   -0.892143
 H    6.212174   -0.496080   -0.514863
 H    0.472800    0.779749   -1.010527
 H    1.032694   -2.903644    1.083082
 H   -1.399038   -3.144054    1.300907
 H   -3.591539   -2.271999    1.088499
 H   -3.780148   -1.648002   -0.569111
 H   -6.666195    1.770882   -0.484457
 H   -6.674191    0.080509    0.076982
 H   -6.274938    1.401018    1.212936
 H   -1.957050    0.541846   -0.775254
 H   -3.477682    0.213783    1.632761
 H    3.639463    2.323343    1.351825
