30 
5qau_ligand_xtb.xyz
 N   72.656017  235.404621   37.383562
 C   79.518298  230.748580   35.022164
 O   80.720014  230.179465   34.846848
 C   79.567223  232.226864   35.071736
 C   76.060135  234.557537   36.164585
 C   79.559219  234.991309   35.187317
 C   80.757138  234.305833   35.086981
 C   80.771312  232.924342   35.027284
 C   78.364003  232.917517   35.172854
 C   78.345616  234.305370   35.230474
 C   77.072596  235.035153   35.339645
 C   76.861664  236.211517   34.622828
 C   75.664774  236.898237   34.732007
 C   74.662043  236.426135   35.555910
 C   74.856397  235.246960   36.275913
 C   73.786796  234.775710   37.127586
 N   71.962210  234.630304   38.200179
 N   72.581567  233.561144   38.469738
 N   73.747781  233.600432   37.816101
 O   78.510122  230.094822   35.130971
 H   80.625446  229.214512   34.824102
 H   76.233614  233.656847   36.735527
 H   79.562248  236.069354   35.253177
 H   81.686767  234.854134   35.058280
 H   81.700463  232.382850   34.949648
 H   77.446729  232.347746   35.181574
 H   77.633535  236.576710   33.961982
 H   75.513988  237.806537   34.168600
 H   73.723030  236.945936   35.658524
 H   74.412253  232.845522   37.870901
