31 
5qaw_ligand_dft.xyz
 C   -4.167429   -1.278631    0.336809
 O   -3.645646   -2.524456    0.293130
 C   -3.237962   -0.149104    0.002343
 C    4.592280   -1.784940   -0.483786
 C    5.316167   -0.709869    0.084687
 C    4.664418    0.428574    0.482546
 C    3.258632    0.547694    0.332693
 C    2.548867    1.710694    0.730067
 C    1.192262    1.796470    0.572866
 C   -1.853628   -0.247142    0.148588
 C   -3.805592    1.049963   -0.430125
 C   -2.985599    2.126655   -0.740405
 C   -1.605069    2.018609   -0.605640
 C   -1.018472    0.832164   -0.153463
 C    0.452598    0.721079    0.008130
 C    1.125767   -0.413925   -0.383714
 C    2.530273   -0.533570   -0.234564
 C    3.233480   -1.698320   -0.640249
 O   -5.323597   -1.117139    0.627997
 H   -2.764733   -2.502542   -0.102611
 H    5.120203   -2.680907   -0.795963
 H    6.392342   -0.791472    0.203239
 H    5.216979    1.256743    0.918743
 H    3.100122    2.535861    1.173411
 H    0.662949    2.684842    0.905281
 H   -1.400191   -1.144752    0.564232
 H   -4.884781    1.117916   -0.514528
 H   -3.422037    3.056089   -1.092561
 H   -0.970400    2.860618   -0.866963
 H    0.582101   -1.235492   -0.844881
 H    2.675419   -2.522563   -1.077114
