26 
5qay_ligand_dft.xyz
 N   -2.793221    0.279261    0.366867
 C   -2.850853    1.555497    1.049942
 O    4.354615   -0.257670    0.668278
 C   -1.679549   -0.324250   -0.184495
 C   -3.444808   -1.721513   -0.376125
 C   -3.859662   -0.572262    0.251538
 C   -0.349659    0.295117   -0.248991
 C   -0.159340    1.633275   -0.622164
 C    1.117153    2.175970   -0.708949
 C    2.231784    1.394215   -0.427513
 C    2.061736    0.057112   -0.058959
 C    3.216817   -0.851792    0.243475
 C    0.780162   -0.482852    0.021113
 C   -2.064774   -1.567653   -0.646452
 O    3.165874   -2.047921    0.127057
 H   -1.899565    1.757719    1.546108
 H   -3.072407    2.376521    0.359377
 H   -3.635311    1.515878    1.808725
 H    4.188950    0.673621    0.864528
 H   -4.064031   -2.574834   -0.612980
 H   -4.827967   -0.288802    0.639342
 H   -1.017063    2.245973   -0.881580
 H    1.244720    3.207900   -1.020859
 H    3.224038    1.822864   -0.546924
 H    0.668033   -1.522633    0.310017
 H   -1.414812   -2.269481   -1.151029
