80 
5qbv_ligand_xtb.xyz
 C    4.428127    1.639474   -2.369732
 C    4.527659    0.856833   -1.226443
Cl    3.064811    1.400704   -3.408463
 C    5.620770    1.078316   -0.410120
Cl   -7.600980   -1.663266   -1.815077
 C    6.588268    2.047276   -0.745707
 C    6.474390    2.810090   -1.892300
 C    5.372813    2.597754   -2.706973
 N    7.545803    2.035534    0.243031
 C    7.217167    1.102729    1.192072
 N    6.025247    0.512077    0.782126
 C    8.721204    2.861549    0.312450
 O    7.821352    0.822723    2.201155
 C    5.385564   -0.499166    1.579552
 C    3.987100   -0.054380    2.025475
 C    3.291816   -1.165977    2.796807
 N    3.202911   -2.380378    1.959286
 C    4.563936   -2.872136    1.662633
 C    5.304916   -1.835125    0.831026
 C    2.306137   -3.402386    2.539152
 C    0.855073   -3.189580    2.110709
 C    0.608954   -3.519727    0.623132
 N    0.145493   -2.376981   -0.146577
 N   -1.153215   -2.374851   -0.394340
 C   -1.687944   -1.422668   -1.111031
 C   -0.866921   -0.395462   -1.666968
 C    0.463949   -0.403813   -1.409369
 C    1.024808   -1.429222   -0.582789
 C   -3.132691   -1.476775   -1.324605
 C   -3.814770   -2.687531   -1.189054
 C   -5.182117   -2.739524   -1.356574
 C   -5.885870   -1.579139   -1.651448
 C   -5.227342   -0.360260   -1.804791
 C   -3.853334   -0.325644   -1.635371
 O    2.232167   -1.494733   -0.266170
 C   -5.988504    0.918302   -2.049468
 N   -6.619074    1.365853   -0.824569
 C   -5.879318    1.866080    0.195390
 C   -6.659603    2.239033    1.407484
 C   -6.244586    3.348441    2.138254
 C   -6.941816    3.744492    3.264138
 C   -8.050697    3.025600    3.679574
 C   -8.453229    1.904213    2.972656
 C   -7.764254    1.510419    1.839525
 O   -4.675471    2.028359    0.101104
 H    3.774570    0.116038   -1.018788
 H    7.213586    3.550143   -2.149944
 H    5.248749    3.178287   -3.606699
 H    9.255869    2.592629    1.222267
 H    9.362903    2.686689   -0.552475
 H    8.445417    3.916596    0.350418
 H    6.034869   -0.611065    2.459007
 H    3.393161    0.209460    1.150941
 H    4.068329    0.829830    2.657457
 H    2.285132   -0.851069    3.076554
 H    3.847343   -1.407713    3.707553
 H    2.775968   -2.060082    0.999017
 H    4.490651   -3.807285    1.104439
 H    5.088138   -3.064916    2.602762
 H    6.311269   -2.193764    0.616133
 H    4.786429   -1.692449   -0.117105
 H    2.385432   -3.371587    3.628481
 H    2.634670   -4.389716    2.208339
 H    0.548829   -2.160723    2.308556
 H    0.225801   -3.828786    2.728494
 H   -0.173869   -4.271638    0.526402
 H    1.520620   -3.895626    0.150389
 H   -1.298847    0.358736   -2.303064
 H    1.141023    0.331616   -1.817402
 H   -3.260619   -3.581624   -0.953459
 H   -5.711570   -3.673335   -1.251279
 H   -3.364730    0.633651   -1.692047
 H   -6.758330    0.774743   -2.808085
 H   -5.291545    1.695538   -2.375414
 H   -7.600718    1.187697   -0.695315
 H   -5.375208    3.892960    1.801791
 H   -6.621001    4.613144    3.819127
 H   -8.597825    3.333682    4.557724
 H   -9.307981    1.334383    3.305359
 H   -8.074114    0.617015    1.314961
