62 
5qck_ligand_xtb.xyz
 N   -4.675997    0.485205    1.154461
 C    1.137865    2.088423   -0.044201
 C   -0.227331    0.074423   -0.236637
 C    0.809508    3.423177    0.623230
 C    0.256805    2.957793    1.980231
 C   -0.556279    1.716645    1.625567
 C    2.560937    1.612561    0.338439
 C   -0.196794    4.266359   -0.116987
 C   -1.211643    3.719250   -0.891867
 C   -3.996073    0.567838   -0.891870
 C    6.327168   -1.886131   -0.146071
 C   -1.079469    6.462681   -0.581431
 C    6.295109   -0.677090    0.545872
Cl   -4.377691   -6.162456   -0.015248
 C   -5.474539   -2.373214    0.482002
 C   -5.492855   -3.754649    0.455645
 C   -4.354559   -4.440785    0.053254
 C   -3.197403   -3.761371   -0.291043
 C   -3.152771   -2.371852   -0.231133
 C   -4.321922   -1.686404    0.129680
 N   -4.343543   -0.281250    0.107431
 C   -1.908731   -1.665224   -0.520418
 C   -1.441536   -0.640831    0.197988
 N   -4.120357    1.790252   -0.451930
 N   -4.532510    1.690895    0.806180
 O    0.416838   -0.296720   -1.221043
 N    0.120674    1.170212    0.458938
 C   -2.153873    4.532075   -1.497937
 C   -2.091897    5.905090   -1.343936
 C   -0.143123    5.648406    0.028207
 O    3.267317    2.228332    1.104956
 N    2.880512    0.460982   -0.295632
 C    4.048788   -0.288354   -0.209258
 C    5.167562    0.117278    0.518044
 C    5.204953   -2.291312   -0.870552
 C    4.079226   -1.501655   -0.903158
 C    7.515025   -2.757745   -0.141893
 O    7.594166   -3.818779   -0.713395
 O    8.542812   -2.263959    0.572002
 H    1.079804    2.129679   -1.138373
 H    1.728859    3.994753    0.768144
 H   -0.352582    3.718310    2.463127
 H    1.089431    2.695661    2.632888
 H   -1.585176    2.000264    1.375934
 H   -0.570402    0.989929    2.441727
 H   -1.284600    2.652129   -1.037261
 H   -3.687892    0.265734   -1.868957
 H   -1.020301    7.534224   -0.458740
 H    7.162133   -0.363811    1.105548
 H   -6.351299   -1.816620    0.774929
 H   -6.382973   -4.295616    0.732168
 H   -2.314383   -4.308547   -0.581548
 H   -1.323695   -2.010482   -1.363994
 H   -1.944894   -0.294828    1.086604
 H   -2.943598    4.082825   -2.080133
 H   -2.828359    6.538360   -1.815476
 H    0.641920    6.087097    0.627704
 H    2.141278    0.055007   -0.880324
 H    5.143689    1.051510    1.053758
 H    5.243155   -3.230635   -1.400717
 H    3.208094   -1.809099   -1.463501
 H    9.289124   -2.881429    0.530790
