59 
5qcl_ligand_xtb.xyz
 C    2.434231   -0.264540    0.113553
 C   -0.226372    2.714978   -1.040897
 C    0.370604    0.930571    0.594277
 C   -1.720995    2.122111    0.783403
 C   -2.148289    3.566002    0.766774
 C   -1.428013    4.549032    0.096222
 C   -0.171532    4.187324   -0.646447
 C   -3.312644    3.908202    1.444363
 C   -3.757298    5.215647    1.462855
 C   -3.339620   -1.187865    0.022572
 C   -2.772175    1.223529    0.077157
 C   -2.903576   -2.436398    0.474550
Cl    6.283670    1.072273   -3.044727
 C    5.980633   -1.529109   -0.053126
 C    6.484650   -0.795835   -1.107545
 C    5.667776    0.136931   -1.733024
 C    4.358978    0.318849   -1.324582
 C    3.829403   -0.423975   -0.270338
 C    4.669582   -1.344202    0.374106
 N    4.238642   -2.095784    1.472351
 C    3.357516   -1.829464    2.476297
 N    3.352938   -2.843899    3.295706
 N    4.216596   -3.726415    2.805636
 N    4.754060   -3.308532    1.745502
 C    1.757327    0.885392    0.086589
 O   -0.017458    0.121660    1.437119
 N   -0.431157    1.916312    0.145258
 C   -3.036521    6.197673    0.803369
 C   -1.880738    5.861808    0.125115
 O   -3.569247    1.656055   -0.722716
 C   -4.456090   -1.106046   -0.808589
 C   -5.123248   -2.255805   -1.178231
 C   -4.689904   -3.501369   -0.729076
 C   -3.570942   -3.580252    0.101235
 N   -2.625898   -0.071203    0.450508
 C   -5.379978   -4.749387   -1.103257
 O   -6.461776   -4.553360   -1.878276
 O   -5.035714   -5.855633   -0.764542
 H    1.909276   -1.153306    0.443292
 H   -1.080971    2.553896   -1.709160
 H    0.677427    2.396862   -1.559450
 H   -1.627905    1.782558    1.823006
 H   -0.065396    4.811234   -1.535001
 H    0.697257    4.364662   -0.003891
 H   -3.871627    3.138328    1.955787
 H   -4.664239    5.468939    1.990155
 H   -2.038349   -2.492681    1.119450
 H    6.591368   -2.259248    0.454599
 H    7.499289   -0.940797   -1.440488
 H    3.729371    1.020481   -1.847767
 H    2.790452   -0.931137    2.585572
 H    2.231675    1.813378   -0.193710
 H   -3.377848    7.221727    0.813871
 H   -1.318184    6.623200   -0.395966
 H   -4.791128   -0.143694   -1.158033
 H   -5.988072   -2.195009   -1.819638
 H   -3.245865   -4.551270    0.442007
 H   -1.829222   -0.274062    1.059323
 H   -6.868973   -5.408649   -2.084956
