64 
5qcm_ligand_dft.xyz
 C    2.470507   -0.835901    0.265238
 C    1.110377    2.832650   -1.185720
 C    1.085055    1.121810    0.651621
 C   -0.383533    3.052333    0.752558
 C   -0.168353    4.546282    0.636691
 C    0.833642    5.094074   -0.167608
 C    1.738485    4.204772   -0.991469
 C   -0.995969    5.388778    1.381130
 C   -4.187412    1.052538   -0.728032
 C    0.991665    6.481800   -0.202715
 C   -5.231939    0.211446   -1.085726
Cl    6.281366   -1.751846   -3.163288
 C    5.096830   -3.565826    0.205541
 C    5.784694   -3.269327   -0.960873
 C    5.427582   -2.154967   -1.711166
 C    4.371072   -1.355878   -1.290708
 C    3.636571   -1.634723   -0.132979
 C    4.039399   -2.757407    0.609044
 N    3.373425   -3.094972    1.816876
 C    2.927942   -2.338683    2.845327
 N    2.469105   -3.128895    3.782235
 N    2.643968   -4.391528    3.318781
 N    3.182294   -4.392971    2.156193
 C    2.309936    0.479212    0.096231
 O    0.482436    0.603012    1.596768
 F    4.033018   -0.302210   -2.035758
 N    0.696143    2.304658    0.110638
 C   -0.831962    6.765106    1.339319
 C    0.171142    7.315379    0.543553
 C   -1.735040    2.604402    0.136221
 O   -2.319037    3.275776   -0.697054
 C   -3.337841   -0.682146    0.707346
 C   -4.383520   -1.521789    0.351919
 C   -5.346626   -1.075560   -0.556764
 C   -3.223301    0.605569    0.178258
 N   -2.129779    1.387534    0.602502
 N   -6.441932   -1.855912   -0.971175
 C   -6.729036   -3.148670   -0.636406
 O   -7.868367   -3.515310   -1.265380
 O   -6.093772   -3.874133    0.097717
 C   -8.288169   -4.850723   -1.003154
 H    1.668344   -1.369874    0.770310
 H    1.789309    2.134425   -1.675420
 H    0.216506    2.913862   -1.816447
 H   -0.368894    2.769796    1.809111
 H    1.929324    4.664358   -1.967394
 H    2.710517    4.091521   -0.492836
 H   -1.781070    4.955776    1.996195
 H   -4.111866    2.044555   -1.150460
 H    1.769098    6.908350   -0.832254
 H   -5.973603    0.571011   -1.795425
 H    5.370464   -4.423254    0.808146
 H    6.609722   -3.891673   -1.287740
 H    2.947573   -1.260117    2.869144
 H    3.068980    1.091496   -0.375372
 H   -1.482792    7.407185    1.924486
 H    0.307955    8.391648    0.500553
 H   -2.593138   -1.040260    1.414119
 H   -4.456065   -2.515411    0.771974
 H   -1.467409    0.929364    1.225211
 H   -7.094259   -1.423187   -1.607751
 H   -8.452111   -5.002662    0.066352
 H   -7.541316   -5.567460   -1.353716
 H   -9.221487   -4.975655   -1.551885
