72 
5qtt_ligand_dft.xyz
 C    4.493674    2.424708   -1.111582
 C    1.999088   -0.097101    0.547557
 C    2.998817   -0.302340    1.501278
 C    2.648533   -0.131697    2.840856
 C    9.013645   -2.420517   -0.432921
 C   11.070890   -3.275830   -1.140297
 C   -0.084162    2.229301   -0.588808
 C    1.262942    2.534082   -1.278240
 C   -0.277142    0.770778   -0.102447
 C   -8.094244   -1.152038   -0.422940
 C   -9.473007   -1.245194   -0.579724
Cl  -10.123379   -2.390633   -1.710658
 C    5.019646    0.339166    0.187953
 C    4.381870   -0.586067    1.041265
 C    5.063289   -1.749655    1.383146
 C    6.322226   -2.043087    0.873316
 C    6.919353   -1.138105   -0.008135
 C    6.273888    0.057935   -0.337441
 N    4.368245    1.562073   -0.052740
 N    8.172987   -1.352151   -0.598042
 C    0.749347    0.368417    0.936940
 N   -1.600456    0.591741    0.453476
 N    0.423651    0.544525    2.223577
 C    1.349115    0.265607    3.143301
 O    8.837907   -3.386657    0.276155
 O   10.104959   -2.229887   -1.202654
 C    2.181205    3.431307   -0.441303
 C    3.582078    3.656159   -1.033868
 O    5.305729    2.281880   -2.009119
 C    4.342081    4.754052   -0.271535
 C   -2.692859    0.428516   -0.332569
 O   -2.604141    0.421955   -1.567543
 C   -9.754586    0.459085    1.088978
 C  -10.309171   -0.438500    0.181441
 C   -7.532293   -0.230653    0.456580
 C   -8.377608    0.569011    1.224259
 N   -6.135083   -0.126910    0.614435
 C   -5.172788    0.034730   -0.338283
 C   -3.978270    0.252695    0.345299
 C   -4.346724    0.217043    1.712992
 N   -5.628848   -0.004300    1.888880
 N   -5.403130    0.083234   -1.683210
 F   -7.295663   -1.964353   -1.130660
 H    2.218198   -0.265224   -0.501524
 H    3.379911   -0.278442    3.629109
 H   11.461528   -3.382491   -0.125320
 H   10.632116   -4.225380   -1.455889
 H   11.864942   -2.977406   -1.824192
 H   -0.228419    2.892212    0.273896
 H   -0.911211    2.417751   -1.278459
 H    1.784697    1.603857   -1.532603
 H    1.080465    3.032210   -2.236991
 H   -0.184968    0.112541   -0.973294
 H    4.581012   -2.464599    2.043900
 H    6.828724   -2.960873    1.135534
 H    6.730879    0.774050   -1.009740
 H    3.613374    1.764406    0.583023
 H    8.496311   -0.647532   -1.244601
 H   -1.664119    0.612995    1.461875
 H    1.045355    0.397944    4.179187
 H    1.703407    4.413895   -0.336866
 H    2.242436    3.049522    0.589743
 H    3.472203    3.975573   -2.075911
 H    4.476117    4.480629    0.781475
 H    5.329699    4.916887   -0.712181
 H    3.788498    5.697682   -0.308702
 H  -10.405661    1.085347    1.689040
 H  -11.382955   -0.522278    0.058035
 H   -7.929278    1.261529    1.926495
 H   -3.715770    0.336490    2.585112
 H   -6.042763   -0.605351   -2.052598
 H   -4.516498    0.147334   -2.180171
