111 
5sve_ligand_dft.xyz
 N   -1.718805   -2.333507   -1.273383
 C   -0.560585   -2.559386   -2.174921
 C    0.648302   -2.652022   -1.222995
 O    0.477621   -3.142756   -0.113721
 C   -0.509874   -1.462190   -3.230606
 N    1.835929   -2.196747   -1.680223
 C    2.873355   -1.839634   -0.722882
 C    2.800478   -0.319048   -0.538392
 O    2.325993    0.389932   -1.433299
 C    4.287314   -2.292791   -1.144555
 C    4.747709   -3.538599   -0.392836
 C    4.985377   -3.265574    1.089374
 O    4.596170   -2.248230    1.656670
 N    5.642947   -4.237077    1.757885
 N    3.260439    0.112942    0.642845
 C    3.287057    1.505809    1.090858
 C    1.839201    1.930275    1.386025
 O    1.409025    1.969654    2.536070
 C    4.076778    2.442970    0.155863
 C    5.457740    1.897918   -0.112223
 C    5.736691    1.209686   -1.295906
 C    6.470392    2.004000    0.840247
 C    6.981283    0.637189   -1.523008
 C    7.722426    1.437055    0.629657
 C    7.980588    0.746786   -0.555009
 O    9.175484    0.161669   -0.824172
 N    1.076732    2.183020    0.295444
 C   -0.373483    2.294092    0.385991
 C   -0.910104    0.867141    0.539489
 O   -1.316867    0.213470   -0.428384
 C   -0.984165    2.989453   -0.826064
 C   -0.593805    4.465809   -1.030503
 C   -0.800670    5.300529    0.236269
 C    0.819079    4.662465   -1.592731
 N   -0.852389    0.362875    1.788962
 C   -1.173421   -1.030394    2.065465
 C   -2.635089   -1.317787    1.695473
 O   -2.961095   -2.365115    1.139560
 C   -0.903063   -1.343722    3.535770
 N   -3.512669   -0.348104    2.045604
 C   -4.792947   -0.230328    1.374560
 C   -4.611821    0.841411    0.289301
 O   -3.890490    1.812593    0.495669
 C   -5.946281    0.113452    2.344162
 C   -5.646348    1.350076    3.195204
 C   -6.269959   -1.100752    3.215627
 N   -5.262935    0.674187   -0.885307
 C   -6.172180   -0.408367   -1.216810
 C   -5.435821   -1.709476   -1.507561
 O   -4.355161   -1.790365   -2.056249
 C   -6.866283    0.106687   -2.497011
 C   -5.781520    0.960392   -3.162523
 C   -5.080191    1.633250   -1.981088
 O   -6.147463   -2.765562   -1.123346
 H   -1.670429   -1.363261   -0.879329
 H   -1.696474   -2.946248   -0.446741
 H   -2.637528   -2.414920   -1.729803
 H   -0.694078   -3.541650   -2.639738
 H   -0.283065   -0.493951   -2.774363
 H    0.242201   -1.693554   -3.989673
 H   -1.473188   -1.386537   -3.743315
 H    1.808426   -1.571637   -2.477445
 H    2.599534   -2.315454    0.218667
 H    5.004948   -1.484983   -0.969444
 H    4.290780   -2.493397   -2.220277
 H    3.997639   -4.336417   -0.476861
 H    5.670205   -3.927951   -0.838171
 H    5.809996   -4.118059    2.746051
 H    5.988802   -5.068331    1.306080
 H    3.717666   -0.591229    1.222061
 H    3.780048    1.488386    2.064293
 H    3.544265    2.582398   -0.787869
 H    4.128207    3.422740    0.644489
 H    4.962202    1.120898   -2.054119
 H    6.284656    2.539721    1.768529
 H    7.201630    0.114749   -2.448233
 H    8.497709    1.535317    1.386063
 H    9.797642    0.353534   -0.112068
 H    1.454164    1.884138   -0.601866
 H   -0.603672    2.848317    1.299133
 H   -2.069912    2.919390   -0.696805
 H   -0.740332    2.411007   -1.726324
 H   -1.294250    4.840458   -1.789123
 H   -1.799844    5.147402    0.660062
 H   -0.686623    6.367315    0.019026
 H   -0.061235    5.046525    1.005461
 H    0.990202    4.034159   -2.474966
 H    1.583408    4.419545   -0.848053
 H    0.968182    5.705237   -1.892088
 H   -0.307708    0.895876    2.466554
 H   -0.565712   -1.689091    1.436111
 H   -1.514036   -0.715430    4.191380
 H   -1.137368   -2.391151    3.739145
 H    0.152612   -1.174493    3.767345
 H   -3.096567    0.547618    2.276812
 H   -4.990231   -1.210300    0.935343
 H   -6.823303    0.336510    1.719392
 H   -6.527765    1.621709    3.783575
 H   -4.833752    1.144901    3.901543
 H   -5.362068    2.211833    2.584723
 H   -6.573007   -1.961591    2.609336
 H   -5.393927   -1.392765    3.805078
 H   -7.083161   -0.870564    3.910560
 H   -6.896706   -0.597382   -0.420968
 H   -7.240645   -0.703177   -3.127777
 H   -7.718971    0.724196   -2.199227
 H   -6.195579    1.684653   -3.866791
 H   -5.078566    0.320313   -3.703491
 H   -5.539524    2.590971   -1.713751
 H   -4.013832    1.802685   -2.146226
 H   -5.659525   -3.572678   -1.355332
