47 
5svl_ligand_xtb.xyz
 P    4.263709   -0.640863   -0.144528
 O    5.736703   -0.108827   -0.226397
 O    4.072434   -0.853224    1.376161
 O    3.999611   -1.766380   -1.057868
 P    2.019927    1.242579   -0.181537
 O    1.729762    2.538390   -0.763502
 O    2.042427    1.131689    1.372339
 O    3.431877    0.669247   -0.600131
 P    0.992331   -1.416219   -0.307844
 O    1.637320   -1.680785    0.987363
 O    1.537811   -2.212426   -1.528964
 O    0.982368    0.126047   -0.717789
 O   -0.566041   -1.697362   -0.338650
 C   -0.980987   -2.944376    0.215660
 C   -2.467624   -2.871274    0.576293
 O   -2.709289   -1.842309    1.526133
 C   -3.375875   -2.556392   -0.623613
 O   -4.642481   -3.111268   -0.422614
 C   -3.415128   -1.020725   -0.605126
 O   -4.624083   -0.533118   -1.095276
 C   -3.194236   -0.698163    0.897472
 N   -2.276370    0.412147    1.015012
 C   -1.117722    0.517522    1.708835
 N   -0.496042    1.648451    1.512603
 C   -1.276857    2.347023    0.621321
 C   -1.182908    3.597136   -0.027761
 N   -0.167310    4.459535    0.142474
 N   -2.201498    3.962876   -0.815494
 C   -3.215987    3.146671   -1.010726
 N   -3.394383    1.932227   -0.514534
 C   -2.403527    1.573869    0.307772
 H    6.162569   -0.382604   -1.038208
 H    3.175367   -1.209132    1.550165
 H    1.160821    1.455365    1.713808
 H    2.531774   -2.205731   -1.513137
 H   -0.395010   -3.140616    1.117665
 H   -0.806429   -3.743372   -0.509229
 H   -2.769126   -3.814500    1.041709
 H   -2.939963   -2.931144   -1.559036
 H   -5.288045   -2.480363   -0.775009
 H   -2.561225   -0.634164   -1.175998
 H   -4.555344    0.442144   -1.085749
 H   -4.148329   -0.405068    1.366823
 H   -0.774187   -0.260642    2.360986
 H   -0.163356    5.235742   -0.502070
 H    0.731557    4.053766    0.359456
 H   -3.993589    3.506061   -1.671180
