46 
5sym_ligand_dft.xyz
 N    1.458486    0.699373   -1.027457
 C   -4.925234   -0.879213    0.173469
 N    4.155651   -0.163171   -0.856610
 C   -5.252002   -2.345127    0.012937
 C    2.479518    1.126936   -2.045952
 C    0.310288    1.632916   -0.889244
 C   -0.925258    0.749733   -0.625751
 C   -3.299326    0.891571    0.082637
 C   -3.635936   -0.445824   -0.113500
 C    3.572004    0.075235   -2.159627
 C    6.213157   -0.489584    0.491441
 C    7.514329   -0.830939    0.710593
 C    7.702108   -0.814473    2.121768
 C    6.505414   -0.455728    2.654823
 C    3.195939   -0.657030    0.109236
 C    2.096111    0.377692    0.300098
 N   -2.009733    1.409129   -0.191302
 C   -4.274473    1.775721    0.565763
 O    5.585650   -0.252214    1.682684
Cl   -3.881407    3.460565    0.817492
 C   -5.559129    1.336401    0.847017
 O    6.206600   -0.240578   -1.821777
 C   -5.888246    0.001184    0.651439
 O   -0.824495   -0.450743   -0.848758
 C    5.542009   -0.308218   -0.803212
 F   -4.543912   -2.896420   -0.984023
 F   -4.961265   -3.022881    1.133224
 F   -6.550544   -2.530794   -0.248799
 H    0.999040   -0.180118   -1.338540
 H    2.885737    2.084392   -1.710286
 H    1.955231    1.261319   -2.995037
 H    0.182456    2.176942   -1.829495
 H    0.513875    2.349984   -0.090869
 H   -2.898125   -1.138985   -0.491954
 H    3.161274   -0.853724   -2.585211
 H    4.353575    0.425937   -2.834826
 H    8.239502   -1.057652   -0.056656
 H    8.607929   -1.035085    2.666342
 H    6.160259   -0.303429    3.665730
 H    3.666758   -0.837284    1.072474
 H    2.756301   -1.606667   -0.235170
 H    1.304127    0.005900    0.953876
 H    2.506905    1.310458    0.694447
 H   -1.921769    2.407711   -0.040388
 H   -6.295878    2.040808    1.215474
 H   -6.892304   -0.345818    0.865901
