27 
5sz0_ligand_dft.xyz
 C   -0.381155    1.097841    0.486034
 C    1.006154    1.090279    0.515666
 C    1.686436   -0.043901    0.083309
 S    3.464786   -0.055112    0.105716
 O    3.906696    0.853683    1.152020
 O    3.895664   -1.443832    0.050814
 N    3.878060    0.669251   -1.350371
 C    1.000703   -1.167589   -0.363775
 C   -0.387897   -1.145648   -0.390091
 C   -1.098186   -0.015626    0.030147
 C   -2.582171    0.000711    0.001006
 C   -3.274297    1.139264   -0.425543
 C   -4.664364    1.155305   -0.454587
 C   -5.385280    0.033121   -0.055936
 C   -4.707092   -1.105044    0.371411
 C   -3.316988   -1.121255    0.399060
 H   -0.918948    1.968640    0.848637
 H    1.559129    1.944241    0.892085
 H    4.497833    1.454769   -1.178623
 H    4.293622   -0.008968   -1.981064
 H    1.550540   -2.047720   -0.679138
 H   -0.928855   -2.012085   -0.758415
 H   -2.717569    2.010340   -0.759987
 H   -5.185331    2.044704   -0.796270
 H   -6.470761    0.045616   -0.077858
 H   -5.261866   -1.981771    0.691938
 H   -2.794851   -2.004281    0.756951
