40 
5t19_ligand_xtb.xyz
 C   -4.602785    0.838629    0.786556
 C    1.354355    0.795173   -0.471075
 C    2.993058    2.677222   -0.760622
 C   -0.786886    2.534309   -0.464153
 C    3.686373   -2.111377   -0.710248
 C   -6.712982   -2.126126   -0.020845
 N   -6.293319   -0.791004    0.323306
 C   -4.997272   -0.360128    0.180438
 C   -4.057063   -1.042994   -0.595443
 C   -2.779780   -0.545301   -0.747775
 C   -2.387284    0.649411   -0.148797
 C   -3.330234    1.333827    0.618802
 C   -1.026102    1.169948   -0.313386
 C    0.068617    0.308210   -0.314569
 C    1.597060    2.162776   -0.612209
 C    0.500177    3.014962   -0.607204
 N    2.490574   -0.071975   -0.449609
 C    2.477832   -1.315547   -1.179608
 O    4.167051   -3.053826   -1.280295
 N    4.121317   -1.578622    0.461340
 S    3.067837   -0.395706    1.070463
 O    3.817434    0.686466    1.603557
 O    2.110454   -1.027555    1.917114
 H   -5.314803    1.376493    1.397543
 H    3.560293    2.468979    0.144917
 H    3.495416    2.173583   -1.584588
 H    2.990033    3.748394   -0.944224
 H   -1.619711    3.221063   -0.484609
 H   -6.593522   -2.287347   -1.093605
 H   -6.145058   -2.897824    0.513726
 H   -7.767135   -2.236703    0.223904
 H   -6.799702   -0.357854    1.079814
 H   -4.324132   -1.967263   -1.082591
 H   -2.077583   -1.086135   -1.365673
 H   -3.048367    2.250524    1.115347
 H   -0.088411   -0.747776   -0.155865
 H    0.661364    4.077002   -0.723415
 H    1.586482   -1.929841   -0.989251
 H    2.543582   -1.123019   -2.253430
 H    4.883860   -1.998420    0.967162
