61 
5t1s_ligand_xtb.xyz
 N   -0.200112   -3.241834    0.167906
 C    0.998747   -2.750494    0.153214
 C    1.288423   -1.365713    0.193939
 C    0.237417   -0.470545    0.246447
 C   -1.087272   -0.982319    0.235292
 C   -1.247280   -2.399318    0.206720
 C   -2.249806   -0.187635    0.237592
 C   -3.507252   -0.747478    0.234283
 C   -3.643537   -2.152653    0.227308
 C   -2.542563   -2.956441    0.210512
 C    2.715887   -0.993511    0.164373
 C    0.523545    1.009413    0.245848
 C   -4.697704    0.110351    0.247538
 C    3.329621   -0.341584    1.236782
 C    4.711653   -0.155971    1.264311
 C    5.466863   -0.566426    0.170191
 C    4.872991   -1.181393   -0.926717
 C    3.499206   -1.392923   -0.915435
 C    5.369521    0.428354    2.475922
 C    5.702978   -1.655772   -2.076268
 C    0.947702    1.454768   -1.157004
 C    1.435100    2.903010   -1.215623
 C    2.617461    3.206768   -0.298875
 N    3.735398    2.244865   -0.502727
 C    5.047382    2.783120   -0.104550
 C   -4.745636    1.267378    1.025690
 N   -5.784327    2.079914    1.059826
 C   -6.844825    1.792914    0.336578
 C   -6.926024    0.649914   -0.467284
 C   -5.826123   -0.197633   -0.509611
 O   -8.055527    0.429884   -1.171781
 H    1.811914   -3.464133    0.121305
 H   -2.173414    0.888609    0.220363
 H   -4.632181   -2.584832    0.253332
 H   -2.623229   -4.031549    0.202459
 H    1.316615    1.207604    0.966537
 H   -0.348873    1.576659    0.561415
 H    2.746733   -0.087121    2.110947
 H    6.541062   -0.452258    0.195337
 H    3.032104   -1.907609   -1.742127
 H    4.722010    1.142989    2.980110
 H    5.582447   -0.370739    3.185556
 H    6.315113    0.905064    2.229080
 H    6.624931   -1.085434   -2.161444
 H    5.972433   -2.700558   -1.923500
 H    5.152419   -1.592599   -3.012083
 H    0.091351    1.355764   -1.825119
 H    1.717975    0.776108   -1.533734
 H    0.621164    3.571145   -0.932750
 H    1.706283    3.142628   -2.246154
 H    2.321544    3.173266    0.749888
 H    2.985146    4.211859   -0.514592
 H    3.762222    1.988982   -1.496421
 H    3.556870    1.358439    0.038193
 H    5.295081    3.655261   -0.706759
 H    5.022881    3.073079    0.943648
 H    5.814837    2.024597   -0.242267
 H   -3.919490    1.540080    1.668321
 H   -7.674376    2.482519    0.382909
 H   -5.839184   -1.074835   -1.144459
 H   -7.993743   -0.391773   -1.675820
