44 
5t1t_ligand_xtb.xyz
 N   -2.593960    2.989724   -0.051158
 C   -1.308715    3.126936   -0.126027
 N   -0.387234    2.147745   -0.174881
 C   -0.827482    0.913638   -0.152899
 C   -2.219363    0.607506   -0.067795
 C   -3.087323    1.732274   -0.018659
 C   -2.742132   -0.689833   -0.032683
 C   -4.104469   -0.849176    0.049707
 C   -4.979272    0.250816    0.096653
 C   -4.479778    1.523117    0.063313
 O    0.027480   -0.108644   -0.217037
 N   -4.651653   -2.190068    0.091249
 C    1.408080    0.199409   -0.347602
 C    2.001992    0.596096    1.007904
 C    3.513662    0.788309    0.894767
 C    4.148973   -0.503828    0.384039
 C    3.601190   -0.845054   -0.998450
 C    2.090770   -1.055161   -0.890835
 N    5.656824   -0.411729    0.426390
 C    6.297817   -1.739983    0.440649
 C    6.242453    0.427042   -0.635934
 O   -5.852853   -2.302628    0.153213
 O   -3.862361   -3.109191    0.062556
 H   -0.913472    4.133624   -0.150855
 H   -2.088647   -1.547852   -0.069907
 H   -6.040236    0.060240    0.159067
 H   -5.122527    2.387325    0.097804
 H    1.515375    1.037732   -1.048403
 H    1.770347   -0.184142    1.735414
 H    1.534725    1.522685    1.340110
 H    3.912937    1.053472    1.876513
 H    3.706139    1.613681    0.208011
 H    3.881215   -1.311754    1.073487
 H    4.053775   -1.755393   -1.391793
 H    3.787513   -0.028838   -1.696771
 H    1.679683   -1.293940   -1.870969
 H    1.865152   -1.889800   -0.225545
 H    5.872254    0.043829    1.321090
 H    5.931648   -2.331728    1.277323
 H    6.081363   -2.266928   -0.486022
 H    7.377002   -1.634069    0.535011
 H    6.138409   -0.066341   -1.599357
 H    5.751198    1.396103   -0.672324
 H    7.301773    0.583453   -0.439836
