45 
5t2b_ligand_xtb.xyz
 C   -1.391075  -51.986597   18.934457
 C   -1.864512  -50.813616   19.496883
 C   -1.712721  -53.198639   19.519249
 C   -4.362329  -47.003563   25.683702
 C   -9.063261  -47.618090   23.957993
 C   -8.435253  -46.954728   24.999285
 C   -2.959349  -52.068572   21.246449
 C   -4.995667  -47.980869   24.916080
 C   -7.000657  -46.928522   25.231000
 C   -6.334100  -45.895342   25.940460
 C   -4.249768  -49.074293   24.329002
 C   -3.783177  -50.819754   23.248843
 C   -5.157256  -52.770619   22.411197
 C   -1.308581  -50.825593   23.727449
 N   -4.800084  -50.054275   23.571268
 N  -10.382899  -47.417602   24.113670
 N   -2.648684  -50.325619   23.800659
 C   -2.643002  -50.854915   20.638391
 C   -2.490622  -53.240508   20.662527
 C   -9.501619  -46.395092   25.738511
 C   -4.073789  -53.312691   23.280874
 C   -3.821494  -52.065419   22.460618
 N   -5.022542  -45.967005   26.168101
 N  -10.662548  -46.685724   25.189586
 N   -6.312103  -47.930088   24.712111
 N   -2.942120  -49.213997   24.482756
 N   -6.975345  -44.805497   26.450618
 H   -0.782416  -51.956516   18.043259
 H   -1.630706  -49.861568   19.043342
 H   -1.357237  -54.120585   19.082466
 H   -3.304001  -47.051835   25.893317
 H   -8.642324  -48.189612   23.158003
 H   -5.989234  -52.266430   22.875801
 H   -5.397149  -53.301089   21.502183
 H   -0.728671  -50.337673   24.508360
 H   -1.306362  -51.905434   23.878788
 H   -0.865395  -50.603694   22.753465
 H  -11.133076  -47.757198   23.532546
 H   -3.023904  -49.934504   21.057739
 H   -2.730974  -54.200544   21.093056
 H   -9.470566  -45.841373   26.655396
 H   -3.584168  -54.232841   23.003429
 H   -4.170198  -53.180823   24.348833
 H   -6.365681  -44.072885   26.777835
 H   -7.842381  -44.524169   26.025442
