45 
5t2p_ligand_xtb.xyz
 C    3.712253    0.082969    0.042224
 C    5.429168   -1.262752    1.051444
 C    4.564333    0.358239   -1.024339
 O   -3.536780    0.630823    2.528188
 C   -4.815920    0.013690   -0.049918
 C   -5.887600   -0.940675   -0.568174
 C   -5.293213   -1.845858   -1.654312
 C   -3.063920   -1.594976   -0.533784
 C   -0.166587    2.948528   -0.781846
 C   -1.466633    3.295483   -0.470225
 C   -2.246328    2.403896    0.252814
 C   -1.743705    1.179576    0.655509
 C   -0.440850    0.844563    0.342977
 C    0.365825    1.727964   -0.366834
 C    1.776163    1.416291   -0.758351
 O    2.276773    1.883274   -1.756137
 N    2.417638    0.584992    0.119225
 C    4.154456   -0.733660    1.083400
 C    6.292982   -0.998840   -0.006352
 C    5.835966   -0.182365   -1.035757
 F    6.646822    0.087007   -2.064947
 F    7.527392   -1.516419   -0.031162
 F    5.836019   -2.044115    2.059466
 S   -2.722264   -0.041022    1.570585
 O   -1.782138   -1.025701    2.017124
 N   -3.698226   -0.749815    0.448974
 C   -4.083508   -2.587421   -1.083309
 O   -6.212515   -2.813406   -2.105888
 F   -3.510951    2.738152    0.538531
 H    4.246719    0.987831   -1.838656
 H   -5.187719    0.616098    0.778713
 H   -4.498350    0.681809   -0.866529
 H   -6.726270   -0.365150   -0.966210
 H   -6.247358   -1.564961    0.250374
 H   -4.965711   -1.219067   -2.503505
 H   -2.251539   -2.115588   -0.027028
 H   -2.648335   -0.990829   -1.357387
 H    0.460447    3.617302   -1.351485
 H   -1.887290    4.240199   -0.776093
 H   -0.107554   -0.131608    0.661600
 H    1.905939    0.309797    0.946464
 H    3.518336   -0.966817    1.922949
 H   -3.631735   -3.202985   -1.860482
 H   -4.431145   -3.241067   -0.283864
 H   -7.021653   -2.374315   -2.389908
