54 
5t2t_ligand_xtb.xyz
Cl   -3.915780   -4.828733   -0.981227
 C   -3.083894   -3.559717   -0.164113
 C   -3.581861   -2.265843   -0.208951
 C   -2.908579   -1.252537    0.446577
 C   -1.923125   -3.837045    0.542088
 C   -1.258703   -2.812023    1.189138
 C   -1.735420   -1.507224    1.146300
 C   -0.985619   -0.396411    1.835525
 C   -0.108600    0.414002    0.854312
 C    0.901823   -0.537391    0.192720
 C    1.926611    0.186761   -0.668644
 C   -0.973390    1.090079   -0.233213
 O   -0.750787    0.888057   -1.406542
 C   -2.010397    2.002110    0.236897
 C   -2.742044    2.756427   -0.621628
 O   -2.544712    2.785420   -1.922377
 C   -3.853315    3.709278   -0.196555
 O   -4.268943    3.713472    1.057200
 O   -4.310786    4.426481   -1.045253
 C    0.682091    1.496123    1.608467
 C    1.656291    2.206999    0.675787
 N    2.633339    1.264536    0.076695
 C    3.630243    0.728590    1.051217
 C    4.785148    0.104749    0.313048
 C    5.669614    0.918464   -0.388599
 C    6.724539    0.360772   -1.087785
 C    6.904144   -1.013266   -1.090417
 C    6.028937   -1.827687   -0.392112
 C    4.969324   -1.271770    0.304495
 H   -4.490678   -2.057020   -0.749685
 H   -3.311470   -0.251400    0.412372
 H   -1.547307   -4.846483    0.585933
 H   -0.361469   -3.039344    1.746276
 H   -0.336755   -0.824134    2.603059
 H   -1.690793    0.264602    2.339491
 H    0.361878   -1.226075   -0.458039
 H    1.391982   -1.131539    0.964723
 H    1.409920    0.636759   -1.518624
 H    2.674203   -0.517006   -1.039600
 H   -2.194067    2.068417    1.296936
 H   -3.174384    3.430678   -2.317352
 H   -3.872003    3.034737    1.619257
 H    1.216392    1.042824    2.445294
 H    0.010308    2.246466    2.025557
 H    2.202432    2.983792    1.215871
 H    1.101317    2.675194   -0.141159
 H    3.186603    1.784341   -0.613606
 H    3.145588   -0.004289    1.693979
 H    3.981616    1.561381    1.665669
 H    5.548659    1.993744   -0.372773
 H    7.409160    0.998314   -1.624439
 H    7.729650   -1.447024   -1.631784
 H    6.169829   -2.896874   -0.387629
 H    4.293182   -1.911438    0.852704
