54 
5t2t_ligand_dft.xyz
Cl   -3.647548   -5.176349   -0.903505
 C   -2.902061   -3.804094   -0.135253
 C   -3.465083   -2.540911   -0.287449
 C   -2.863667   -1.450013    0.327897
 C   -1.754121   -3.983160    0.628570
 C   -1.164828   -2.879212    1.234626
 C   -1.702936   -1.599040    1.090905
 C   -1.021167   -0.408964    1.727046
 C   -0.175165    0.442885    0.742147
 C    0.852256   -0.460116    0.035045
 C    1.895592    0.292297   -0.775896
 C   -1.071293    1.138541   -0.314091
 O   -0.860011    0.975279   -1.502902
 C   -2.129918    2.031927    0.177235
 C   -2.831259    2.871967   -0.621694
 O   -2.625666    3.018873   -1.914070
 C   -3.907747    3.819761   -0.108210
 O   -4.427901    3.628945    1.098696
 O   -4.249293    4.725886   -0.825071
 C    0.584544    1.532452    1.531164
 C    1.578445    2.290213    0.660598
 N    2.587748    1.357826    0.044770
 C    3.581569    0.805014    1.051607
 C    4.755781    0.178090    0.357818
 C    5.762600    0.990537   -0.171679
 C    6.834294    0.423045   -0.851632
 C    6.909198   -0.960256   -0.998882
 C    5.915383   -1.775706   -0.464194
 C    4.840116   -1.208079    0.211842
 H   -4.365723   -2.415451   -0.877983
 H   -3.315994   -0.469157    0.208337
 H   -1.331887   -4.974302    0.751735
 H   -0.273562   -3.025480    1.840238
 H   -0.349245   -0.760644    2.519712
 H   -1.758966    0.229601    2.226055
 H    0.339291   -1.129665   -0.659513
 H    1.336853   -1.100379    0.782741
 H    1.421864    0.804800   -1.613240
 H    2.675584   -0.371071   -1.152626
 H   -2.327028    2.059301    1.242993
 H   -3.197432    3.760338   -2.204651
 H   -4.194293    2.760627    1.454255
 H    1.098619    1.076486    2.385748
 H   -0.104758    2.270110    1.954143
 H    2.131180    3.039724    1.231551
 H    1.073180    2.789116   -0.171601
 H    3.148523    1.906318   -0.613121
 H    3.046782    0.091356    1.678277
 H    3.882933    1.653492    1.672035
 H    5.724427    2.070023   -0.034436
 H    7.616398    1.057557   -1.254993
 H    7.748927   -1.403577   -1.523847
 H    5.979287   -2.853590   -0.569478
 H    4.068881   -1.847321    0.635512
