49 
5t36_ligand_xtb.xyz
 O    1.753317   -2.858466   -1.844155
 C   -0.092075   -3.201271    1.363882
 O    0.323708   -1.390467   -2.713918
 C   -1.933478   -2.187126    2.717891
 C   -4.084161    2.220830    0.467035
 N   -0.001254    0.847694   -1.250992
 C   -0.825836   -1.901091    1.695104
 C   -1.468658   -1.367458    0.410740
 C   -2.901306    0.382511   -0.534954
 C   -4.289124    0.794606   -0.031250
Cl    4.018219    2.503056    1.354916
 C    3.219856    1.298287    0.406957
 C    3.872287    0.102402    0.134176
 C    1.946746    1.550803   -0.052512
 C    1.257460    0.601574   -0.828367
 C    1.926439   -0.610759   -1.130030
 C    1.344091   -1.722824   -1.900472
 C    3.209933   -0.832196   -0.629853
 C   -0.830999    1.909400   -0.738196
 C   -2.293988    1.691021   -1.120628
 C   -3.192352    2.837926   -0.609905
 N   -2.123874   -0.191024    0.539567
 O   -1.416353   -1.949920   -0.654404
 C    0.172075   -0.885879    2.261563
 H    0.677270   -3.026798    0.616461
 H   -0.787337   -3.933320    0.961456
 H    0.373306   -3.610174    2.257199
 H   -0.061493   -2.202060   -3.079523
 H   -2.673244   -2.864050    2.295665
 H   -1.504696   -2.657189    3.600294
 H   -2.440167   -1.277014    3.034105
 H   -5.021404    2.760924    0.587382
 H   -3.570790    2.217144    1.430312
 H   -0.459830    0.100223   -1.750600
 H   -2.957079   -0.398693   -1.298153
 H   -4.995094    0.791305   -0.861705
 H   -4.657891    0.117032    0.737702
 H    4.865239   -0.080843    0.508834
 H    1.483991    2.495148    0.179398
 H    3.677697   -1.776790   -0.862546
 H   -0.502711    2.870097   -1.158860
 H   -0.736817    1.971257    0.353953
 H   -2.344018    1.638522   -2.210858
 H   -3.810980    3.215024   -1.423944
 H   -2.604860    3.669748   -0.224186
 H   -2.176986    0.257219    1.438411
 H   -0.305402    0.053874    2.533076
 H    0.635647   -1.294606    3.156928
 H    0.956978   -0.678325    1.538326
