69 
5t4e_ligand_dft.xyz
 C   -0.710363   -1.612733   -1.115933
 C    1.482602   -0.985738   -0.620134
 N   -0.870269   -0.595351   -1.919553
 C   -1.735947   -3.472214    0.119031
 C   -0.356882   -4.096955    0.227074
 C    0.659839   -3.003493    0.498117
 C    2.843728    2.020937   -2.092264
 C    2.554962    3.204472   -1.283245
 C    2.307151    4.193337   -0.639175
 C    1.988174    5.399491    0.120405
 N    0.479654   -1.907427   -0.448348
 C    5.638136   -0.568604   -0.125195
 C    5.714272   -0.168185    2.379744
 C    4.643459    0.909830    2.182166
 C    0.107803    0.339663   -2.184664
 C    1.329131    0.106245   -1.421303
 N    2.730002   -1.002997   -0.060821
 C    3.342397    0.087377   -0.551381
 N    2.537653    0.774368   -1.380432
 O   -0.021391    1.261528   -2.974092
 N   -1.749371   -2.476502   -0.941648
 N    4.641632    0.485813   -0.257072
 C    5.707106   -1.222779    1.269153
 C    4.761952    1.520970    0.785620
 N    4.539037   -2.167035    1.443292
 C   -3.054940   -2.041281   -1.403324
 C   -3.720844   -1.034580   -0.479440
 N   -4.925153   -0.661602   -0.819247
 C   -3.565741    0.279603    1.386119
 N   -3.008523   -0.618171    0.600165
 C   -4.869835    0.789339    1.120849
 C   -5.524953    0.263257   -0.019752
 C   -6.830753    0.706639   -0.341151
 C   -7.447824    1.640729    0.450004
 C   -6.794911    2.170729    1.589088
 C   -5.530952    1.755318    1.920697
 C   -2.770026    0.740689    2.574730
 H   -2.475912   -4.235637   -0.134351
 H   -2.035508   -3.012547    1.071363
 H   -0.334039   -4.829655    1.037962
 H   -0.112178   -4.613286   -0.706744
 H    0.552455   -2.618677    1.520866
 H    1.679590   -3.384827    0.378706
 H    3.899601    1.980490   -2.374546
 H    2.218439    2.018483   -2.988969
 H    2.363401    6.287085   -0.398116
 H    0.905963    5.508465    0.238548
 H    2.442530    5.372915    1.115826
 H    5.475810   -1.317598   -0.906360
 H    6.621073   -0.120113   -0.310242
 H    5.627932   -0.648504    3.362217
 H    6.704529    0.301919    2.359437
 H    3.636525    0.490577    2.309786
 H    4.760997    1.685640    2.944398
 H    6.610693   -1.835258    1.333937
 H    5.738296    2.003659    0.658295
 H    3.997662    2.281312    0.611104
 H    4.739594   -3.071840    1.013070
 H    4.336489   -2.335699    2.430490
 H    3.640785   -1.761116    0.919217
 H   -3.696581   -2.921758   -1.499704
 H   -2.952605   -1.590103   -2.390466
 H   -7.308873    0.288632   -1.220268
 H   -8.448614    1.982545    0.204677
 H   -7.302753    2.909575    2.200648
 H   -5.035878    2.164351    2.795816
 H   -3.300156    0.534168    3.510824
 H   -1.809104    0.223864    2.586920
 H   -2.592104    1.820667    2.529019
