69 
5t4e_ligand_xtb.xyz
 C   -0.628492   -0.778101   -1.317323
 C    1.609817   -0.744886   -0.697836
 N   -0.514171    0.386603   -1.876550
 C   -2.014747   -2.708784   -0.758677
 C   -0.749709   -3.538557   -0.921723
 C    0.384442   -2.810132   -0.217909
 C    3.592495    2.159391   -1.533142
 C    3.579743    3.161486   -0.480611
 C    3.527862    3.992050    0.383498
 C    3.484738    5.011028    1.402571
 N    0.449748   -1.449943   -0.719271
 C    5.634410   -1.454773   -0.013235
 C    5.921222   -1.073608    2.450393
 C    5.259889    0.289272    2.249283
 C    0.615585    1.140004   -1.951421
 C    1.742749    0.509086   -1.239553
 N    2.829547   -1.114085   -0.194147
 C    3.693551   -0.091977   -0.425155
 N    3.058510    0.891096   -1.068110
 O    0.699095    2.189139   -2.550013
 N   -1.815399   -1.391732   -1.323461
 N    5.020682   -0.141112   -0.136752
 C    5.505979   -2.093141    1.383649
 C    5.544084    0.809686    0.839967
 N    4.128579   -2.591568    1.581326
 C   -2.974051   -0.713628   -1.869521
 C   -4.007972   -0.380693   -0.819376
 N   -4.391615    0.859004   -0.741847
 C   -5.417451   -1.155483    0.802256
 N   -4.469987   -1.400586   -0.072450
 C   -5.948095    0.153077    0.962358
 C   -5.367238    1.159679    0.142304
 C   -5.820948    2.488878    0.243881
 C   -6.823108    2.798222    1.121483
 C   -7.404731    1.804898    1.926375
 C   -6.978853    0.506652    1.854227
 C   -5.908976   -2.312008    1.607735
 H   -2.855674   -3.169204   -1.278756
 H   -2.289608   -2.629615    0.299127
 H   -0.885324   -4.528964   -0.491031
 H   -0.516186   -3.647022   -1.982229
 H    0.212597   -2.795734    0.865367
 H    1.342980   -3.299171   -0.414272
 H    4.610701    1.998348   -1.901560
 H    2.938066    2.498409   -2.344506
 H    3.900915    5.936090    1.006864
 H    2.453040    5.189891    1.701424
 H    4.063757    4.706242    2.273664
 H    5.212460   -2.114601   -0.773282
 H    6.696591   -1.318802   -0.232184
 H    5.689306   -1.462852    3.443935
 H    7.004052   -0.950100    2.394207
 H    4.178905    0.213991    2.391374
 H    5.647686    0.993668    2.984142
 H    6.211166   -2.932761    1.424608
 H    6.619582    0.899257    0.674107
 H    5.079152    1.784302    0.687338
 H    4.090920   -3.590843    1.410720
 H    3.831016   -2.437038    2.539441
 H    3.140524   -1.876326    0.468844
 H   -3.438043   -1.362657   -2.620057
 H   -2.639651    0.213915   -2.332928
 H   -5.361230    3.231031   -0.388509
 H   -7.179871    3.814133    1.200804
 H   -8.197761    2.075624    2.607069
 H   -7.430825   -0.251624    2.475011
 H   -6.970330   -2.470238    1.425233
 H   -5.363197   -3.208224    1.326992
 H   -5.772883   -2.121805    2.670986
