44 
5t4v_ligand_xtb.xyz
 O    5.327570   -1.631174    0.611369
 C    4.395413   -0.868295    0.421410
 C    4.361559    0.496101    0.888412
 C    3.330677    1.339156    0.662580
 C    3.350272    2.744470    1.169933
 N    3.266529   -1.293596   -0.282264
 C    3.284896   -2.659188   -0.761890
 C    2.192189   -0.480309   -0.527691
 C    1.070151   -0.968906   -1.216234
 C   -0.018045   -0.158869   -1.461884
 O   -1.174092   -0.557124   -2.072024
 C   -1.290060   -1.896227   -2.493418
 C    2.195592    0.858717   -0.078106
 C    1.094856    1.673470   -0.367111
 C    0.007083    1.191770   -1.053361
 N   -1.102202    2.023703   -1.284886
 S   -2.028000    2.345869    0.082306
 O   -1.186018    2.962506    1.057767
 O   -3.208029    3.016795   -0.363781
 C   -2.428809    0.678708    0.607364
 C   -3.546924    0.061643    0.079232
 C   -3.768878   -1.277059    0.341077
 C   -2.849571   -1.983459    1.120838
 C   -3.045967   -3.366589    1.352758
 N   -3.192749   -4.490091    1.521943
 C   -1.727899   -1.346583    1.655791
 C   -1.520244   -0.004883    1.393665
 H    5.234883    0.809256    1.439704
 H    4.254357    2.926530    1.744428
 H    3.317472    3.446935    0.338704
 H    2.485328    2.933662    1.803392
 H    2.485212   -3.245384   -0.306729
 H    3.198554   -2.690288   -1.848725
 H    4.246606   -3.079463   -0.466476
 H    1.051044   -1.993874   -1.540680
 H   -0.541659   -2.143775   -3.251497
 H   -1.204038   -2.589488   -1.650879
 H   -2.284286   -1.980891   -2.928467
 H    1.064260    2.696788   -0.036291
 H   -1.695670    1.690066   -2.032014
 H   -4.225097    0.642641   -0.525769
 H   -4.634622   -1.784645   -0.057161
 H   -1.030243   -1.906015    2.260965
 H   -0.668337    0.523893    1.790218
