43 
5t66_ligand_dft.xyz
 O    1.878156    3.047221   -1.875912
 B    1.484351    2.208250   -0.892304
 O    2.235350    1.071327   -0.665598
 C    1.937422    0.204394    0.349462
 C    1.225453    0.671324    1.465644
 C    0.731070    2.096634    1.463402
 C    0.234179    2.460742    0.046130
 N   -0.867370    1.591235   -0.360279
 C   -2.037675    1.540719    0.345742
 O   -2.330784    2.385749    1.177618
 C   -2.916194    0.327432    0.065259
 C   -3.207068    0.075114   -1.422600
 C   -4.120519   -1.141793   -1.599140
 C   -3.514887   -2.389583   -0.949275
 C   -3.202877   -2.147813    0.530503
 C   -2.300036   -0.926427    0.718933
 C    0.948803   -0.215954    2.498075
 C    1.378387   -1.540462    2.446883
 C    2.078266   -1.986438    1.339470
 C    2.359041   -1.129244    0.267513
 C    3.084509   -1.746089   -0.879278
 O    3.119733   -1.009835   -2.004191
 O    3.587486   -2.847517   -0.831418
 H    2.674612    2.719092   -2.313795
 H    1.540193    2.784634    1.748815
 H   -0.074415    2.225472    2.190271
 H   -0.108516    3.497459    0.021978
 H   -0.646661    0.784916   -0.925255
 H   -3.863566    0.546496    0.570911
 H   -2.270403   -0.113566   -1.967238
 H   -3.657900    0.966159   -1.873119
 H   -4.305306   -1.318384   -2.664723
 H   -5.095470   -0.930168   -1.138853
 H   -2.586756   -2.655471   -1.475191
 H   -4.195288   -3.241641   -1.058682
 H   -4.143104   -1.986990    1.075780
 H   -2.728825   -3.032603    0.970132
 H   -1.315055   -1.129426    0.273290
 H   -2.124973   -0.737529    1.784006
 H    0.380551    0.140498    3.353256
 H    1.157730   -2.219842    3.263430
 H    2.421222   -3.012468    1.266922
 H    3.605004   -1.557441   -2.642785
