40 
5t68_ligand_xtb.xyz
 C   25.172696   -5.069713   -7.186625
 C   24.774441   -3.779583   -7.419016
 C   24.120430    2.678344  -10.316109
 C   26.146173   -3.590589   -9.416512
 C   24.873714    3.274337  -11.272759
 C   26.082275   -5.652190   -8.072416
 C   24.679826    1.376598  -10.142424
 C   26.550733   -4.898077   -9.174905
 C   25.254776   -3.030001   -8.519104
 C   25.753228    1.314875  -11.041615
 C   26.732106   -6.915208   -8.198586
 C   26.520917    0.141370  -11.091762
 C   25.123574   -0.717567   -9.476635
 C   29.845846   -0.972595  -12.429321
 C   28.838835   -1.700010  -13.275769
 C   28.435539   -1.121212  -11.950418
 C   26.601521   -8.094189   -7.304505
 N   24.353229    0.359017   -9.341035
 N   27.504946   -6.922743   -9.257897
 N   26.171539   -0.866028  -10.297750
 N   27.400435   -5.715101   -9.846924
 N   24.770241   -1.739572   -8.648194
 N   27.590876    0.020801  -11.905154
 O   25.867284    2.483518  -11.732244
 H   24.794519   -5.624410   -6.341272
 H   24.071748   -3.306336   -6.747583
 H   23.280955    3.090938   -9.797992
 H   26.495272   -3.026799  -10.262255
 H   24.807254    4.251300  -11.712124
 H   30.617925   -1.542968  -11.937618
 H   30.170896    0.003161  -12.758089
 H   28.484861   -1.210411  -14.170168
 H   28.917693   -2.771499  -13.369619
 H   28.223626   -1.785148  -11.124451
 H   27.249452   -8.891384   -7.656963
 H   26.878661   -7.827971   -6.285215
 H   25.570916   -8.447381   -7.294381
 H   24.018415   -1.477936   -8.024604
 H   27.801309    0.795832  -12.513932
 H   27.917320   -5.524471  -10.688053
