78 
5t6f_ligand_xtb.xyz
 C    9.278940    0.437717    1.909741
 C    7.867110   -0.622357    0.313113
 C    7.747176   -1.579146   -0.697184
 C    6.545110   -1.776192   -1.334569
 C    5.422064   -1.023803   -0.983589
 C    3.120912   -0.551791   -1.368339
 C    1.978838   -1.075168   -2.235886
 C    0.757967   -0.185354   -2.122732
 C   -1.912685    1.197707    0.556182
 C   -2.656039    2.467548    0.135200
 C   -1.790845    3.451847   -0.657934
 C   -2.618955    4.661615   -1.108538
 C   -2.991419    5.573208    0.058608
 C   -1.743283    6.034326    0.804766
 C   -0.930563    4.835008    1.283993
 C   -0.556103    3.946438    0.101777
 C   -2.869126    0.234250    1.275147
 C   -3.143338   -2.114622    1.931442
 C   -3.684337   -2.954070    0.768094
 C   -4.695514   -2.181164   -0.085864
 C   -4.161278   -1.746651   -1.442950
 C   -6.412897   -2.319548   -1.768270
 C   -5.961880   -2.963608   -0.454351
 C   -2.260802   -2.966654    2.848404
 C    5.538580   -0.072584    0.018444
 C    6.752980    0.125286    0.662000
 N   -1.291936    0.557656   -0.593526
 N   -2.365609   -1.000414    1.438916
 N   -5.164537   -1.854964   -2.327274
 O    9.104936   -0.505489    0.882438
 O    4.277605   -1.295285   -1.680956
 O   -3.037958   -1.362412   -1.717678
 O   -3.037447   -4.022610    3.370979
 O   -3.979124    0.565669    1.649810
 O    1.005302    0.861664    0.336183
 O    0.162280   -1.422743    0.159218
 S    0.216568   -0.087275   -0.396197
 H   10.321761    0.355102    2.212642
 H    9.084887    1.456961    1.558969
 H    8.635437    0.221736    2.769176
 H    8.617614   -2.157297   -0.963244
 H    6.446468   -2.513988   -2.114715
 H    3.287756    0.515541   -1.572734
 H    2.855296   -0.663786   -0.310950
 H    1.720743   -2.082400   -1.906392
 H    2.319291   -1.128108   -3.272535
 H    0.954371    0.839141   -2.424287
 H   -0.091478   -0.587133   -2.666554
 H   -1.099581    1.450191    1.244690
 H   -3.054987    2.924787    1.038385
 H   -3.505440    2.171121   -0.484408
 H   -1.444116    2.916934   -1.549707
 H   -3.525955    4.322108   -1.613607
 H   -2.033121    5.237695   -1.829472
 H   -3.537323    6.441095   -0.319434
 H   -3.652395    5.043600    0.745872
 H   -1.127316    6.641169    0.136061
 H   -2.028140    6.659100    1.654284
 H   -1.510469    4.265613    2.011693
 H   -0.022496    5.179904    1.783339
 H    0.055100    4.532063   -0.590814
 H    0.049133    3.101358    0.430039
 H   -3.979887   -1.709426    2.510692
 H   -2.841363   -3.269340    0.148290
 H   -4.155190   -3.840302    1.193633
 H   -4.975720   -1.259162    0.436440
 H   -7.091100   -1.476207   -1.587476
 H   -6.902724   -3.024507   -2.443262
 H   -5.708063   -4.011220   -0.623089
 H   -6.725052   -2.909346    0.317800
 H   -1.411719   -3.354004    2.267370
 H   -1.870050   -2.332681    3.655471
 H    4.693595    0.525514    0.320227
 H    6.803405    0.873587    1.437092
 H   -1.916104   -0.094973   -1.065579
 H   -1.460416   -1.237727    1.044658
 H   -5.079317   -1.549445   -3.283097
 H   -2.494278   -4.536577    3.976681
