45 
5t7s_ligand_xtb.xyz
 C   -1.085022    0.617019    0.191907
 C   -2.119682    1.444253   -0.582410
 C   -3.490279    1.265252    0.080589
 C   -3.839178   -0.232160    0.149460
 C   -2.695503   -0.999879    0.824989
 C   -2.893402   -2.520734    0.752632
 O    0.133827    0.760859   -0.451944
 O   -1.803937    2.811998   -0.577974
 O   -4.495822    1.902903   -0.664670
 O   -4.047989   -0.741626   -1.138529
 O   -1.454160   -0.737169    0.192339
 O   -1.895904   -3.209728    1.450081
 C    4.061153   -0.459507   -0.099174
 C    3.032957   -1.594013   -0.006410
 C    1.702910   -1.102216   -0.587351
 C    1.260061    0.153787    0.181568
 C    2.392813    1.192570    0.194562
 C    2.075369    2.370155    1.123518
 O    4.251714   -0.127319   -1.432748
 O    3.513542   -2.721285   -0.672936
 O    0.783992   -2.162022   -0.478734
 O    3.617949    0.642140    0.659711
 O    3.043604    3.375053    1.032199
 H   -1.026198    0.982507    1.240515
 H   -2.159211    1.050246   -1.609075
 H   -3.441934    1.684729    1.097781
 H   -4.751134   -0.349641    0.756536
 H   -2.631597   -0.681650    1.878211
 H   -3.841990   -2.781360    1.224826
 H   -2.925443   -2.808780   -0.304100
 H   -0.908644    2.912738   -0.922761
 H   -4.192149    2.800333   -0.849408
 H   -4.611824   -0.103932   -1.599316
 H   -1.041295   -3.016468    1.042130
 H    4.996530   -0.776909    0.382040
 H    2.878823   -1.817874    1.063829
 H    1.852770   -0.832155   -1.643361
 H    1.003075   -0.131159    1.210125
 H    2.520958    1.560657   -0.833531
 H    2.002453    1.990841    2.153043
 H    1.125034    2.823662    0.836377
 H    5.017338    0.452747   -1.518037
 H    2.749919   -3.282300   -0.862992
 H   -0.104518   -1.796726   -0.613803
 H    3.901336    2.962907    1.193309
