27 
5t8p_ligand_dft.xyz
 C   -1.286234    2.347123   -0.220348
 C   -2.440107    1.587504   -0.162695
 C    3.437705   -1.262521   -0.082215
 C    2.761828   -2.443302   -0.088879
 C    2.577324   -0.122207   -0.049848
 C   -0.039186    1.728424   -0.142903
 C    0.016563    0.324247   -0.025330
 C    1.248590   -0.477182   -0.028701
 C   -2.300143    0.210734   -0.013801
 C   -3.535171   -0.651689    0.070882
 C    3.116241    1.279240   -0.014492
 C    2.160409    2.283306    0.605125
 N   -1.116255   -0.388321    0.049542
 N   -3.282534   -1.972888    0.212276
 O   -4.654253   -0.165659    0.014825
 O    1.037897    2.546216   -0.228712
 S    1.060055   -2.209048   -0.051244
 H   -1.314513    3.426944   -0.322442
 H   -3.431103    2.021841   -0.216514
 H    4.519725   -1.186730   -0.096568
 H    3.175387   -3.442533   -0.108443
 H    3.370109    1.620522   -1.025619
 H    4.049571    1.289867    0.562497
 H    2.653302    3.251001    0.722283
 H    1.819687    1.943585    1.591160
 H   -4.057104   -2.613590    0.267624
 H   -2.330492   -2.304177    0.243533
