27 
5t8q_ligand_dft.xyz
 C   -2.225349   -1.067157    1.028936
 C   -2.297714   -0.075492   -0.061086
 C   -3.305840    0.817912   -0.382818
 C   -2.874893    1.571817   -1.494034
 C   -1.616949    1.114711   -1.818952
 C    0.038363   -0.520832   -0.969011
 C    3.372977    0.431619    0.630185
 C    2.401691   -0.204341   -0.132996
Cl    2.889153   -1.562121   -1.133628
 C    3.010365    1.508783    1.430846
 C    1.686796    1.934070    1.458455
 C    0.728845    1.285253    0.687468
 C    1.066737    0.203561   -0.124899
 N   -1.266559    0.118388   -0.958066
 O   -1.182550   -1.587596    1.401606
 N   -3.424108   -1.339637    1.636366
 H   -4.239783    0.934776    0.150335
 H   -3.417274    2.356908   -2.000769
 H   -0.934560    1.422886   -2.598565
 H   -0.068802   -1.545623   -0.612936
 H    0.370304   -0.560591   -2.011130
 H    4.398755    0.081406    0.593851
 H    3.763689    2.009684    2.030663
 H    1.395115    2.771927    2.083784
 H   -0.303512    1.619074    0.716540
 H   -3.406464   -2.094162    2.306448
 H   -4.288168   -1.190144    1.139951
