97 
5t9u_ligand_dft.xyz
 C    2.114227    0.684233   -2.181252
 C    3.458643    0.344404   -1.512607
 C    3.473513    0.412929    0.029178
 C    3.367616    1.873029    0.544219
 C    1.959379    2.386725    0.668700
 C   -4.070148    1.730449   -2.237879
 C   -5.280401    1.084363   -1.559792
 C   -5.010960   -0.388982   -1.274327
 N   -3.788914   -0.525202   -0.479543
 N   -2.658217    0.044766   -1.122911
 C   -2.801872    1.502686   -1.415279
 C   -2.763448    2.249727   -0.084027
 O   -2.898895    3.541243   -0.311694
 O   -2.603219    1.701673    0.980029
 C   -2.883044    4.520145    0.761025
 C   -1.881644    4.301489    1.888555
 C   -0.478042    3.929320    1.510880
 C    0.086308    3.948531    0.298584
 C    1.447755    3.454482    0.049858
 C    0.955139   -0.270080   -1.920641
 O   -0.213184    0.094785   -2.099586
 C    2.271767    0.785358   -3.709349
 C    4.751428   -0.221728    0.584260
 O    4.187408    2.690334   -0.262117
 O    3.866640   -0.957353   -1.942182
 C    4.769275    3.776557    0.427025
 C    5.090572   -1.013465   -2.646628
 N    1.254329   -1.541268   -1.562751
 C    0.322440   -2.642257   -1.741355
 C   -1.039041   -2.385902   -1.117620
 O   -2.072039   -2.699501   -1.694800
 C    0.956723   -3.949772   -1.201274
 C    1.285906   -3.899491    0.295120
 C    0.088675   -5.163444   -1.538775
 C   -3.620269   -1.660177    0.328527
 C   -2.266128   -2.020475    0.955039
 O   -4.598032   -2.289039    0.656239
 C   -2.114758   -1.285109    2.304717
 C   -0.761067   -1.548499    2.918683
 C   -0.460048   -2.786496    3.492981
 C    0.819290   -3.030033    3.979392
 C    1.809262   -2.054503    3.901219
 C    1.506842   -0.815609    3.339068
 C    0.227178   -0.568017    2.839301
 O    2.415015    0.193517    3.247657
 N   -1.091030   -1.789428    0.116895
 H    1.784472    1.655043   -1.805679
 H    4.186710    1.078336   -1.874075
 H    2.612668   -0.141995    0.425555
 H    3.769324    1.855881    1.570923
 H    1.344402    1.823283    1.367693
 H   -4.206410    2.805055   -2.372147
 H   -3.920340    1.294825   -3.233584
 H   -6.158780    1.170044   -2.204929
 H   -5.511712    1.599074   -0.620277
 H   -4.904520   -0.962407   -2.207746
 H   -5.804942   -0.846601   -0.687322
 H   -1.820475   -0.114065   -0.537110
 H   -2.435207   -0.462947   -1.992543
 H   -1.898223    1.756921   -1.977052
 H   -2.679178    5.448854    0.226274
 H   -3.897631    4.566719    1.165253
 H   -1.870930    5.242158    2.458024
 H   -2.260972    3.540379    2.574886
 H    0.131658    3.595921    2.350012
 H   -0.459282    4.338836   -0.559894
 H    2.054906    3.982127   -0.684494
 H    1.325546    1.067301   -4.177580
 H    2.597774   -0.169591   -4.133363
 H    3.018154    1.545800   -3.957729
 H    4.713609   -0.244224    1.677684
 H    4.876228   -1.246225    0.228046
 H    5.631068    0.361821    0.289360
 H    5.447694    3.422871    1.216195
 H    5.342496    4.347483   -0.305584
 H    4.009576    4.428440    0.876965
 H    5.265577   -2.062060   -2.894452
 H    5.920672   -0.647488   -2.030452
 H    5.044354   -0.426528   -3.572705
 H    2.244280   -1.778276   -1.604892
 H    0.109448   -2.779210   -2.808211
 H    1.902243   -4.051053   -1.752355
 H    1.839284   -2.995625    0.576184
 H    1.903955   -4.760363    0.566248
 H    0.381003   -3.948706    0.910980
 H   -0.871610   -5.129598   -1.013102
 H    0.600674   -6.082858   -1.240774
 H   -0.121418   -5.223812   -2.610914
 H   -2.368526   -3.094868    1.142523
 H   -2.259858   -0.212908    2.151710
 H   -2.919055   -1.641081    2.955107
 H   -1.226832   -3.552651    3.566353
 H    1.052674   -3.988645    4.431619
 H    2.805062   -2.252508    4.290095
 H   -0.001116    0.407565    2.418356
 H    3.226762   -0.059265    3.704815
 H   -0.214391   -1.668851    0.614745
