85 
5ta4_ligand_dft.xyz
 N   -1.327482   -2.037906   -0.958651
 N   -0.190162   -2.283622   -0.134501
 C    1.327151   -1.764340   -1.991469
 C    0.101755   -1.483218   -2.859513
 C   -1.083547   -1.038469   -2.006282
 C    0.992926   -2.784342   -0.897898
 C   -0.791942    1.224415    1.028981
 C    0.025881    2.500589    0.948873
 C   -0.163253    3.358888    2.206089
 C   -0.323031    3.245731   -0.355025
 C    0.602646    4.434165   -0.675259
 C    1.943265    4.089202   -1.345051
 C    2.186889   -2.944156    0.038789
 C    3.167422   -1.884327    1.946988
 C    3.989307   -0.947088    1.092185
 C    3.360837    0.129858    0.463323
 C    4.055633    0.949309   -0.426553
 C    5.413319    0.697155   -0.652728
 C    6.053766   -0.346999    0.003714
 C    5.340474   -1.181371    0.862061
 C    3.319472    2.008760   -1.159805
 C    2.784977    3.093570   -0.600498
 C   -1.032550    2.667930   -2.542199
 C    2.619792   -1.261995    3.216993
 O   -0.244780    0.113846    1.056386
 O    3.176684   -3.535008   -0.293213
 O   -0.331204    2.266713   -1.382684
 O    1.983094   -2.275310    1.171673
 N   -2.129738    1.375172    1.104464
 C   -3.061238    0.288598    0.889371
 C   -3.648652    0.469167   -0.514020
 O   -3.823754    1.585082   -0.975875
 C   -4.171333    0.219829    1.965844
 C   -3.574813   -0.272606    3.285177
 C   -4.904658    1.551591    2.138408
 N   -3.968389   -0.645924   -1.239321
 C   -3.860517   -2.046267   -0.873537
 C   -2.487871   -2.466531   -0.346262
 O   -2.407239   -3.202456    0.626238
 C   -4.258998   -2.924642   -2.063214
 H   -0.535197   -2.968311    0.562870
 H    0.018188   -1.395562    0.388647
 H    2.154539   -2.165189   -2.581047
 H    1.679541   -0.838615   -1.518770
 H   -0.171308   -2.378324   -3.430340
 H    0.331454   -0.690095   -3.576261
 H   -0.890734   -0.062032   -1.542699
 H   -1.990028   -0.965439   -2.602221
 H    0.716894   -3.751264   -1.324842
 H    1.061052    2.163769    0.891883
 H   -0.030398    2.755316    3.108435
 H   -1.159559    3.813294    2.246989
 H    0.572830    4.165680    2.241551
 H   -1.345882    3.650549   -0.250121
 H    0.067281    5.127035   -1.333849
 H    0.779695    4.995036    0.248989
 H    2.496539    5.030936   -1.455680
 H    1.762805    3.712273   -2.357560
 H    3.731284   -2.795490    2.162321
 H    2.298757    0.302369    0.626596
 H    5.967634    1.326140   -1.343199
 H    7.108387   -0.531474   -0.174036
 H    5.832571   -2.029659    1.329318
 H    3.182318    1.847938   -2.230539
 H    2.962226    3.285432    0.459108
 H   -0.979086    1.835332   -3.248573
 H   -2.085627    2.875462   -2.313972
 H   -0.576503    3.547814   -3.013109
 H    1.983106   -0.405361    2.976061
 H    3.450355   -0.918222    3.838979
 H    2.033763   -1.989630    3.785243
 H   -2.505857    2.293723    0.907731
 H   -2.473475   -0.623572    0.969365
 H   -4.895570   -0.528549    1.614340
 H   -3.124457   -1.264846    3.172957
 H   -4.348210   -0.335836    4.056021
 H   -2.802134    0.418558    3.639854
 H   -5.297590    1.936226    1.192653
 H   -5.742391    1.428304    2.830417
 H   -4.239132    2.308391    2.569804
 H   -4.429632   -0.431257   -2.115110
 H   -4.521350   -2.281629   -0.032264
 H   -5.295218   -2.717681   -2.344683
 H   -3.615283   -2.743141   -2.930081
 H   -4.187256   -3.979827   -1.790206
