72 
5tbe_ligand_dft.xyz
 C   10.894738   -0.793848   -0.419965
 C   12.105057   -0.419576    0.424889
 O   12.916591    0.527457   -0.236673
 C   12.187059    1.701691   -0.521633
 C   10.974767    1.403007   -1.394288
 N   10.128571    0.416780   -0.730330
 C    8.924317    0.150778   -1.437072
 C    7.773440   -0.016792   -0.779509
 N    7.702283    0.105493    0.605934
 C    6.598386    0.038613    1.428607
 O    6.625402    0.535958    2.540402
 C    5.392833   -0.694604    0.922613
 C    4.137285   -0.209651    1.274178
 C    2.967219   -0.848607    0.857334
 C    1.684520   -0.217953    1.345348
 O    1.747454    0.394312    2.401233
 C    5.480034   -1.887495    0.202965
 C    4.321790   -2.549713   -0.178924
 C    3.057549   -2.038768    0.120548
 C    1.831246   -2.753357   -0.377719
 C    1.014978   -1.859119   -1.316952
 C    0.081245   -0.904962   -0.607669
 C   -1.170485   -0.717763   -1.184967
 C    0.389194   -0.225064    0.589729
 C   -0.606401    0.590665    1.152960
 C   -1.847500    0.768304    0.578241
 C   -2.143572    0.116855   -0.624508
 N   -3.364513    0.243749   -1.272918
 C   -4.443411    1.032077   -0.841576
 C   -5.695745    0.451902   -0.624789
 C   -4.310094    2.413452   -0.692751
 F   -3.128337    2.992438   -0.932144
 C   -5.374882    3.207491   -0.298117
 C   -6.598192    2.602249   -0.099406
 F   -7.659498    3.351160    0.268660
 C   -6.796446    1.230147   -0.267361
 N   -8.088141    0.742818   -0.031682
 C   -8.539257   -0.540999   -0.204373
 O   -7.846266   -1.456426   -0.621777
 C   -9.962054   -0.750975    0.151288
 S  -10.669705   -2.269426   -0.276218
 C  -12.172933   -1.810187    0.410039
 C  -12.136097   -0.555828    0.952430
 C  -10.861947    0.052918    0.805184
 H   10.250123   -1.484912    0.132501
 H   11.236041   -1.300309   -1.340371
 H   12.732166   -1.295498    0.609522
 H   11.763673   -0.017226    1.392779
 H   12.873173    2.380020   -1.035166
 H   11.851888    2.177119    0.414418
 H   11.317805    1.038747   -2.380829
 H   10.394562    2.317908   -1.551893
 H    8.954765    0.075719   -2.525343
 H    6.848736   -0.240446   -1.296393
 H    8.514786    0.544375    1.028544
 H    4.061706    0.679149    1.890529
 H    6.449623   -2.311449   -0.042050
 H    4.397494   -3.486684   -0.724202
 H    1.200387   -3.078954    0.458512
 H    2.138402   -3.657597   -0.912501
 H    0.415911   -2.489469   -1.982052
 H    1.703568   -1.298009   -1.962675
 H   -1.403682   -1.240366   -2.110639
 H   -0.369439    1.094809    2.082651
 H   -2.585720    1.392819    1.067600
 H   -3.608978   -0.513383   -1.893387
 H   -5.821888   -0.616612   -0.735339
 H   -5.256170    4.277044   -0.176697
 H   -8.759523    1.447604    0.232163
 H  -13.012796   -2.491308    0.382645
 H  -12.980213   -0.085299    1.441658
 H  -10.633313    1.039029    1.195717
