38 
5tbm_ligand_dft.xyz
 N    7.337020    0.275198   -1.947605
 C    6.385174    0.138338   -1.301592
 C    5.202654   -0.031558   -0.501240
 C    3.974228    0.414974   -0.993480
 C    2.837625    0.245926   -0.211600
 C    2.907411   -0.355241    1.043264
 C    4.143811   -0.794251    1.490745
 F    4.215859   -1.373999    2.691056
 C    5.304236   -0.648515    0.748262
 O    1.669016    0.762475   -0.704947
 C    0.484782    0.101888   -0.502118
 C   -0.639257    0.884580   -0.268787
 C   -0.718582    2.383030   -0.152279
 C   -2.080212    2.558826    0.516668
 F   -2.701109    3.719109    0.175381
 F   -1.928411    2.567587    1.869988
 C   -1.884871    0.282964   -0.105273
 C   -2.941715    1.336642    0.128183
 O   -3.607292    1.562198   -1.099371
 C   -2.009103   -1.100814   -0.189276
 S   -3.587998   -1.925150    0.003575
 C   -4.407437   -1.604377   -1.552389
 O   -4.333472   -1.240838    1.056328
 O   -3.318795   -3.356176    0.096804
 C   -0.880246   -1.880725   -0.426620
 C    0.366253   -1.284597   -0.585208
 H    3.894983    0.889281   -1.964072
 H    2.029056   -0.482247    1.665435
 H    6.251956   -1.003694    1.133609
 H    0.081014    2.824297    0.446839
 H   -0.721403    2.858909   -1.137620
 H   -3.637225    1.078972    0.932069
 H   -4.218319    2.298643   -0.964709
 H   -4.470312   -0.523270   -1.693543
 H   -5.401389   -2.051329   -1.475593
 H   -3.838337   -2.077847   -2.354172
 H   -0.985625   -2.958967   -0.480749
 H    1.243208   -1.894815   -0.773349
