78 
5tco_ligand_dft.xyz
 C    6.975865    2.450073   -0.076113
 C    5.595867    3.144980   -0.061207
 O    5.326146    3.559533    1.266051
 C    4.948187    2.446104    2.053823
 C    6.008375    1.324692    1.909350
 N    7.241687    1.960199    1.328984
 C    8.515886    1.181941    1.519469
 C    8.513464   -0.279341    1.051003
 N    8.528704   -0.474930   -0.379570
 C    7.445021   -0.697650   -1.210014
 O    7.484339   -0.359669   -2.378142
 C    6.227396   -1.304467   -0.589849
 C    5.015850   -0.656814   -0.797918
 C    3.839607   -1.101820   -0.191465
 C    2.671917   -0.147700   -0.281843
 O    2.979600    1.048105   -0.265106
 C    6.258599   -2.457247    0.198373
 C    5.078918   -2.945344    0.742747
 C    3.859595   -2.282610    0.563563
 C    2.591256   -2.863439    1.125346
 C    1.558735   -3.093532    0.012962
 C    0.743801   -1.869576   -0.342021
 C   -0.608122   -2.065056   -0.567377
 C    1.267891   -0.555144   -0.422385
 C    0.368933    0.496301   -0.697160
 C   -0.971425    0.295534   -0.925347
 C   -1.490561   -1.012728   -0.878821
 N   -2.810400   -1.301145   -1.089868
 C   -3.841175   -0.398899   -1.449279
 C   -5.019987   -0.421097   -0.701833
 C   -3.704081    0.445831   -2.549234
 C   -4.749620    1.300358   -2.887084
 C   -5.911332    1.265960   -2.146490
 F   -6.940152    2.076788   -2.470005
 C   -6.084537    0.408251   -1.054352
 N   -7.315691    0.459100   -0.398607
 C   -7.709193   -0.261665    0.707462
 O   -6.968468   -1.028367    1.300880
 C   -9.120146   -0.018259    1.148054
 C  -10.134256    0.396112    0.279740
 C  -11.425523    0.592452    0.757704
 C  -11.710449    0.379379    2.103421
 C  -10.705510   -0.046277    2.969368
 C   -9.417543   -0.252292    2.492300
 H    7.788665    3.140580   -0.313135
 H    7.015409    1.611589   -0.768298
 H    4.807683    2.471240   -0.415694
 H    5.616945    4.036988   -0.687407
 H    3.971891    2.060157    1.743358
 H    4.895231    2.808991    3.081934
 H    5.689713    0.542405    1.220289
 H    6.275535    0.876233    2.868673
 H    7.353984    2.830432    1.859974
 H    8.716596    1.203160    2.594834
 H    9.301537    1.751603    1.014659
 H    7.666769   -0.816190    1.481458
 H    9.414066   -0.726631    1.486200
 H    9.327832   -0.110591   -0.885323
 H    4.983012    0.232010   -1.419219
 H    7.193985   -2.986681    0.358506
 H    5.099750   -3.862482    1.324371
 H    2.163691   -2.205310    1.892116
 H    2.819121   -3.814446    1.615537
 H    0.869234   -3.881891    0.328158
 H    2.072132   -3.474241   -0.879645
 H   -1.010952   -3.073078   -0.497886
 H    0.770642    1.502590   -0.731879
 H   -1.623261    1.138321   -1.120411
 H   -3.113299   -2.228379   -0.830101
 H   -5.120879   -1.067632    0.159169
 H   -2.799558    0.425521   -3.147001
 H   -4.681314    1.973934   -3.733728
 H   -7.952085    1.158447   -0.750748
 H   -9.941382    0.528689   -0.781789
 H  -12.210950    0.903432    0.076195
 H  -12.718243    0.536218    2.475422
 H  -10.927930   -0.220919    4.017343
 H   -8.625457   -0.596620    3.148712
