33 
5tfx_ligand_dft.xyz
 C   -7.302032    0.264204   -0.128455
 C   -6.860217   -0.938046    0.420034
 C   -6.384084    1.169518   -0.652992
 C   -5.503220   -1.231758    0.450022
 C   -5.023588    0.881964   -0.615099
 C    2.102393    2.115914    0.432490
 C    3.368953    1.546857    0.354576
 C    2.440781   -0.691910   -0.051471
 C   -4.575976   -0.317004   -0.053768
 C    1.174838   -0.123193    0.021076
 C    1.042633    1.245969    0.257129
 C    3.516615    0.174760    0.113002
 C   -3.130891   -0.707451    0.013167
 C   -0.879796    0.303994    0.065979
 N    5.605639   -0.158799   -1.578689
 N   -0.090487   -0.697776   -0.099494
 N   -2.248672    0.377746    0.040714
 O   -0.296846    1.523913    0.287458
 O   -2.758498   -1.855355    0.060400
 O    6.040192    0.327316    0.835275
 O    5.069350   -1.930393    0.174102
 S    5.165625   -0.488599    0.007237
 H   -8.363342    0.491713   -0.155294
 H   -7.575542   -1.648715    0.821893
 H   -6.726911    2.097097   -1.100593
 H   -5.140149   -2.168166    0.860358
 H   -4.324129    1.581359   -1.065853
 H    1.957965    3.172172    0.626069
 H    4.252520    2.158689    0.496973
 H    2.584562   -1.753931   -0.211452
 H    6.534707    0.251107   -1.590442
 H    5.559451   -0.998701   -2.147559
 H   -2.626527    1.300002    0.200372
