74 
5tg2_ligand_dft.xyz
 C    7.153857   -2.065967   -0.519311
 C    6.057864   -1.681993   -1.511319
 C    4.854343   -1.020847   -0.838917
 C    3.752052   -0.644647   -1.831013
 C    2.602365    0.158696   -1.216310
 C    1.888540   -0.532753   -0.057973
 C    0.701614    0.619716    1.679736
 C    1.273409   -1.877739   -0.426723
 C    0.385129   -2.479977    0.661809
 C   -0.035523   -3.911726    0.336117
 C   -0.988992   -4.531340    1.361611
 C   -2.325133   -3.791996    1.510357
 N   -2.968510   -3.600810    0.224956
 O    0.845750    0.383746    0.354079
 O    1.264006   -0.003597    2.555944
 N   -0.179915    1.629890    1.918318
 C   -0.663387    2.692268    1.034078
 C   -1.921660    2.303863    0.238830
 O   -2.887163    3.068070    0.258206
 C    0.369663    3.329415    0.086558
 C    1.479914    4.167718    0.741153
 C    2.454672    3.354468    1.599358
 C    2.248520    4.911542   -0.356316
 N   -1.856878    1.166685   -0.477250
 C   -2.975224    0.568714   -1.222886
 C   -4.032218   -0.002868   -0.270738
 C   -3.527146   -1.206859    0.517470
 C   -3.432473   -2.455755   -0.355366
 O   -3.792550   -2.459796   -1.524620
 C   -3.599346    1.514363   -2.265564
 O   -4.592619    2.367537   -1.769643
 H    8.004283   -2.534664   -1.024678
 H    6.777536   -2.773023    0.228963
 H    7.525976   -1.184296    0.014870
 H    6.467234   -0.999113   -2.267520
 H    5.721850   -2.575597   -2.054094
 H    5.185146   -0.119729   -0.302708
 H    4.458265   -1.702962   -0.073618
 H    3.362463   -1.552916   -2.308881
 H    4.188869   -0.044661   -2.639221
 H    2.987587    1.119708   -0.851792
 H    1.859000    0.389480   -1.990361
 H    2.555460   -0.657317    0.798419
 H    0.700009   -1.773301   -1.359122
 H    2.098525   -2.567760   -0.646109
 H    0.904896   -2.448199    1.626440
 H   -0.504226   -1.847905    0.773037
 H    0.859962   -4.542512    0.266520
 H   -0.505745   -3.933195   -0.655393
 H   -1.191255   -5.572458    1.076704
 H   -0.509434   -4.570692    2.347641
 H   -2.166888   -2.814982    1.971204
 H   -2.979872   -4.356874    2.186746
 H   -2.972933   -4.387713   -0.411598
 H   -0.311224    1.778136    2.906876
 H   -1.022427    3.477024    1.704476
 H    0.813178    2.562187   -0.555344
 H   -0.210004    3.989991   -0.570302
 H    0.999083    4.917880    1.385685
 H    1.981434    2.922647    2.484084
 H    3.279610    3.988672    1.941931
 H    2.890834    2.530688    1.020319
 H    3.017427    5.562147    0.073690
 H    2.749456    4.200226   -1.025438
 H    1.582293    5.532112   -0.965317
 H   -0.991324    0.645560   -0.417001
 H   -2.528348   -0.258623   -1.782722
 H   -4.906458   -0.291517   -0.859052
 H   -4.350866    0.786591    0.414919
 H   -4.200966   -1.429433    1.354422
 H   -2.553988   -0.976331    0.971274
 H   -2.784810    2.066300   -2.764710
 H   -4.082836    0.884707   -3.019592
 H   -4.184089    2.845914   -1.025371
