28 
5tg5_ligand_xtb.xyz
 C   -0.017721    0.283070    0.465545
 C   -0.684972   -0.799010    1.002880
 C   -2.034876   -0.956812    0.741415
 C   -2.733562   -0.040555   -0.047921
 C   -2.025271    1.043460   -0.571053
 C   -0.673097    1.205801   -0.324434
 B   -4.297872   -0.224310   -0.339036
 O   -4.873343   -1.442830   -0.398731
 O   -5.114743    0.829324   -0.540927
 S    1.737436    0.457710    0.746488
 N    2.336779   -0.418443   -0.557562
 C    3.147517    0.273260   -1.564933
 C    4.235992   -0.799419   -1.440363
 C    3.386836   -1.416706   -0.322795
 O    2.098765    1.840791    0.599181
 O    2.094211   -0.229047    1.955285
 H   -0.138309   -1.489772    1.624873
 H   -2.561141   -1.796831    1.174117
 H   -2.537911    1.763458   -1.194515
 H   -0.117326    2.042100   -0.717831
 H   -4.292974   -2.190946   -0.268826
 H   -4.713230    1.694320   -0.477358
 H    3.434671    1.275071   -1.241293
 H    2.634791    0.329306   -2.527119
 H    5.210515   -0.433015   -1.130246
 H    4.341791   -1.430484   -2.318427
 H    3.023711   -2.430646   -0.500218
 H    3.804133   -1.349709    0.682643
