28 
5tg5_ligand_dft.xyz
 C    0.226203   -0.678687   -0.158187
 C   -0.438475   -0.257635   -1.307738
 C   -1.790875    0.055356   -1.228486
 C   -2.498561   -0.055261   -0.023739
 C   -1.801509   -0.496051    1.109489
 C   -0.446738   -0.803593    1.055072
 B   -4.042139    0.295242    0.053250
 O   -4.583296    1.324634   -0.657776
 O   -4.904588   -0.411465    0.836085
 S    1.984077   -0.996829   -0.225472
 N    2.711449    0.452363    0.116581
 C    2.514983    1.182758    1.384478
 C    2.720277    2.495006    0.595304
 C    2.520786    1.670096   -0.695752
 O    2.306246   -1.882171    0.879690
 O    2.316194   -1.300028   -1.606341
 H    0.097207   -0.206509   -2.250064
 H   -2.308889    0.366365   -2.133241
 H   -2.321219   -0.593202    2.060283
 H    0.084634   -1.162081    1.930699
 H   -3.915859    1.845032   -1.114507
 H   -4.493660   -1.188014    1.227638
 H    3.244447    0.922612    2.153224
 H    1.498466    1.084670    1.788333
 H    3.732476    2.890840    0.690750
 H    1.993963    3.287366    0.779105
 H    1.506348    1.762076   -1.106525
 H    3.254438    1.777668   -1.496367
