81 
5tho_ligand_dft.xyz
 C   -2.852944    0.786386    0.927482
 O   -2.692951    0.300961    2.042597
 C   -4.227917    0.962652    0.300072
 C   -5.245926   -0.033191    0.866114
 C   -6.608017    0.151018    0.242560
 C   -7.518671    1.069614    0.769951
 C   -8.756861    1.273599    0.168523
 C   -9.104522    0.558234   -0.974374
 C   -8.206396   -0.361054   -1.509068
 C   -6.969197   -0.560064   -0.903845
 O    0.008194    2.107001   -1.525410
 C    0.380819    1.959312   -0.366147
 C   -0.440987    1.106873    0.609048
 C   -0.016475   -0.375686    0.597868
 C    1.228102   -0.676708    1.408687
 N    1.418637   -1.948427    1.822862
 C    0.432120   -3.010018    1.631315
 C   -0.630646   -3.071508    2.728098
 C    2.631574   -2.235280    2.588809
 C    2.539019   -1.835819    4.059024
 O    2.056085    0.207865    1.676022
 N   -1.814996    1.218996    0.171184
 O    3.851324    3.545200    1.154036
 N    1.492723    2.530145    0.144584
 C    2.472694    3.149088   -0.720105
 C    3.435460    2.155098   -1.393747
 O    4.002560    2.472623   -2.430756
 C    3.257633    4.194429    0.056724
 C    4.564547    4.421313    1.987579
 C    2.387537   -3.935733   -0.975115
 C    3.625709   -3.723861   -0.435414
 C    1.728386   -2.903370   -1.695198
 C    1.711022   -0.646646   -2.633701
 C    2.376514   -1.647825   -1.875071
 C    0.455901   -0.865111   -3.144351
 N    3.586446    0.957231   -0.787033
 C    4.364190   -0.105793   -1.390796
 C    3.662760   -1.440253   -1.277381
 C    4.254044   -2.464578   -0.580371
 C   -0.196247   -2.100882   -2.938548
 C    0.432407   -3.099518   -2.239037
 H   -4.565544    1.988403    0.497262
 H   -4.164157    0.863997   -0.790416
 H   -4.885540   -1.052883    0.689794
 H   -5.291985    0.095172    1.951342
 H   -7.254144    1.626994    1.665993
 H   -9.453496    1.989822    0.594821
 H  -10.071407    0.713803   -1.443607
 H   -8.470465   -0.926248   -2.398426
 H   -6.272074   -1.282241   -1.323565
 H   -0.355486    1.494570    1.628590
 H   -0.865674   -0.931045    0.994587
 H    0.138139   -0.708306   -0.435220
 H   -0.031563   -2.891068    0.649402
 H    0.984575   -3.952857    1.585387
 H   -1.346781   -3.870222    2.508462
 H   -0.178972   -3.280288    3.702197
 H   -1.184252   -2.129820    2.805021
 H    2.832523   -3.305512    2.485730
 H    3.454086   -1.697794    2.111758
 H    1.741799   -2.377802    4.576426
 H    3.484762   -2.056227    4.565170
 H    2.346626   -0.763573    4.143722
 H   -1.937430    1.538418   -0.781543
 H    1.807788    2.201639    1.051567
 H    1.943532    3.635984   -1.541844
 H    2.575905    4.989355    0.398570
 H    4.016858    4.639474   -0.603084
 H    5.389115    4.909618    1.446861
 H    3.909924    5.201895    2.405046
 H    4.976226    3.826030    2.804841
 H    1.889567   -4.895667   -0.862429
 H    4.130846   -4.514688    0.111408
 H    2.187783    0.310234   -2.807992
 H   -0.040798   -0.072108   -3.693117
 H    3.120105    0.764100    0.094614
 H    4.528125    0.176228   -2.435641
 H    5.352652   -0.173818   -0.920327
 H    5.227967   -2.304778   -0.124429
 H   -1.190503   -2.260743   -3.344998
 H   -0.053781   -4.061155   -2.092524
