17 
5ti0_ligand_xtb.xyz
 S   -2.287333   -0.635336   -0.146974
 C   -0.600858   -0.232337    0.260991
 C    0.255286   -1.329947    0.811070
 C    1.267093   -1.601551   -0.255152
 C    2.223120   -0.712517   -0.549029
 C    2.298023    0.617678   -0.016752
 C    1.238630    1.398236    0.285346
 C   -0.144064    1.034047    0.130222
 O   -0.964900    2.076829   -0.185506
 H   -2.308963   -0.058700   -1.354118
 H   -0.347449   -2.210004    1.027013
 H    1.208337   -2.541995   -0.783491
 H    3.000234   -0.982709   -1.252024
 H    3.283355    1.062584    0.027261
 H    1.396684    2.437870    0.535927
 H    0.748867   -0.992856    1.727728
 H   -1.887913    1.794900   -0.092837
