38 
5ti2_ligand_xtb.xyz
 C   -4.913410    0.335362   -0.992051
 C   -1.775762   -0.239686    2.076831
 C    0.410406   -1.212824    2.349550
 C    3.507111    0.645295    0.420493
 C    1.587493    2.503342   -0.249343
 C    1.487821    1.222835   -0.765293
 O    1.379010   -1.451223   -2.049600
 S    2.283358   -1.395919   -0.944477
 N    1.571809   -2.092229    0.404297
 C    0.454023   -1.479977    0.987022
 C   -0.618332   -1.141847    0.172768
 C   -1.741139   -0.513802    0.708107
 N   -2.802797   -0.165558   -0.129652
 C   -2.668486   -0.212477   -1.577305
 C   -3.879235    0.571414   -2.084146
 C   -4.081929    0.124753    0.262644
 O   -4.496043    0.186408    1.395418
 C   -0.712445   -0.601814    2.879725
 C    2.459437    0.309042   -0.414061
 C    3.590900    1.935898    0.918845
 C    2.623767    2.872473    0.591919
 F    0.650840    3.411027   -0.572231
 O    3.569826   -2.009011   -1.057674
 H   -5.488101   -0.576695   -1.167884
 H   -5.614988    1.155795   -0.856062
 H   -2.639386    0.237562    2.505697
 H    1.240898   -1.489075    2.982402
 H    4.249801   -0.101394    0.652027
 H    0.692078    0.940928   -1.433498
 H    2.274050   -2.400954    1.059354
 H   -0.547954   -1.394055   -0.870553
 H   -2.695739   -1.251333   -1.927547
 H   -1.724612    0.236425   -1.890707
 H   -3.637370    1.633108   -2.147130
 H   -4.205495    0.231374   -3.064531
 H   -0.754742   -0.393523    3.937950
 H    4.407942    2.214443    1.565982
 H    2.665587    3.880052    0.974318
