38 
5ti3_ligand_dft.xyz
 C   -1.188824    1.377392    0.697910
 C    1.663782   -1.478907    0.376260
 C    5.304992    0.613437    1.399907
 C    2.383898   -1.187049   -1.912445
 C    1.157892   -1.677078   -2.341877
 O   -0.229866   -0.480173    2.596967
 S   -1.265867   -1.112668    1.802221
 C   -1.786407    0.124789    0.598614
 C   -2.712772   -0.124898   -0.414759
Br   -3.540386   -1.809952   -0.648546
 C   -3.040532    0.879001   -1.318550
 C   -2.450800    2.132855   -1.216412
 C   -1.526418    2.373000   -0.207878
Br   -0.709542    4.070057   -0.069067
 N   -0.555031   -2.315605    0.884056
 C    0.435040   -1.945663   -0.078432
 C    2.639998   -1.071779   -0.538082
 N    3.848921   -0.545069   -0.045762
 C    4.008463   -0.204021    1.367594
 C    6.099393    0.060710    0.218533
 C    5.033544   -0.422233   -0.753998
 O    5.203787   -0.671576   -1.929816
 C    0.163274   -2.039582   -1.440087
 O   -2.433845   -1.711091    2.415121
 H   -0.462650    1.553799    1.482225
 H    1.832045   -1.444203    1.444357
 H    5.820865    0.521037    2.357736
 H    5.076797    1.671395    1.237909
 H    3.144264   -0.900786   -2.624166
 H    0.966829   -1.754996   -3.407702
 H   -3.758036    0.676839   -2.105581
 H   -2.707488    2.914102   -1.922766
 H   -1.278744   -2.932773    0.527750
 H    3.143536    0.363978    1.721504
 H    4.089239   -1.115129    1.975935
 H    6.709023   -0.805522    0.503323
 H    6.756018    0.781884   -0.271038
 H   -0.815314   -2.363021   -1.782577
