38 
5ti4_ligand_dft.xyz
 C    1.748990    0.781681    0.683590
 C    5.146384    0.350818   -1.948675
 C    2.313819   -1.437386    1.457954
 C    1.150802   -1.448773    2.216133
 O   -0.143666    2.351573   -1.108841
 S   -1.136463    2.162857   -0.068012
 C   -2.012778    0.654287   -0.437553
 C   -1.331095   -0.413922   -1.017176
 C   -2.005012   -1.606956   -1.235584
 C   -3.352500    0.554407   -0.077555
 C   -4.024454   -0.639738   -0.303757
Cl   -5.697330   -0.808708    0.117926
 C   -3.341689   -1.711366   -0.877958
 F   -3.981547   -2.857097   -1.091868
 N   -0.313942    1.850825    1.363576
 C    0.571710    0.734505    1.425073
 C    2.617629   -0.314021    0.673289
 N    3.768687   -0.254993   -0.134421
 C    3.965514    0.829784   -1.096394
 C    5.933708   -0.541405   -0.991703
 C    4.883952   -1.071485   -0.026861
 O    5.014685   -2.024656    0.713286
 C    0.259149   -0.381317    2.195519
 O   -2.111120    3.181425    0.276395
 H    1.958930    1.681947    0.122110
 H    5.725665    1.186142   -2.346937
 H    4.775921   -0.237893   -2.793524
 H    2.993072   -2.276970    1.475876
 H    0.925180   -2.322442    2.819641
 H   -0.288789   -0.310937   -1.296171
 H   -1.513226   -2.463586   -1.681901
 H   -3.869357    1.402304    0.358603
 H   -0.955892    1.931241    2.145991
 H    3.057796    0.985969   -1.686132
 H    4.196813    1.767853   -0.573890
 H    6.665752    0.029256   -0.407262
 H    6.461765   -1.370358   -1.465905
 H   -0.668870   -0.418558    2.758906
