109 
5tkj_ligand_xtb.xyz
 N    1.260149    3.164156   -0.124598
 C    0.532878    4.427289   -0.345568
 C   -0.967256    4.298267   -0.023881
 O   -1.567293    5.225466    0.472370
 C    0.703256    4.864218   -1.795573
 N   -1.542172    3.141703   -0.391307
 C   -2.946569    2.910453   -0.161607
 C   -3.126688    1.674470    0.711153
 O   -2.323875    0.763328    0.767467
 C   -3.719233    2.731569   -1.493078
 C   -3.791988    4.062887   -2.235190
 C   -3.072646    1.657959   -2.365819
 N   -4.310792    1.633343    1.365112
 C   -4.591485    0.568023    2.307595
 C   -4.117509   -0.771330    1.752899
 O   -3.407140   -1.532711    2.389357
 N   -4.617123   -1.085068    0.546852
 C   -4.231485   -2.322572   -0.106527
 C   -2.720928   -2.264868   -0.381771
 O   -2.233415   -1.567844   -1.261780
 C   -5.080796   -2.617023   -1.355467
 C   -4.610940   -3.919227   -2.020429
 C   -5.062271   -1.484020   -2.379798
 C   -4.733093   -5.156800   -1.138039
 N   -2.006553   -3.039804    0.446881
 C   -0.571941   -3.159973    0.446622
 C    0.189708   -2.165311    1.329643
 O    1.416554   -2.182042    1.312283
 N   -0.546922   -1.344727    2.070963
 C   -0.041412   -0.398521    3.058461
 C    1.062776    0.488592    2.469894
 O    0.778639    1.575378    1.974813
 C    0.374877   -1.124961    4.337771
 N    2.312473    0.038408    2.565945
 C    3.447261    0.733807    1.992574
 C    3.290385    0.878743    0.476179
 O    3.579189    1.925060   -0.091288
 C    4.763134    0.045086    2.402131
 C    5.950478    0.921764    2.012270
 C    4.912433   -1.345949    1.791954
 N    2.764005   -0.172405   -0.157568
 C    2.437890   -0.144311   -1.572508
 C    0.910163   -0.027420   -1.643498
 O    0.301097   -1.162896   -1.732917
 C    2.973115   -1.387665   -2.286946
 C    4.472835   -1.470460   -2.180144
 C    5.072247   -2.514404   -1.489074
 C    5.278348   -0.499611   -2.763116
 C    6.451154   -2.588061   -1.380716
 C    6.654873   -0.566787   -2.647810
 C    7.244838   -1.610847   -1.954676
 O    0.351096    1.054300   -1.554163
 H    0.982970    2.440311   -0.831110
 H    2.289574    3.251259   -0.198677
 H    1.061084    2.721551    0.806128
 H    0.928742    5.196189    0.324319
 H    0.168917    5.794137   -1.967358
 H    1.753770    5.027070   -2.024209
 H    0.307803    4.106975   -2.469008
 H   -1.028971    2.339665   -0.730395
 H   -3.327508    3.795143    0.360907
 H   -4.738271    2.418735   -1.237295
 H   -2.793588    4.425497   -2.465489
 H   -4.296690    4.816150   -1.635784
 H   -4.337339    3.941106   -3.167208
 H   -3.725935    1.416408   -3.200269
 H   -2.882621    0.749668   -1.799781
 H   -2.129325    2.012797   -2.772590
 H   -4.876709    2.465673    1.420305
 H   -5.668600    0.519271    2.480808
 H   -4.084220    0.734811    3.265113
 H   -5.093298   -0.387162   -0.001862
 H   -4.412646   -3.121628    0.622308
 H   -6.110894   -2.758701   -1.007904
 H   -5.220441   -4.072052   -2.912349
 H   -3.576525   -3.801307   -2.349407
 H   -4.046413   -1.282025   -2.704003
 H   -5.495416   -0.567211   -1.985088
 H   -5.649356   -1.773466   -3.247384
 H   -4.011807   -5.148587   -0.324508
 H   -4.550845   -6.048475   -1.731913
 H   -5.733329   -5.230755   -0.717629
 H   -2.487716   -3.440320    1.239798
 H   -0.195724   -3.050525   -0.573639
 H   -0.299945   -4.162126    0.791280
 H   -1.560627   -1.417340    2.040710
 H   -0.874037    0.279138    3.268958
 H    1.077370   -1.927227    4.123927
 H   -0.504641   -1.564575    4.801712
 H    0.827145   -0.429755    5.039558
 H    2.458395   -0.918090    2.855685
 H    3.454588    1.758184    2.389034
 H    4.737699   -0.045485    3.494418
 H    5.975804    1.073473    0.935920
 H    5.892939    1.893769    2.495584
 H    6.878749    0.444171    2.312363
 H    5.095386   -1.275385    0.722853
 H    4.035290   -1.968692    1.953789
 H    5.764120   -1.847902    2.243593
 H    2.503598   -1.012381    0.355841
 H    2.888058    0.768053   -1.980749
 H   -0.708661   -1.149049   -1.628460
 H    2.674106   -1.336779   -3.336194
 H    2.519843   -2.275142   -1.843833
 H    4.457328   -3.279428   -1.036652
 H    4.828372    0.310108   -3.319355
 H    6.903338   -3.408666   -0.844556
 H    7.269297    0.194182   -3.104479
 H    8.319102   -1.664881   -1.868345
