43 
5tol_ligand_dft.xyz
 C    5.457204   -0.238521   -0.038553
 C   -4.789512   -0.485056    0.721430
 C   -3.913783   -0.181639   -0.506432
 C   -6.012359   -1.129473    0.064275
 C   -6.059369   -0.435896   -1.311580
 C   -4.076798   -1.244002    1.827211
 C   -2.716157   -2.432982   -0.327801
 C    4.384826    1.864627    0.280917
 C    5.556978    1.123307    0.216905
 C   -0.978707    2.938114    0.231173
 C   -2.339449    3.223031    0.253291
 C   -3.265724    2.224999    0.014762
 C   -2.880560    0.912793   -0.265360
 C   -1.516745    0.638882   -0.278952
 C   -0.563057    1.631305   -0.030015
 N    0.785758    1.240767   -0.055765
 C    1.890624    2.001056    0.162965
 O    1.907940    3.198762    0.403980
 C    3.174368    1.207910    0.086304
 C    4.202096   -0.815073   -0.223545
 N    3.082557   -0.101779   -0.161611
Br    7.001180   -1.316479   -0.132527
 O   -4.824788    0.272784   -1.470919
 S   -3.346773   -2.828986    1.297254
 N   -3.321223   -1.409209   -1.022131
 N   -1.812621   -3.126624   -0.903068
 F   -4.571509    2.543066    0.082170
 H   -5.078303    0.486708    1.132081
 H   -5.867054   -2.207579   -0.044458
 H   -6.923059   -0.961569    0.644918
 H   -6.174190   -1.158379   -2.125851
 H   -6.858842    0.306419   -1.382356
 H   -3.286500   -0.617047    2.250368
 H   -4.773222   -1.497015    2.631242
 H    4.385623    2.930256    0.477637
 H    6.525834    1.588505    0.362502
 H   -0.246870    3.711299    0.417893
 H   -2.692617    4.227780    0.458051
 H   -1.180359   -0.371756   -0.492298
 H    0.987278    0.263095   -0.238978
 H    4.103309   -1.877994   -0.424310
 H   -2.909228   -1.295888   -1.942212
 H   -1.490915   -3.888646   -0.309800
