39 
5tpb_ligand_dft.xyz
 C   -2.718156   -1.455140    0.842450
 C   -2.273967   -1.352463   -0.618744
 C   -2.689965   -0.062502   -1.326561
 C   -1.881550    1.114606   -0.808137
 C   -0.379073    0.796473   -0.892811
 C   -0.059045   -0.530529   -0.186682
 C    1.353608   -1.081897   -0.404996
 C    2.493225   -0.232623    0.199013
 C    3.686658   -1.100758    0.586062
 C    0.410036    2.351658    0.889109
 C    1.544220    3.301198    1.228180
 N    0.417578    1.923660   -0.417928
 O   -3.992527   -1.059763    1.001483
 O   -2.041398   -1.884970    1.741837
 O   -2.195517    2.235505   -1.603854
 O   -0.888621   -1.566474   -0.727794
 O    1.426696   -2.376548    0.162460
 O    2.922629    0.744047   -0.744111
 O    4.151230   -1.808709   -0.550554
 O   -0.441143    2.024951    1.701036
 H   -2.740996   -2.204520   -1.126381
 H   -2.496541   -0.181594   -2.398216
 H   -3.757722    0.125300   -1.193337
 H   -2.134154    1.301477    0.243559
 H   -0.140956    0.682504   -1.957274
 H   -0.242558   -0.436413    0.889926
 H    1.527135   -1.139615   -1.492464
 H    2.143607    0.309091    1.084139
 H    4.501833   -0.446285    0.907739
 H    3.425543   -1.774243    1.407493
 H    2.509066    2.879628    0.925772
 H    1.538272    3.485827    2.302475
 H    1.414647    4.251809    0.700263
 H    1.316733    2.000935   -0.880006
 H   -4.204747   -1.182591    1.941120
 H   -1.609179    2.947677   -1.315176
 H    0.553478   -2.775898    0.029993
 H    3.510956    0.267338   -1.350445
 H    3.515789   -2.528502   -0.679029
