71 
5tq8_ligand_dft.xyz
 C   -7.122974    2.879193    0.291022
 C   -8.203080    2.445399   -0.468244
 C   -8.120045    1.192953   -1.069123
 C   -5.916849    0.838862   -0.179019
 C   -2.371526   -0.505757   -0.538997
 C   -1.650282   -2.849536    0.434059
 C   -4.856507   -1.292735    0.592720
 C   -0.344406   -3.060183    0.156250
 C    2.812570   -2.140697   -1.298885
 C    3.774270   -4.372319   -0.928470
 C    1.560457   -3.980162    0.067594
 C   -4.963092    1.940140    2.756885
 C   -4.881535    2.589468    1.369796
 C   -5.977446    2.096951    0.448447
 O   -9.299072    3.228329   -0.607007
 F   -9.182631    0.787654   -1.804031
 C   -7.006051    0.393250   -0.934803
 C   -4.731796   -0.057689   -0.058342
 C   -3.497627    0.311691   -0.618411
 C   -2.507558   -1.722099    0.116426
 N   -2.438741   -3.811992    1.150542
 N   -3.618776   -3.380541    1.278040
 C   -3.734054   -2.096148    0.664345
 N    0.419678   -2.113466   -0.563233
 C    1.582964   -2.667984   -0.622361
 N    3.971520   -2.924373   -0.880190
 C    2.779116   -4.834251    0.149445
 N    0.376301   -4.206717    0.532007
 C    4.916570   -2.459221    0.018895
 O    5.548121   -3.218862    0.731123
 C    5.200301   -0.985890    0.005720
 C    5.397528   -0.271818   -1.170272
 N    5.747440    1.010555   -1.189092
 C    5.898251    1.621982   -0.004725
 C    5.718592    0.879506    1.199730
 N    5.385154   -0.392985    1.196148
 N    6.220942    2.942985    0.009055
 C    6.529788    3.671495   -1.215801
 C    5.670529    4.936280   -1.334666
 C    5.500939    5.640439    0.031071
 C    6.554078    5.157123    1.028817
 C    6.396238    3.654808    1.271747
 H   -7.196121    3.849949    0.772455
 H   -1.423718   -0.213224   -0.976546
 H   -5.798909   -1.600896    1.034173
 H    2.949696   -1.086826   -1.053496
 H    2.687331   -2.208742   -2.388449
 H    4.741594   -4.851300   -0.782778
 H    3.403855   -4.625335   -1.929207
 H   -5.935182    2.136954    3.220724
 H   -4.835131    0.855080    2.688108
 H   -4.181592    2.332427    3.415509
 H   -3.894952    2.391610    0.940569
 H   -4.964618    3.677143    1.471079
 H   -9.936262    2.756299   -1.160050
 H   -6.982164   -0.571719   -1.430698
 H   -3.430277    1.261797   -1.140610
 H    3.250019   -4.704676    1.131645
 H    2.520347   -5.891896    0.043508
 H    5.285193   -0.755016   -2.139414
 H    5.865232    1.335416    2.173512
 H    6.361611    2.999189   -2.054875
 H    7.596798    3.932817   -1.214398
 H    4.689818    4.672411   -1.742828
 H    6.147471    5.605304   -2.059506
 H    4.508874    5.418573    0.442868
 H    5.554754    6.727296   -0.083684
 H    6.451979    5.673146    1.988592
 H    7.561030    5.381538    0.657897
 H    7.260125    3.259498    1.826376
 H    5.505705    3.495998    1.894837
