52 
5tqu_ligand_dft.xyz
 C   -0.464870   -2.659944   -1.471242
 C   -0.852046   -0.165036   -1.705427
 C   -2.320838   -0.302289   -1.987398
 C   -4.495646    0.744440   -1.426915
 C   -4.686468   -0.133282    1.028696
 C   -2.216019   -0.194391    1.371927
 C   -0.220895    0.131037    2.065748
 C    1.073517    0.007397    2.562996
 C    1.438954    2.344315    1.986796
 C    0.148183    2.476785    1.485521
 C   -0.659983    1.350583    1.531339
 C   -0.078931    0.960990   -1.696154
 C    1.228840    0.565487   -1.280720
 C    2.440324    1.227597   -1.066350
 C    3.550800    0.542855   -0.615422
 C    3.443129   -0.833629   -0.361128
 C    1.183801   -0.824751   -1.039095
Cl    4.852206   -1.665670    0.265322
Cl    2.547774    2.943781   -1.380974
 C    2.278423   -1.548264   -0.561902
 N   -0.091024   -1.261290   -1.329651
 C   -1.058964   -3.294253   -0.213214
 O   -0.188587   -3.237670    0.878340
 N   -3.048761    0.918880   -1.631745
 C   -4.919886    1.003289    0.024993
 N   -3.386327   -0.806714    0.974295
 N   -1.974677    1.131378    1.110197
 N   -1.232468   -0.825293    1.966077
 C    1.894423    1.127664    2.512273
 H    0.436674   -3.209946   -1.757032
 H   -1.171459   -2.752116   -2.304235
 H   -2.723756   -1.100441   -1.360558
 H   -2.493630   -0.595261   -3.037437
 H   -4.814515   -0.258848   -1.741513
 H   -5.034182    1.453210   -2.065895
 H   -5.420057   -0.920541    0.826757
 H   -4.890920    0.250322    2.038795
 H    1.428387   -0.939243    2.957122
 H    2.111539    3.195245    1.950706
 H   -0.198784    3.412868    1.059834
 H   -0.406561    1.969293   -1.903595
 H    4.487093    1.059183   -0.443373
 H    2.201073   -2.596231   -0.299588
 H   -1.269224   -4.347247   -0.445282
 H   -2.020800   -2.812928    0.011030
 H   -0.457688   -2.459702    1.408894
 H   -2.884844    1.622110   -2.343248
 H   -2.328882    1.495207    0.221232
 H   -5.998416    1.205515    0.045478
 H   -4.436924    1.923033    0.370720
 H   -3.421728   -1.734615    1.377352
 H    2.914338    1.056295    2.877066
