52 
5tqu_ligand_xtb.xyz
 C    0.147867    3.216697    0.264438
 C   -0.503059    1.045983    1.360234
 C   -1.913811    1.455068    1.641844
 C   -4.203445    0.570423    1.651657
 C   -5.038953   -0.478305   -0.521037
 C   -2.642461   -0.523904   -1.155787
 C   -0.552006   -0.830399   -1.530463
 C    0.783356   -0.724479   -1.887755
 C    1.059699   -3.056037   -1.291689
 C   -0.273662   -3.183856   -0.940873
 C   -1.067415   -2.063330   -1.074753
 C    0.106654   -0.139764    1.663753
 C    1.434270   -0.065636    1.180455
 C    2.521208   -0.937603    1.172769
 C    3.710754   -0.551234    0.597906
 C    3.814992    0.717015    0.020451
 C    1.576608    1.213837    0.585312
Cl    5.321707    1.162157   -0.702102
Cl    2.365819   -2.501737    1.872286
 C    2.771149    1.617370   -0.002093
 N    0.389226    1.872095    0.719458
 C   -0.370652    3.279217   -1.189388
 O   -1.671332    2.789632   -1.322923
 N   -2.788517    0.311599    1.488575
 C   -4.982137   -0.584383    1.017225
 N   -3.863923    0.060735   -1.161837
 N   -2.411970   -1.834663   -0.852471
 N   -1.562438    0.102615   -1.558629
 C    1.572999   -1.851636   -1.763354
 H    1.085338    3.774238    0.330097
 H   -0.581972    3.693507    0.922467
 H   -2.233637    2.205887    0.914114
 H   -1.975405    1.906982    2.653707
 H   -4.445362    1.506799    1.140895
 H   -4.500311    0.684162    2.708831
 H   -5.865131    0.179058   -0.800958
 H   -5.248112   -1.466626   -0.944607
 H    1.188104    0.204940   -2.254977
 H    1.713604   -3.910197   -1.200876
 H   -0.672520   -4.121570   -0.582579
 H   -0.323375   -0.983402    2.164306
 H    4.557187   -1.218257    0.585012
 H    2.889307    2.582169   -0.468033
 H    0.325586    2.737141   -1.840259
 H   -0.388677    4.331711   -1.493978
 H   -1.622672    1.802816   -1.435104
 H   -2.498423   -0.437331    2.107288
 H   -3.082983   -2.502930   -0.519234
 H   -6.004339   -0.602176    1.396808
 H   -4.499644   -1.517151    1.315078
 H   -3.798473    1.066272   -1.210218
 H    2.616269   -1.797183   -2.036325
