47 
5tr6_ligand_dft.xyz
 C   -2.017393   -1.125331    0.165564
 C   -1.506715   -2.357524    0.647686
 C   -1.273879    0.121789    0.074057
 C    4.164326   -0.137573    1.394765
 C    5.359045   -1.039346   -0.641531
 C    2.958226   -1.625809   -0.209422
 C    0.427867    2.323099    0.013156
 C   -0.924983    2.510345   -0.061082
 C   -4.717448   -3.511286   -0.090333
 N   -3.501328   -2.735375    0.068886
 C   -3.326587   -1.429427   -0.187537
 N   -2.406039   -3.322571    0.589507
 N    0.074634   -0.028193    0.112355
 C    0.912753    1.011193    0.092652
 N    2.262873    0.748732    0.104677
 C    2.796232   -0.442217    0.768787
 C    5.248962    0.126052    0.344555
 C    4.004038   -1.353738   -1.285254
 N    1.622896   -1.958686   -0.840955
 F    1.302878    3.341302    0.009544
 C   -1.706004    3.791789   -0.140562
 N   -3.062776    3.295612   -0.170111
 C   -3.194055    1.933622   -0.132694
 O   -4.242976    1.321176   -0.183643
 C   -1.792387    1.411870   -0.037340
 H   -0.540007   -2.555262    1.092930
 H    4.454941   -0.998345    2.009057
 H    4.058943    0.709317    2.080888
 H    6.088450   -0.811575   -1.423544
 H    5.726921   -1.931140   -0.117508
 H    3.247802   -2.503446    0.376971
 H   -5.432383   -2.925481   -0.668705
 H   -4.485051   -4.437605   -0.617155
 H   -5.139952   -3.744782    0.889112
 H   -4.110357   -0.793698   -0.569995
 H    2.840409    1.576321    0.161999
 H    2.096598   -0.739501    1.560646
 H    6.207321    0.285664    0.846722
 H    5.034833    1.051393   -0.206856
 H    3.673998   -0.496940   -1.888528
 H    4.090525   -2.219886   -1.951659
 H    0.846956   -1.306207   -0.414332
 H    1.639191   -1.785477   -1.848379
 H    1.353370   -2.933918   -0.705255
 H   -1.451541    4.360347   -1.043032
 H   -1.512957    4.429004    0.730516
 H   -3.873922    3.888420   -0.253952
