50 
5trj_ligand_xtb.xyz
 C   -1.059148   -2.604620   -0.700968
 C   -4.495364   -0.996800   -0.746209
 C   -4.752815   -0.891080    0.612014
 C   -3.832975   -1.349487    1.544750
 C   -2.645451   -1.908163    1.107659
 C   -3.304605   -1.558312   -1.171014
 C    2.509126    1.086469   -0.005009
 C    1.783930    2.385079    0.059135
 C    2.574255    3.506674   -0.194641
 C    2.032140    4.771236   -0.283895
 C    0.400412    2.562180    0.234881
Cl   -6.228224   -0.180263    1.151302
 C    3.935081   -2.976682   -0.324184
 C    3.580872   -1.737077    0.204670
 C    2.254194   -1.313153    0.136628
 C    1.276012   -2.166034   -0.406257
 C    1.646147   -3.404491   -0.903372
 C    2.977058   -3.797143   -0.877088
 C    4.672792   -0.960352    0.879891
 O    4.310033   -0.259987    1.970323
 O    5.822330   -1.051915    0.560666
 N    1.866629   -0.016563    0.526571
 O   -0.014386   -1.681133   -0.401214
 C   -2.368389   -2.014070   -0.251552
 O    3.612925    1.000896   -0.496041
 C    0.663802    4.927258   -0.150438
 C   -0.144504    3.832992    0.100303
 O   -0.360082    1.454922    0.555984
 C   -1.759535    1.479897    0.362045
 C   -2.105651    1.382951   -1.130846
 O   -1.302049    0.579555   -1.820253
 O   -3.017008    1.974732   -1.628692
 H   -0.879565   -3.543996   -0.163419
 H   -1.078607   -2.802986   -1.779211
 H   -5.214673   -0.636218   -1.463119
 H   -4.047824   -1.270067    2.598606
 H   -1.925435   -2.265284    1.829425
 H   -3.102866   -1.634504   -2.228329
 H    3.632065    3.341854   -0.333292
 H    2.665139    5.623189   -0.473828
 H    4.972137   -3.268958   -0.283514
 H    0.914764   -4.062013   -1.344871
 H    3.252126   -4.754362   -1.291059
 H    3.349520   -0.226857    2.079064
 H    0.882051    0.088062    0.737085
 H    0.212269    5.903012   -0.243400
 H   -1.208079    3.986195    0.182513
 H   -2.242442    2.350680    0.810249
 H   -2.136467    0.580207    0.860352
 H   -0.669114    0.092265   -1.256595
