51 
5tt7_ligand_xtb.xyz
 C   -2.009930    4.277035    0.919257
 C   -2.440994    2.962744    0.903730
 C   -1.789377    2.039925    0.093870
 C   -1.565972   -0.416194   -0.036969
 C    0.431931   -1.681241   -0.253237
 C    4.714007   -1.803316   -0.102445
 C    3.588437   -0.302822    1.573531
 C   -1.498788   -2.824781   -0.167908
 C   -0.736285    2.445356   -0.719976
 C    0.822396    4.211391   -1.584612
 C   -0.302225    3.764003   -0.703812
 C   -0.942850    4.672684    0.132965
 N   -2.252303    0.711037    0.091979
 N   -0.209390   -0.480399   -0.113307
 N    1.760444   -1.669293   -0.344607
 C    2.608708   -0.548466   -0.723744
 C    3.942580   -1.110125   -1.225484
 C    4.921339   -0.864324    1.081906
 C    2.891584    0.436311    0.434722
 N    1.646444    1.099544    0.864787
 N   -0.177335   -2.859355   -0.279375
 C   -2.455849   -3.971058   -0.140983
 N   -3.732469   -3.305880   -0.001630
 C   -3.660607   -1.953886    0.055737
 O   -4.557630   -1.149587    0.193225
 C   -2.225756   -1.652024   -0.066469
 H   -2.512084    4.996114    1.546782
 H   -3.275391    2.649135    1.511423
 H    4.180341   -2.694119    0.234883
 H    5.680890   -2.130266   -0.484474
 H    3.765722    0.384078    2.403418
 H    2.947375   -1.112322    1.929145
 H   -0.284914    1.746779   -1.408367
 H    1.553186    4.783730   -1.015906
 H    0.440409    4.863387   -2.368787
 H    1.319219    3.367845   -2.057985
 H   -0.613030    5.699926    0.150122
 H   -3.255343    0.565159    0.230906
 H    2.173112   -2.588456   -0.427132
 H    2.109431    0.002485   -1.532828
 H    4.539590   -0.286953   -1.619606
 H    3.760619   -1.806695   -2.045457
 H    5.570480   -0.038579    0.784417
 H    5.414673   -1.398638    1.893423
 H    3.585174    1.186271    0.036584
 H    1.550261    1.058332    1.873868
 H    1.629463    2.076034    0.592853
 H    0.430460    0.330925    0.189433
 H   -2.397914   -4.559945   -1.062529
 H   -2.251248   -4.643343    0.698967
 H   -4.601261   -3.811039    0.055645
