100 
5ttw_ligand_xtb.xyz
 N   -3.113090    1.959792   -0.739735
 C   -2.667123    1.691939   -2.144791
 C   -1.263709    2.316344   -2.296937
 O   -1.016960    3.254991   -3.008051
 C   -3.691536    2.395050   -3.027524
 C   -4.093242    3.597788   -2.179280
 C   -4.176743    3.004688   -0.779014
 N   -0.358988    1.707549   -1.485868
 C    0.718006    2.488862   -0.894013
 C    1.513379    1.504347   -0.039878
 O    1.430564    1.512167    1.177218
 C    0.085808    3.587555   -0.009269
 O   -0.967967    3.052442    0.762144
 N    2.229867    0.622613   -0.756940
 C    2.820672   -0.608072   -0.236868
 C    3.778209   -0.358775    0.933113
 C    5.099981    0.287711    0.509020
 C    6.063566   -0.701975   -0.159542
 C    7.407049   -0.015124   -0.401065
 N    8.469900   -0.836808   -1.056925
 C    1.691930   -1.599311    0.128926
 O    1.511246   -2.605432   -0.522734
 C    8.066039   -1.232488   -2.418566
 C    9.693243   -0.013528   -1.146204
 C    8.769793   -2.044389   -0.265362
 N    0.955621   -1.252824    1.197793
 C   -0.242293   -1.990300    1.527389
 C   -1.397295   -1.520629    0.640961
 O   -1.404457   -0.433256    0.079374
 C   -0.594604   -1.793879    3.014672
 C   -0.868962   -0.344636    3.314859
 C   -2.129612    0.195124    3.089663
 C    0.141387    0.483363    3.788599
 C   -2.373637    1.536699    3.321347
 C   -0.101296    1.825702    4.026557
 C   -1.357949    2.356739    3.787767
 C   -5.996403   -4.537547   -2.119274
 C   -5.501737   -3.186426   -1.607641
 C   -5.303753   -2.219773   -2.773482
 C   -4.201645   -3.396788   -0.814941
 C   -3.582069   -2.104079   -0.289426
 N   -2.415079   -2.385909    0.534435
 C   -4.539936   -1.222189    0.524751
 O   -4.572800   -0.010531    0.360145
 N   -5.264669   -1.832787    1.461475
 H   -3.513477    1.097906   -0.294980
 H   -2.315117    2.282698   -0.148792
 H   -2.604414    0.616670   -2.320744
 H   -3.246667    2.694953   -3.973451
 H   -4.547179    1.749524   -3.221258
 H   -5.035129    4.035934   -2.495756
 H   -3.318297    4.361176   -2.234204
 H   -4.010667    3.739000    0.006494
 H   -5.140556    2.519996   -0.619874
 H   -0.685746    0.933078   -0.912917
 H    1.325088    2.947096   -1.680140
 H   -0.351293    4.356667   -0.648403
 H    0.849824    4.040778    0.627374
 H   -0.576307    2.504915    1.461508
 H    2.116237    0.663077   -1.758806
 H    3.358126   -1.071573   -1.068698
 H    3.976106   -1.312829    1.424123
 H    3.289061    0.296132    1.651928
 H    5.578836    0.693074    1.401590
 H    4.893996    1.122023   -0.163465
 H    6.182030   -1.558721    0.504039
 H    5.629474   -1.047355   -1.097172
 H    7.802134    0.321354    0.560436
 H    7.244865    0.867909   -1.023780
 H    7.206459   -1.897572   -2.385389
 H    8.883294   -1.756018   -2.911476
 H    7.813188   -0.352593   -3.007491
 H    9.501985    0.891122   -1.720648
 H   10.033844    0.269834   -0.151908
 H   10.487923   -0.572772   -1.636707
 H    7.919937   -2.722634   -0.263604
 H    9.010147   -1.772503    0.760857
 H    9.622915   -2.566953   -0.694476
 H    1.058227   -0.334351    1.618224
 H   -0.042934   -3.047221    1.315319
 H   -1.469013   -2.400425    3.255830
 H    0.245124   -2.149779    3.612917
 H   -2.931603   -0.441918    2.744960
 H    1.118385    0.072107    3.997383
 H   -3.359655    1.940101    3.148836
 H    0.690176    2.454060    4.404003
 H   -1.551674    3.400745    3.978215
 H   -6.140254   -5.237676   -1.299849
 H   -5.280047   -4.965681   -2.816015
 H   -6.944995   -4.421452   -2.635028
 H   -6.264122   -2.767875   -0.941076
 H   -5.130862   -1.205171   -2.421138
 H   -4.464954   -2.530113   -3.392260
 H   -6.194687   -2.207479   -3.394805
 H   -4.396230   -4.080985    0.015802
 H   -3.468729   -3.879147   -1.465714
 H   -3.226693   -1.491901   -1.126523
 H   -2.364135   -3.284717    0.988908
 H   -5.305983   -2.834079    1.543780
 H   -5.911029   -1.286882    2.012320
