14 
5tuo_ligand_xtb.xyz
 S    1.742892   -0.115687   -0.093368
 O    2.209841    0.167057   -1.415889
 O    1.959506   -1.413776    0.464401
 N    2.309737    1.012617    0.987064
 N   -0.542150    1.369603   -0.080406
 N   -1.863198    1.351940   -0.052423
 S   -1.124260   -1.115066    0.037571
 C    0.002417    0.212959   -0.039893
 C   -2.362868    0.155156    0.008993
 N   -3.674815   -0.111537    0.097020
 H    2.604900    1.863692    0.538782
 H    3.007597    0.635298    1.605770
 H   -4.311020    0.650540   -0.066046
 H   -3.998658   -1.050778   -0.047240
