54 
5tv1_ligand_dft.xyz
 C   -1.027104   -0.823081   -0.628258
 C    0.301258   -1.450657   -0.196952
 C    1.441394   -0.517004   -0.584736
 C    1.281214    0.811644    0.148073
 C   -0.006342    1.488534   -0.275560
 C   -1.222456    0.586121   -0.066672
 O   -2.100575   -1.599071   -0.102362
 P   -2.964141   -2.610528   -1.057485
 O   -4.437681   -2.344049   -0.587252
 O   -2.545465   -2.522708   -2.459019
 O   -2.678472   -4.044205   -0.357015
 O    0.328643   -1.586456    1.211287
 P   -0.065749   -2.954517    2.020055
 O    0.846269   -3.204547    3.133160
 O   -1.591074   -2.686031    2.438933
 O   -0.111174   -4.077212    0.888148
 O    2.700050   -1.042472   -0.205051
 P    3.651177   -1.727115   -1.376096
 O    3.788598   -0.544777   -2.443788
 O    5.016386   -1.791014   -0.563799
 O    3.116922   -2.974780   -1.914645
 O    2.357284    1.699057   -0.164415
 P    3.806981    1.512174    0.490795
 O    3.629708    0.638246    1.803894
 O    4.051131    2.981743    1.051006
 O    4.857901    1.048414   -0.458773
 O   -0.132189    2.660539    0.538412
 P   -0.837824    4.022536    0.088544
 O    0.060090    5.083051    0.866966
 O   -2.292026    4.097135    0.362495
 O   -0.534574    4.247741   -1.456917
 O   -2.301885    1.216880   -0.740394
 P   -3.782451    1.401433   -0.099594
 O   -4.665494    0.225553   -0.203752
 O   -3.513538    1.838534    1.407848
 O   -4.300487    2.655084   -0.909071
 H   -1.094776   -0.801947   -1.720970
 H    0.443935   -2.417890   -0.688334
 H    1.418730   -0.340410   -1.667688
 H    1.258913    0.632417    1.226449
 H    0.052366    1.782829   -1.329327
 H   -1.419917    0.517356    1.008588
 H   -4.638660   -1.367183   -0.483204
 H   -3.412322   -4.317278    0.212870
 H   -2.036599   -2.130961    1.776037
 H   -0.989014   -4.215865    0.483079
 H    4.210195    0.240831   -2.037069
 H    5.363196   -0.893746   -0.393110
 H    3.468257   -0.301205    1.590213
 H    4.993819    3.196759    1.089670
 H    0.716008    4.671183    1.447881
 H    0.361583    4.563830   -1.639330
 H   -3.091590    2.722674    1.429574
 H   -3.718598    3.428296   -0.761142
