104 
5tw2_ligand_xtb.xyz
 C    1.699188   -0.668847    0.172740
 C    0.194634   -0.610057    0.422716
 O    1.742468    5.491301    1.389983
 C    3.897413   -5.811878    2.410075
 C    3.008585   -4.604290    2.137575
 C    2.840743   -4.357964    0.639996
 C    1.889619   -3.206292    0.315727
 C    2.383759   -1.858145    0.842055
 C   -0.443253    0.558572   -0.301131
 O    0.192687    1.404638   -0.911055
 C   -2.604951    1.542470   -0.898639
 C   -3.392837    0.891226   -2.051290
 O   -4.358063   -0.073032   -1.662083
 C   -3.929406   -1.399981   -1.520570
 O   -3.431165   -1.710068   -0.251924
 C   -4.369239   -1.597478    0.809746
 C   -3.624706   -1.985664    2.083073
 O   -2.675904   -0.978978    2.364570
 C   -5.602663   -2.477904    0.584574
 O   -5.245281   -3.832113    0.654905
 C   -6.208116   -2.145867   -0.785930
 O   -7.270982   -3.039567   -1.020754
 C   -5.134001   -2.292281   -1.873443
 O   -5.657080   -1.971706   -3.134043
 C   -3.571359    2.264735    0.050494
 O   -4.245645    3.252591   -0.689557
 C   -2.877355    2.872246    1.283154
 O   -3.942372    3.223910    2.154056
 C   -2.015004    4.096965    0.953855
 C   -1.050548    4.437726    2.093808
 C    0.279029    3.684162    1.969852
 C    1.218912    4.449018    1.041296
 N    1.380082    3.908785   -0.178204
 C    2.338295    4.435118   -1.124725
 C    3.685288    3.711249   -1.021436
 C    3.605638    2.258449   -1.499906
 C    4.666880    1.364430   -0.858788
 C    6.081144    1.663794   -1.348840
 C    7.139301    0.893977   -0.547612
 C    6.908151   -0.589955   -0.574568
 C    6.466022   -1.264521    0.555961
 C    6.255301   -2.632188    0.529617
 C    6.474921   -3.345482   -0.635937
 C    6.908634   -2.682627   -1.771835
 C    7.126468   -1.317450   -1.738712
 N   -1.782783    0.588716   -0.199275
 H    1.873743   -0.709557   -0.904251
 H    2.150432    0.254466    0.540511
 H   -0.013369   -0.506058    1.490198
 H   -0.293300   -1.522990    0.078649
 H    4.018329   -5.967661    3.479844
 H    3.463163   -6.711726    1.979511
 H    4.882461   -5.666660    1.971438
 H    3.449495   -3.723016    2.606334
 H    2.027082   -4.766982    2.589761
 H    3.816432   -4.146228    0.198221
 H    2.457643   -5.270280    0.175302
 H    1.788521   -3.142145   -0.770474
 H    0.904214   -3.430796    0.729799
 H    3.457216   -1.780343    0.653812
 H    2.228309   -1.801712    1.921137
 H   -1.933026    2.276502   -1.356299
 H   -3.963320    1.681530   -2.544145
 H   -2.686909    0.442677   -2.761115
 H   -3.093297   -1.607566   -2.206886
 H   -4.703084   -0.552792    0.892248
 H   -3.140785   -2.952507    1.911176
 H   -4.348553   -2.081429    2.900923
 H   -2.181023   -1.236111    3.149517
 H   -6.348537   -2.245794    1.362706
 H   -5.984419   -4.328694    0.274877
 H   -6.570848   -1.105836   -0.784693
 H   -7.442730   -3.039047   -1.971938
 H   -4.807060   -3.336339   -1.917438
 H   -5.718380   -1.006929   -3.182647
 H   -4.297778    1.528702    0.432946
 H   -4.779619    3.751040   -0.058482
 H   -2.263399    2.088248    1.751219
 H   -3.578792    3.720449    2.895458
 H   -1.447007    3.916060    0.042689
 H   -2.685348    4.937560    0.762511
 H   -0.830868    5.506975    2.091787
 H   -1.514154    4.203567    3.057181
 H    0.115369    2.667070    1.613927
 H    0.763785    3.645723    2.947078
 H    0.963411    3.013833   -0.404137
 H    2.473469    5.493552   -0.888556
 H    1.927481    4.334240   -2.132107
 H    4.425026    4.264471   -1.601811
 H    3.994577    3.738072    0.025704
 H    2.622981    1.855490   -1.253806
 H    3.707540    2.223687   -2.586673
 H    4.628181    1.491077    0.226153
 H    4.435517    0.318870   -1.074751
 H    6.286002    2.731370   -1.254213
 H    6.157263    1.399515   -2.405631
 H    7.124530    1.244702    0.486460
 H    8.125599    1.114509   -0.964410
 H    6.290859   -0.714298    1.469943
 H    5.923287   -3.141168    1.423220
 H    6.315210   -4.414021   -0.660053
 H    7.083745   -3.234075   -2.684461
 H    7.476491   -0.808356   -2.625557
 H   -2.249091   -0.162758    0.294142
