109 
5tw5_ligand_dft.xyz
 C   -6.352148   -1.862570    1.052596
 C   -7.584558   -1.247460    0.401528
 C   -4.310026   -1.783446    3.076510
 C   -6.612509   -2.493890    2.414276
 C   -4.317119    6.814787   -0.028413
 C   -5.697732    6.905014   -0.680113
 C   -6.354050    5.541428   -0.920241
 C   -6.703658    4.781275    0.361189
 C   -7.423573    3.449745    0.116075
 C   -6.656139    2.442479   -0.746932
 C   -5.286230    2.095350   -0.169821
 C   -4.581998    0.985016   -0.922777
 O   -5.133943    0.350510   -1.829815
 N   -3.314902    0.722626   -0.532936
 C   -2.561017   -0.500707   -0.857879
 C   -3.304671   -1.786083   -0.469370
 O   -3.390545   -2.028088    0.930666
 C   -4.152737   -1.132499    1.703352
 O   -5.383923   -0.807575    1.139392
 O   -7.460558   -1.116735   -0.991857
 O   -7.236447   -1.557045    3.262808
 C   -5.286978   -2.954164    3.015432
 O   -5.547460   -3.437394    4.317763
 O   -3.066469   -2.189497    3.610096
 C   -2.118132   -0.512155   -2.340780
 O   -3.145448   -0.926764   -3.212592
 C   -0.935162   -1.446181   -2.669216
 O   -1.360208   -2.794183   -2.705958
 C    0.243406   -1.341682   -1.713390
 C    1.496361   -2.047674   -2.230761
 C    2.655146   -1.979319   -1.236126
 C    3.910884   -2.736153   -1.682331
 C    4.510208   -2.269708   -3.015388
 C    4.838980   -0.772795   -3.088276
 C    5.762037   -0.253986   -1.980026
 C    7.120236   -0.953434   -1.914721
 C    8.051294   -0.349632   -0.863397
 C    9.409571   -1.049874   -0.793436
 C   10.331875   -0.533930    0.314489
 C   10.756870    0.932602    0.142269
 C   11.727316    1.372000    1.211959
 C   13.102593    1.191383    1.047938
 C   13.996627    1.553979    2.050690
 C   13.526115    2.104002    3.240034
 C   12.157670    2.287604    3.417130
 C   11.268501    1.923364    2.410309
 H   -5.973089   -2.649712    0.385619
 H   -7.790228   -0.289016    0.899802
 H   -8.443212   -1.902731    0.576075
 H   -4.718897   -1.035170    3.760330
 H   -7.259124   -3.373142    2.262045
 H   -4.370413    6.389734    0.979444
 H   -3.854158    7.803170    0.056665
 H   -3.647264    6.182442   -0.624302
 H   -6.357892    7.522977   -0.056990
 H   -5.604413    7.425310   -1.641149
 H   -7.271900    5.679294   -1.507402
 H   -5.682024    4.934911   -1.543815
 H   -5.794343    4.603037    0.949824
 H   -7.343481    5.416963    0.987722
 H   -8.390162    3.647027   -0.364425
 H   -7.650472    2.984967    1.084860
 H   -6.535047    2.821251   -1.767636
 H   -7.249175    1.527176   -0.837340
 H   -5.394066    1.757825    0.869590
 H   -4.631464    2.976932   -0.153398
 H   -2.945357    1.300527    0.207222
 H   -1.659345   -0.438164   -0.242132
 H   -4.301265   -1.793046   -0.916417
 H   -2.738937   -2.628124   -0.868777
 H   -3.626837   -0.176492    1.808404
 H   -6.695821   -0.555150   -1.204165
 H   -7.174688   -1.935616    4.152176
 H   -4.860684   -3.746390    2.381093
 H   -4.694249   -3.451822    4.774744
 H   -2.610330   -2.652966    2.891693
 H   -1.796730    0.517061   -2.570519
 H   -3.979782   -0.506770   -2.923830
 H   -0.600144   -1.143646   -3.675768
 H   -2.190438   -2.777253   -3.207747
 H    0.466869   -0.280023   -1.533176
 H   -0.042714   -1.782686   -0.749196
 H    1.791991   -1.590481   -3.184357
 H    1.251862   -3.094422   -2.447369
 H    2.322133   -2.392273   -0.274293
 H    2.902714   -0.926103   -1.042542
 H    4.669628   -2.654664   -0.892964
 H    3.672164   -3.804667   -1.763965
 H    3.819989   -2.514683   -3.832204
 H    5.418549   -2.853131   -3.211247
 H    3.906163   -0.193558   -3.070225
 H    5.302766   -0.567227   -4.062232
 H    5.922574    0.821560   -2.133745
 H    5.264871   -0.347793   -1.004661
 H    6.979980   -2.020808   -1.696927
 H    7.603137   -0.903182   -2.901370
 H    7.566977   -0.401289    0.122710
 H    8.189187    0.717578   -1.082076
 H    9.245480   -2.125012   -0.641423
 H    9.916908   -0.951513   -1.763881
 H   11.235677   -1.155241    0.351944
 H    9.839915   -0.649972    1.289813
 H    9.873155    1.580806    0.165040
 H   11.213155    1.057831   -0.848501
 H   13.476658    0.763525    0.120288
 H   15.062805    1.409194    1.901619
 H   14.222570    2.391221    4.022203
 H   11.780619    2.719276    4.339947
 H   10.200451    2.072029    2.553540
