52 
5twj_ligand_xtb.xyz
 N    2.616031    2.051533    0.621365
 C    3.096790    0.718908    0.218589
 C    4.575371    0.826731   -0.153989
 O    5.229887   -0.317584   -0.044375
 O    5.065542    1.863412   -0.513498
 C    2.318163    0.203879   -1.008315
 C    2.462423   -1.297568   -1.179615
 S    1.554140   -2.208529    0.364074
 C    2.587662   -3.677526    0.062806
 C    0.036323   -2.426110   -0.656884
 C   -1.201584   -2.817874    0.144969
 O   -1.430687   -1.939906    1.244174
 C   -2.489694   -2.733528   -0.695178
 O   -3.431110   -3.602668   -0.160354
 C   -2.896283   -1.252359   -0.511653
 O   -4.270252   -1.099680   -0.593334
 C   -2.311066   -0.932448    0.895635
 N   -1.597720    0.340550    0.857052
 C   -0.334426    0.551445    1.234061
 N    0.053218    1.789924    0.972350
 C   -1.015969    2.435111    0.390432
 C   -1.285781    3.730622   -0.113487
 N   -0.410283    4.739652   -0.125608
 N   -2.495850    3.939931   -0.633283
 C   -3.396649    2.980263   -0.661303
 N   -3.268686    1.741243   -0.207349
 C   -2.070832    1.510344    0.317487
 H    3.111095    2.346885    1.460513
 H    2.884125    2.706282   -0.114847
 H    1.136059    2.035612    0.904876
 H    2.975875    0.021389    1.050388
 H    6.160235   -0.220970   -0.310453
 H    2.671109    0.739387   -1.896238
 H    1.261888    0.454635   -0.879835
 H    3.509576   -1.574707   -1.123939
 H    2.067001   -1.610644   -2.141927
 H    2.160425   -4.521390    0.590464
 H    3.580578   -3.462169    0.444973
 H    2.638397   -3.857875   -1.004418
 H    0.260991   -3.199234   -1.387686
 H   -0.113661   -1.478804   -1.171394
 H   -1.089736   -3.815784    0.573337
 H   -2.304743   -2.957363   -1.756115
 H   -4.315181   -3.263895   -0.361354
 H   -2.380833   -0.636880   -1.264857
 H   -4.488807   -0.156217   -0.558892
 H   -3.114994   -0.855370    1.641272
 H    0.271196   -0.213826    1.680698
 H   -0.733655    5.629004   -0.470647
 H    0.475407    4.683776    0.343963
 H   -4.348906    3.232010   -1.104629
 H    0.829613   -3.055159    1.477640
