20 
5ty8_ligand_xtb.xyz
 C   -3.415105   -0.533319   -0.419741
 C   -3.090062    0.722986    0.065590
 C   -1.800923    0.993414    0.486594
 C   -0.829965    0.002529    0.417553
 C   -1.150813   -1.252371   -0.076377
 C   -2.445906   -1.518560   -0.488043
 C    0.582636    0.338407    0.849741
 C    1.226429    1.266244   -0.183289
 O    0.885367    2.362686   -0.518751
 N    2.280475    0.536175   -0.661214
 C    2.409259   -0.695295   -0.017141
 O    3.244324   -1.513745   -0.234406
 O    1.436626   -0.793585    0.893771
 H   -4.422948   -0.742954   -0.745058
 H   -3.842417    1.495196    0.117333
 H   -1.540271    1.972981    0.856570
 H   -0.395017   -2.021415   -0.126035
 H   -2.693721   -2.499002   -0.865832
 H    0.571725    0.811095    1.839067
 H    2.915486    0.843808   -1.381770
