27 
5tyj_ligand_xtb.xyz
Br    1.251603    2.898623   -0.198099
 C    1.106543    0.995845   -0.149815
 C    2.246840    0.234791    0.019429
 C    2.157254   -1.157593    0.036883
 B    3.466371   -2.063755    0.212273
 O    3.541444   -3.306110   -0.305135
 O    4.551166   -1.629782    0.884425
 C    0.899820   -1.736061   -0.098490
 C   -0.248578   -0.961483   -0.244853
 O   -1.422181   -1.627879   -0.418980
 C   -2.621424   -1.028681   -0.101794
 C   -3.701924   -1.284081   -0.937801
 C   -4.944435   -0.760861   -0.632117
 C   -5.115655    0.017267    0.500614
 C   -4.040038    0.258921    1.338168
 C   -2.793410   -0.263945    1.046263
 C   -0.144848    0.425663   -0.285835
 H    3.205291    0.723670    0.113055
 H    2.777630   -3.607268   -0.794361
 H    4.496116   -0.754980    1.265039
 H    0.781281   -2.809446   -0.076255
 H   -3.550818   -1.892802   -1.815655
 H   -5.780725   -0.958370   -1.285480
 H   -6.085275    0.430250    0.733068
 H   -4.169203    0.855301    2.228838
 H   -1.957325   -0.089714    1.708160
 H   -1.019225    1.041811   -0.430704
