22 
5tyl_ligand_dft.xyz
 C    0.344016    1.820071    0.000026
 O   -3.833452    0.774724   -0.000046
 B   -2.920467   -0.249798   -0.000022
 O   -3.262923   -1.578784    0.000009
 C   -1.402042    0.122524    0.000040
 C   -0.434811   -0.859979    0.000036
 C    0.949024   -0.549966    0.000044
 C    1.947645   -1.559388    0.000008
 C    3.278102   -1.230041   -0.000046
 C    3.674201    0.128789   -0.000041
 C    2.732615    1.125480    0.000000
 C    1.347737    0.815331    0.000031
 C   -0.982838    1.483684    0.000000
 H    0.649006    2.863829    0.000015
 H   -4.755452    0.499687   -0.000130
 H   -4.208650   -1.755229    0.000011
 H   -0.731761   -1.906414    0.000049
 H    1.636571   -2.601132    0.000034
 H    4.034097   -2.009652   -0.000118
 H    4.731201    0.378595   -0.000045
 H    3.035631    2.169579    0.000036
 H   -1.739211    2.263181   -0.000035
