90 
5tyr_ligand_xtb.xyz
 C    6.742819   -0.391792    0.046967
 C    5.017594    0.171611   -1.188400
 C    4.177325    0.212677   -2.296799
 C    3.008711    0.944772   -2.225518
 C    2.687326    1.641395   -1.070777
 C    3.502711    1.633123    0.045485
 C   -8.184099   -1.936341   -1.348570
 N    6.184132   -0.523914   -1.103469
 N    7.883734   -0.967932    0.430921
 C   -5.379071    1.941469   -0.129561
 C    1.775686   -2.365076   -0.442419
 C    0.757150   -2.433975    0.499693
 C    1.096560   -2.477842    1.847248
 C   -7.314957    0.505429   -1.000986
 C   -7.132409   -2.656064    0.539380
 C    0.013563    2.984340    1.409068
 C   -1.498892    3.246398    1.351008
 C   -1.878540    3.834959   -0.004451
 C   -1.890200    4.198037    2.479139
 C    0.299873    0.634677    0.568732
 C   -0.935855    0.078236   -0.171497
 C   -1.460908   -1.215437    0.495620
 C   -3.816672   -0.780889    0.900917
 C   10.181476   -1.541593   -0.447178
 C   -0.681836   -2.465596    0.071289
 C    3.102897   -2.345620   -0.049510
 C    2.421368   -2.440782    2.243144
 C    3.428758   -2.376429    1.295068
 C    9.591672   -2.795564    0.133183
 C    4.660917    0.889132   -0.018087
 C   -6.123971   -0.271986    0.929089
 C   -7.371321   -1.164169    0.804577
 C   -8.119901   -0.676580   -0.459302
 C    8.695497   -1.746137   -0.446944
 C   -6.544609    1.026295    0.215082
 N    0.504096    2.052679    0.422226
 N   -2.859456   -1.399813    0.168431
 O   -7.166806   -1.922319   -2.306864
 O    1.475276    3.978055   -0.831393
 O   -0.672753   -0.196008   -1.522455
 O   -8.056727   -3.024661   -0.474077
 O   -3.637484   -0.275920    1.983653
 O   -5.005748   -0.857792    0.270931
 O    0.363600    2.214015   -2.124308
 S    5.866103    0.647365    1.214278
 S    1.174797    2.587439   -0.986646
 H    4.448836   -0.332877   -3.185650
 H    2.323717    0.989951   -3.056656
 H    3.222078    2.188016    0.925723
 H   -9.162721   -2.050897   -1.842596
 H    8.248616   -0.752611    1.345513
 H   -5.746155    2.861798   -0.577623
 H   -4.709535    1.458014   -0.837109
 H   -4.817519    2.187512    0.769399
 H    1.524892   -2.323026   -1.491836
 H    0.315860   -2.546566    2.591208
 H   -6.610520    0.148585   -1.750512
 H   -7.952408    1.266331   -1.447036
 H   -6.107712   -2.821214    0.188221
 H   -7.332274   -3.290698    1.402600
 H    0.290635    2.613452    2.402855
 H    0.544485    3.919248    1.217835
 H   -2.025849    2.298094    1.503352
 H   -1.543215    3.193360   -0.815874
 H   -1.403341    4.804847   -0.134995
 H   -2.956372    3.959097   -0.081366
 H   -2.958938    4.394911    2.450499
 H   -1.362572    5.143794    2.377022
 H   -1.648012    3.768150    3.448360
 H    0.215750    0.419052    1.636265
 H    1.186852    0.123434    0.182363
 H   -1.738732    0.828024   -0.092141
 H   -1.426235   -1.085563    1.581499
 H   10.593202   -0.813446    0.235016
 H   10.705799   -1.601286   -1.387263
 H   -0.737921   -2.544385   -1.014270
 H   -1.178734   -3.331515    0.515643
 H    3.883816   -2.309033   -0.794383
 H    2.670270   -2.471751    3.294009
 H    4.464217   -2.358843    1.603303
 H    9.607431   -2.912198    1.206180
 H    9.710375   -3.721833   -0.405674
 H   -5.840791   -0.097169    1.972738
 H   -7.986986   -1.029607    1.694986
 H   -9.139621   -0.378261   -0.210655
 H    8.181762   -1.930625   -1.379248
 H   -7.233587    1.553744    0.883390
 H   -3.078471   -1.606428   -0.794695
 H   -7.090241   -2.811508   -2.670854
 H   -0.358922    0.630911   -1.938439
