90 
5tys_ligand_xtb.xyz
 C    4.896638    0.273117    1.720772
 C    4.929987   -0.826031    0.872801
 C    6.122989   -1.163101    0.244088
 C   -5.875672    0.860792    0.482456
 C    1.685899    5.011525   -0.795678
 C   -0.916942    2.524067   -0.508750
 C   -0.497601   -3.600964    0.946040
 C    0.696424   -4.386744    1.504695
 C    0.386252   -4.858797    2.922450
 C    1.013938   -5.567979    0.593530
 C    0.608424   -1.832889   -0.394249
 C    1.895950   -2.059938   -1.212921
 C    3.083752   -1.183576   -0.753011
 C   -4.167091    0.295682   -0.778914
 C    2.090225    0.922767    0.182936
 C   -8.601378    2.234205    2.690151
 C   -3.174168    0.420800   -1.747110
 C    3.680203   -1.612210    0.596980
 C    6.044272    1.018579    1.914417
 C    7.251695   -0.398693    0.470710
 C    7.243673    0.707265    1.301274
 C   -9.272827    1.410768    1.628579
 C   -4.306870   -0.928001   -0.075938
 C   -2.339903   -0.652936   -1.988721
 C    1.349042    3.130344    0.642648
 C   -2.490852   -1.836005   -1.278288
 C   -0.055075    3.576511    0.197649
 C   -3.468082   -1.996271   -0.314357
 C    0.197508    4.658754   -0.874573
 C   -0.275860    3.970780   -2.170739
 C   -7.818024    1.201876    1.942299
 C    3.667744    4.219165    0.618259
 C    2.163128    4.429578    0.541003
 F    5.995621    2.090550    2.729463
 F    8.402792   -0.738796   -0.140331
 N   -5.061005    1.259840   -0.430515
 N   -0.205488   -3.027711   -0.347333
 N   -6.829106    1.631207    1.013788
 N    2.747526    0.225949   -0.767636
 O    0.785311    3.327457   -2.811889
 O   -0.683590   -2.979781   -2.797644
 O    1.706989   -1.760692   -2.571527
 O   -1.270939    3.066481   -1.773704
 O    1.747224    0.523560    1.274056
 O    1.901576    2.180492   -0.257488
 O   -2.027311   -4.429597   -1.331113
 S   -5.631372   -0.817784    1.050124
 S   -1.352177   -3.184699   -1.537639
 H    3.984844    0.551302    2.223728
 H    6.182897   -2.014638   -0.415186
 H    2.214459    4.517125   -1.608769
 H    1.855819    6.084442   -0.860446
 H   -0.363885    1.587718   -0.647904
 H   -1.848066    2.308506    0.017454
 H   -1.332538   -4.285445    0.792291
 H   -0.799202   -2.817246    1.654931
 H    1.562909   -3.717924    1.537110
 H   -0.488977   -5.504343    2.922706
 H    0.191772   -4.012953    3.578000
 H    1.226357   -5.418864    3.325380
 H    1.144889   -5.227415   -0.430365
 H    1.921031   -6.072213    0.919089
 H    0.194008   -6.281894    0.605536
 H    0.041730   -1.017351   -0.859359
 H    0.852561   -1.531445    0.624318
 H    2.186256   -3.116736   -1.094284
 H    3.852230   -1.308845   -1.524563
 H   -8.402520    3.272984    2.474841
 H   -8.842559    2.043732    3.723696
 H   -3.064042    1.353745   -2.274539
 H    3.909866   -2.677048    0.543315
 H    2.957376   -1.436271    1.390574
 H    8.130738    1.296192    1.463791
 H   -9.975044    0.649724    1.928577
 H   -9.523348    1.893754    0.696709
 H   -1.574257   -0.602567   -2.746807
 H    1.343476    2.692974    1.646633
 H   -0.575079    3.989335    1.062698
 H   -3.569004   -2.936178    0.202532
 H   -0.436762    5.529755   -0.702779
 H   -0.761844    4.675287   -2.865994
 H   -7.524153    0.295564    2.455410
 H    4.182911    5.170263    0.510350
 H    3.996049    3.553416   -0.175825
 H    3.944923    3.783388    1.575402
 H    1.843399    5.082209    1.359822
 H   -6.941427    2.543138    0.594829
 H    2.812791    0.688739   -1.661280
 H    0.416397    2.696355   -3.440150
 H    0.902131   -2.229317   -2.869984
