90 
5tys_ligand_dft.xyz
 C   -5.009723   -0.813651   -2.067427
 C   -4.762660   -1.715095   -1.031545
 C   -5.821448   -2.431915   -0.470744
 C    6.679409    0.871701   -1.105111
 C   -2.735377    4.774777    1.192925
 C   -0.053718    2.667256   -0.203276
 C    0.977995   -2.983923   -0.077976
 C   -0.042450   -4.116697   -0.235996
 C    0.330101   -4.977470   -1.444367
 C   -0.139470   -4.952088    1.039723
 C   -0.505795   -1.083877    0.603211
 C   -1.769373   -1.332588    1.446164
 C   -3.110057   -1.026400    0.755434
 C    4.735252    1.006102   -0.093771
 C   -2.782539    1.147445   -0.454865
 C   10.180758    0.747442   -2.323075
 C    3.567968    1.585988    0.414179
 C   -3.362668   -1.887438   -0.493873
 C   -6.309855   -0.648094   -2.517273
 C   -7.104006   -2.232097   -0.956306
 C   -7.383495   -1.343924   -1.983063
 C    9.696367   -0.357728   -1.430062
 C    4.963383   -0.371509    0.111922
 C    2.654851    0.802110    1.099669
 C   -2.479331    3.531826   -0.843234
 C    2.907885   -0.563516    1.280697
 C   -1.059640    3.796276   -0.321456
 C    4.063100   -1.171794    0.797944
 C   -1.286095    4.242146    1.143523
 C   -0.945354    2.967170    1.966512
 C    8.731687    0.353813   -2.347403
 C   -4.744375    4.707796   -0.434784
 C   -3.230455    4.744724   -0.274350
 F   -6.545952    0.220182   -3.511287
 F   -8.116858   -2.926726   -0.417757
 N    5.715572    1.681669   -0.789687
 N    0.577918   -2.016272    0.944891
 N    7.795997    1.265222   -1.767923
 N   -3.329554    0.388474    0.527051
 O   -2.063118    2.334154    2.495381
 O    0.977483   -0.740994    3.042046
 O   -1.756602   -0.570523    2.644338
 O   -0.280693    2.080098    1.071779
 O   -2.153971    0.761164   -1.428059
 O   -3.106902    2.425813   -0.198979
 O    2.364369   -2.798876    2.514256
 S    6.499329   -0.819974   -0.602320
 S    1.695488   -1.582574    2.084202
 H   -4.203247   -0.237709   -2.508421
 H   -5.660498   -3.144196    0.332347
 H   -3.354750    4.116454    1.806954
 H   -2.791620    5.781646    1.615842
 H   -0.160059    1.889437   -0.960587
 H    0.968835    3.068828   -0.246102
 H    1.939021   -3.418116    0.211430
 H    1.121283   -2.462150   -1.035451
 H   -1.022343   -3.661293   -0.435426
 H    1.313512   -5.442551   -1.302157
 H    0.365095   -4.386034   -2.366257
 H   -0.399514   -5.780911   -1.587691
 H   -0.371769   -4.329261    1.908475
 H   -0.914420   -5.720255    0.945036
 H    0.814169   -5.452923    1.243956
 H   -0.200674   -0.043650    0.739110
 H   -0.711049   -1.212600   -0.461100
 H   -1.789225   -2.404504    1.696215
 H   -3.871864   -1.303864    1.493067
 H   10.425817    1.695096   -1.853989
 H   10.783074    0.494795   -3.189271
 H    3.400296    2.647985    0.271498
 H   -3.204610   -2.934382   -0.209496
 H   -2.640754   -1.640203   -1.274258
 H   -8.391437   -1.202675   -2.352571
 H    9.955495   -1.382411   -1.674561
 H    9.613698   -0.145272   -0.369335
 H    1.744834    1.240537    1.497461
 H   -2.537273    3.413706   -1.929328
 H   -0.651093    4.609744   -0.930491
 H    4.246421   -2.224747    0.981594
 H   -0.564158    5.015515    1.421145
 H   -0.235839    3.197071    2.774357
 H    8.377452   -0.196792   -3.218830
 H   -5.198517    5.594724    0.019477
 H   -5.163853    3.822306    0.050273
 H   -5.031043    4.686370   -1.491977
 H   -2.839705    5.628554   -0.797023
 H    7.739450    2.202008   -2.144344
 H   -3.612335    0.932574    1.329353
 H   -1.835201    1.392345    2.632180
 H   -0.872690   -0.684474    3.042071
