70 
5tzd_ligand_xtb.xyz
 P   -0.506897   -1.521615   -2.693167
 O   -0.171603   -2.596202   -3.812724
 O   -0.919944   -0.209787   -3.168478
 O    0.772905   -1.495681   -1.752492
 C    1.359686   -2.744278   -1.408516
 C    2.506950   -2.529299   -0.426489
 O    3.602350   -1.901010   -1.072907
 C    2.175897   -1.633817    0.776772
 O    1.612673   -2.354928    1.851032
 C    3.561055   -1.053068    1.105608
 O    4.395082   -2.007414    1.703656
 C    4.051761   -0.792866   -0.320690
 N    3.502962    0.430194   -0.862812
 C    3.539009    0.776406   -2.197900
 N    2.914199    1.872844   -2.467595
 C    2.426447    2.318669   -1.265450
 C    1.606510    3.438373   -0.932370
 O    1.047383    4.245942   -1.663860
 N    1.393984    3.512978    0.448393
 C    1.699686    2.536544    1.352267
 N    1.268296    2.690678    2.613629
 N    2.416528    1.485365    1.036423
 C    2.778950    1.416742   -0.255577
 P    0.506963   -1.521593    2.693170
 O    0.171704   -2.596151    3.812732
 O    0.919966   -0.209762    3.168477
 O   -0.772823   -1.495693    1.752514
 C   -1.359571   -2.744294    1.408548
 C   -2.506855   -2.529371    0.426509
 O   -3.602279   -1.901113    1.072912
 C   -2.175845   -1.633879   -0.776763
 O   -1.612596   -2.355016   -1.851006
 C   -3.561022   -1.053190   -1.105602
 O   -4.394991   -2.007576   -1.703650
 C   -4.051740   -0.793001    0.320684
 N   -3.503001    0.430086    0.862800
 C   -3.539070    0.776313    2.197885
 N   -2.914308    1.872767    2.467574
 C   -2.426560    2.318607    1.265430
 C   -1.606643    3.438328    0.932351
 O   -1.047540    4.245914    1.663843
 N   -1.394107    3.512929   -0.448409
 C   -1.699765    2.536475   -1.352275
 N   -1.268376    2.690615   -2.613642
 N   -2.416566    1.485272   -1.036427
 C   -2.779018    1.416652    0.255574
 H   -0.468591   -2.280810   -4.666169
 H    0.603724   -3.400833   -0.967138
 H    1.755873   -3.215246   -2.311494
 H    2.835170   -3.514271   -0.061103
 H    1.509107   -0.820175    0.476168
 H    3.485985   -0.140664    1.704931
 H    3.905221   -2.409587    2.431916
 H    5.146381   -0.776740   -0.389376
 H    4.042607    0.162338   -2.916255
 H    0.794770    4.268262    0.786610
 H    1.277891    1.841113    3.162274
 H    0.490041    3.323828    2.760828
 H    0.468682   -2.280773    4.666183
 H   -1.755762   -3.215275    2.311521
 H   -0.603604   -3.400847    0.967169
 H   -2.835042   -3.514371    0.061122
 H   -1.509071   -0.820214   -0.476160
 H   -3.485975   -0.140803   -1.704930
 H   -3.905117   -2.409744   -2.431907
 H   -5.146352   -0.776927    0.389366
 H   -4.042678    0.162243    2.916237
 H   -0.794921    4.268233   -0.786627
 H   -1.277929    1.841045   -3.162274
 H   -0.490141    3.323793   -2.760831
