43 
5tzw_ligand_dft.xyz
 N   -5.629634    0.748933   -0.418662
 C   -5.007795   -0.426825   -0.613227
 C   -2.864263    0.411777    0.114342
 C   -4.444377   -2.389261   -1.052181
 C   -5.561307    3.070491    0.237947
 C    0.316475   -1.142645    1.624051
 C    1.547227    0.823423   -0.617317
 C    3.745843   -0.356981   -1.025815
 C    5.119283   -0.403970   -0.878766
 C    5.076126    1.600805    0.459802
 C    5.782089    0.567718   -0.133717
 C    3.695836    1.661178    0.303203
 C    3.026006    0.678624   -0.423576
 C   -3.499168    1.606402    0.306339
 C   -4.891797    1.742425    0.027651
 C   -1.169368   -0.907309    1.448083
 C   -0.632813   -0.173688   -0.913308
 C    1.050267   -1.417039    0.314111
 C   -1.406132    0.175175    0.376628
 N   -5.512554   -1.572596   -1.057390
 N   -3.289806   -1.873477   -0.642965
 N   -3.654322   -0.598771   -0.356533
 N    0.787941   -0.336431   -0.625470
 O    1.051372    1.918846   -0.824494
 F    7.107318    0.490620   -0.005806
 F    5.828828   -1.378140   -1.453671
 F    0.885938   -0.031908    2.196502
 F    0.530064   -2.182254    2.476715
 H   -4.498925   -3.423921   -1.363079
 H   -5.156880    3.816100   -0.456002
 H   -6.634094    2.972886    0.066784
 H   -5.387622    3.439691    1.254272
 H    3.253258   -1.115590   -1.625274
 H    5.617917    2.346541    1.030836
 H    3.127975    2.473784    0.741840
 H   -2.932940    2.455343    0.672090
 H   -1.594593   -0.609462    2.411080
 H   -1.631595   -1.848844    1.138846
 H   -0.746086    0.623027   -1.647863
 H   -1.008151   -1.110901   -1.334292
 H    2.114419   -1.510110    0.527736
 H    0.691078   -2.362037   -0.105864
 H   -0.998235    1.122459    0.742828
