43 
5tzw_ligand_xtb.xyz
 N   -5.616637    0.630452   -0.378506
 C   -4.960167   -0.494914   -0.574847
 C   -2.870931    0.438865    0.155459
 C   -4.299474   -2.429296   -1.016233
 C   -5.719787    2.926001    0.282187
 C    0.341191   -1.088900    1.584564
 C    1.554722    0.875896   -0.821564
 C    3.758796   -0.287154   -1.133920
 C    5.115207   -0.372440   -0.881305
 C    4.974063    1.494839    0.627496
 C    5.722471    0.512616    0.003111
 C    3.619427    1.590773    0.366389
 C    3.005127    0.695726   -0.501087
 C   -3.564292    1.605223    0.352604
 C   -4.949146    1.666936    0.072486
 C   -1.153732   -0.859101    1.424160
 C   -0.666035   -0.064728   -0.900297
 C    1.057953   -1.305933    0.243262
 C   -1.404375    0.266460    0.409965
 N   -5.388545   -1.662909   -1.017704
 N   -3.187078   -1.844918   -0.603031
 N   -3.581922   -0.604471   -0.312882
 N    0.750847   -0.214411   -0.644233
 O    1.131481    1.921115   -1.268421
 F    7.037146    0.421176    0.249990
 F    5.839762   -1.320676   -1.495157
 F    0.916426   -0.026656    2.227210
 F    0.571524   -2.156246    2.398264
 H   -4.312499   -3.454407   -1.327528
 H   -5.079940    3.727145    0.639000
 H   -6.190838    3.222729   -0.652467
 H   -6.517592    2.748416    1.000506
 H    3.310823   -0.974971   -1.834439
 H    5.464722    2.175523    1.304433
 H    3.028149    2.359381    0.837663
 H   -3.047768    2.476018    0.720842
 H   -1.578794   -0.606130    2.397873
 H   -1.603724   -1.788430    1.068708
 H   -0.788199    0.748884   -1.617574
 H   -1.052433   -0.997743   -1.318758
 H    2.130613   -1.372707    0.428244
 H    0.701939   -2.248428   -0.185026
 H   -1.002795    1.206002    0.803054
