75 
5tzy_ligand_dft.xyz
 O    1.367582   -0.476702   -0.836775
 C   -3.399296   -2.529553   -0.588989
 C   -3.713980   -1.515817    0.543546
 C   -2.162188    0.483933    0.470052
 C   -3.355309   -0.112067    0.084604
 C   -4.191201    0.592145   -0.788821
 C   -3.827623    1.845161   -1.263071
 C   -2.620453    2.445175   -0.896426
 O   -0.973849   -2.334380   -0.363243
 O   -0.578452    2.207156    0.388711
 C   -1.962062   -2.434850   -1.062841
 C   -3.699930   -3.983604   -0.194977
 C   -3.095967   -1.901037    1.876913
 C   -3.916892   -2.636056    2.902852
 C   -3.544564   -1.197101    3.129466
 C   -2.200347    3.803360   -1.409447
 C   -0.707577    4.049149   -1.169206
 C   -0.349677    3.611470    0.246539
 C    1.094577    3.879102    0.684473
 C    1.313995    3.566496    2.174569
 C    1.262642    2.068299    2.507094
 C    2.821600    1.976843    0.606384
 C    2.157014    3.123938   -0.156048
 C    2.181610   -0.168411    1.830330
 C    2.987674   -0.934346    0.802720
 C    2.550561   -1.138242   -0.508847
 C    3.265558   -1.931834   -1.396030
 C    4.443328   -2.539544   -0.976534
 C    4.879322   -2.340459    0.322402
 C    4.169248   -1.547725    1.211290
 C    1.097135   -0.138522   -2.118332
 C    0.952264   -0.969701    2.264081
 F    0.858674   -1.206357   -2.896722
 F    0.018627    0.621785   -2.112606
 F    2.106274    0.541758   -2.673800
 F    6.007607   -2.915913    0.733129
 N    1.773378    1.218898    1.364449
 C   -1.807429    1.731497   -0.021241
 O   -1.876025   -2.516375   -2.397047
 H   -4.023169   -2.270279   -1.450203
 H   -4.805636   -1.548317    0.666618
 H   -1.493345   -0.020616    1.156076
 H   -5.135027    0.153330   -1.101790
 H   -4.490506    2.376073   -1.941510
 H   -4.734752   -4.069499    0.149444
 H   -3.043394   -4.319119    0.611865
 H   -3.569396   -4.650075   -1.052458
 H   -2.047290   -2.179340    1.824712
 H   -3.428198   -3.398125    3.501748
 H   -4.953555   -2.856686    2.663710
 H   -2.803609   -0.970574    3.890449
 H   -4.326275   -0.448301    3.033669
 H   -2.784975    4.583353   -0.904828
 H   -2.428051    3.888661   -2.476663
 H   -0.115790    3.474439   -1.889984
 H   -0.464462    5.107570   -1.306291
 H   -1.016060    4.131722    0.951911
 H    1.244502    4.955705    0.555088
 H    2.283305    3.975422    2.477239
 H    0.562602    4.071726    2.788623
 H    0.242683    1.744372    2.702986
 H    1.883375    1.842566    3.377891
 H    3.316995    1.293456   -0.080413
 H    3.560301    2.316970    1.337000
 H    1.711829    2.715912   -1.067461
 H    2.949539    3.804765   -0.477369
 H    2.831803    0.012783    2.691165
 H    2.918763   -2.088545   -2.408473
 H    5.018756   -3.164168   -1.649648
 H    4.546307   -1.421135    2.221075
 H    0.318661   -1.220667    1.407641
 H    0.361106   -0.449593    3.022739
 H    1.297923   -1.909303    2.701906
 H    0.967851    1.122139    0.725218
 H   -0.933328   -2.474151   -2.625045
