31 
5u0f_ligand_xtb.xyz
 C    1.389054   -0.953290    1.188074
 C    2.633653   -1.432273    0.811742
 C    3.014116    0.622726   -0.382913
 C    0.938860    0.293847    0.802588
 C    3.454491   -0.638839    0.023386
 C    1.767664    1.089021   -0.007860
 C   -2.746891    1.311131    0.423692
 C   -3.352242   -0.865080   -0.297027
 C   -1.384209    0.790995    0.014354
 C    5.205146   -2.246702   -0.054707
 C    2.059251    3.169390   -1.135528
 C   -0.416014    0.797181    1.206253
 N   -3.703076    0.347085    0.232570
 O   -2.967317    2.400876    0.879694
 O    4.696064   -0.983466   -0.411039
 O    1.255438    2.297582   -0.376443
 S   -4.405939   -2.074980   -0.557947
 S   -1.639292   -0.891306   -0.642366
 H    0.755035   -1.573656    1.804049
 H    2.941588   -2.411647    1.138111
 H    3.682061    1.203698   -0.996511
 H   -0.965464    1.412574   -0.780228
 H    5.299446   -2.350149    1.030873
 H    4.579820   -3.055804   -0.444825
 H    6.193040   -2.304062   -0.508765
 H    2.980683    3.427853   -0.605854
 H    1.460728    4.067787   -1.279021
 H    2.308025    2.739132   -2.110596
 H   -0.821500    0.176130    2.007146
 H   -0.348123    1.830044    1.555417
 H   -4.670870    0.520507    0.477209
