31 
5u0f_ligand_dft.xyz
 C    1.479716   -0.927108    1.237178
 C    2.735763   -1.401709    0.854941
 C    3.047295    0.622706   -0.438260
 C    0.984070    0.295470    0.811149
 C    3.518073   -0.617512    0.013342
 C    1.795577    1.069805   -0.043044
 C   -2.746916    1.298084    0.505182
 C   -3.437385   -0.837351   -0.304947
 C   -1.395367    0.749685    0.068316
 C    5.277325   -2.204518   -0.039222
 C    2.025189    3.094023   -1.272369
 C   -0.378259    0.788980    1.221537
 N   -3.752811    0.377985    0.248433
 O   -2.930238    2.375109    1.016950
 O    4.751722   -0.956519   -0.434390
 O    1.256390    2.253753   -0.438100
 S   -4.514685   -2.021527   -0.649716
 S   -1.704806   -0.933913   -0.577759
 H    0.865822   -1.539534    1.892444
 H    3.077090   -2.362842    1.218739
 H    3.689352    1.198674   -1.092862
 H   -1.025842    1.378728   -0.746415
 H    5.401142   -2.262653    1.049602
 H    4.640319   -3.032185   -0.375774
 H    6.254180   -2.284530   -0.517185
 H    2.964967    3.383570   -0.787097
 H    1.418041    3.983089   -1.444796
 H    2.244749    2.610290   -2.232042
 H   -0.755480    0.185886    2.054121
 H   -0.332167    1.830282    1.557778
 H   -4.714105    0.590289    0.485566
