31 
5u0g_ligand_dft.xyz
 C    1.293184   -1.037591    1.136502
 C    2.604438   -1.343627    0.765993
 C    2.728840    0.800076   -0.354670
 C    0.679056    0.155493    0.789243
 C    3.319475   -0.414940    0.017097
 C    1.424817    1.077395    0.025924
 C   -3.120502    0.835824    0.439567
 C   -3.636210   -1.296496   -0.514930
 C   -1.719877    0.412977    0.008436
 C    5.247006   -1.790921   -0.091505
 C    1.460143    3.204428   -1.042458
 C   -0.738026    0.470347    1.190005
 N   -4.053852   -0.123448    0.103528
 O   -3.378137    1.869753    1.008765
 O   -4.360256   -2.198843   -0.839078
 O    4.595815   -0.581126   -0.409598
 O    0.770410    2.224403   -0.296796
 S   -1.866598   -1.250532   -0.741444
 H    0.731422   -1.761532    1.721005
 H    3.038246   -2.289637    1.065426
 H    3.323637    1.489927   -0.940227
 H   -1.386296    1.117401   -0.758141
 H    6.240967   -1.721034   -0.534702
 H    4.720620   -2.654608   -0.516927
 H    5.342937   -1.923671    0.993587
 H    2.345584    3.564227   -0.504590
 H    0.757168    4.027100   -1.176096
 H    1.763090    2.819334   -2.023978
 H   -1.068014   -0.230836    1.963978
 H   -0.810279    1.481788    1.603483
 H   -5.033276    0.002904    0.324023
