34 
5u13_ligand_xtb.xyz
 C   -0.653682    1.870697   -0.370063
 O    0.538976    2.016189   -0.553944
 N   -0.819477   -0.666277   -0.522603
 S   -1.754146   -3.167733   -0.457648
 C    2.560305    0.650212    1.030147
 C    3.354260    0.620244   -0.117822
 C    3.360940   -0.536609   -0.909761
 C    2.512671   -1.579938   -0.634916
 C    3.952521    2.902827    0.047259
 N   -3.084771   -0.870690   -0.156472
 C   -1.307153    0.535338   -0.414263
 O    0.107994   -2.664358    1.842330
 N   -3.466963    1.483761    0.137152
 C   -1.913822   -1.491388   -0.351448
 O    4.137287    1.628159   -0.534647
 C   -2.743903    0.413816   -0.108866
 N   -1.504128    2.835966    0.004016
 C   -2.815778    2.747792    0.159556
 N   -3.626869    3.725160    0.339513
 C    0.062186   -3.270625   -0.461217
 C    0.608261   -2.496960    0.753886
 C    1.659594   -1.522556    0.471832
 C    1.740686   -0.414471    1.321274
 H    2.558454    1.510677    1.678453
 H    4.018761   -0.563492   -1.764193
 H    2.530773   -2.452290   -1.271232
 H    2.897501    3.186590    0.017206
 H    4.318928    2.929390    1.078083
 H    4.538214    3.591360   -0.559502
 H   -4.476329    1.469731    0.226505
 H   -3.164536    4.626820    0.369605
 H    0.417852   -2.859383   -1.401270
 H    0.300462   -4.331338   -0.380208
 H    1.105140   -0.389986    2.194169
