32 
5u4a_ligand_xtb.xyz
 C    4.026324    0.322028    0.179224
 C    3.259504   -0.727875   -0.321343
 C    1.882708   -0.636945   -0.424632
 C    1.198775    0.520832   -0.043488
 O    6.303671    0.869814    1.257145
 C    1.978342    1.585304    0.420467
 C    3.347120    1.485749    0.545331
 C   -4.586659    1.169126   -0.531167
 C   -5.386795    0.248173    0.132461
 C   -4.795978   -0.821665    0.791250
 C   -3.415803   -0.966012    0.786816
 C   -0.244498    0.700770   -0.110125
 C   -1.164891   -0.229566    0.167511
 C   -2.604639   -0.036663    0.136019
 C   -3.205919    1.031414   -0.528141
 O   -5.609451   -1.706689    1.424907
 O   -5.202848    2.195527   -1.175272
 O    6.341740   -0.579776   -0.517176
Cl    1.048886   -1.988401   -1.121439
 B    5.613047    0.198321    0.310473
 H    3.738501   -1.647410   -0.627061
 H    5.783307    1.405302    1.853572
 H    1.478520    2.500316    0.705140
 H    3.904987    2.336377    0.912976
 H   -6.457473    0.359225    0.129327
 H   -2.961887   -1.803065    1.300917
 H   -0.554569    1.712094   -0.339106
 H   -0.845998   -1.210554    0.490454
 H   -2.600741    1.748485   -1.064286
 H   -5.080465   -2.402471    1.833629
 H   -4.544406    2.755124   -1.604457
 H    5.853475   -1.041254   -1.196929
