33 
5u4e_ligand_xtb.xyz
 C    4.985820    1.119950    0.482574
 C    4.580979   -0.026334   -0.199583
 C    3.228203   -0.332936   -0.282102
 C    2.259357    0.503626    0.270271
 C    2.687971    1.648126    0.948321
 C    4.033316    1.942732    1.059252
 C    0.857226    0.144029    0.137538
 C   -0.170101    0.990168    0.273956
 C   -1.580386    0.665516    0.114976
 C   -2.178581   -0.533078    0.515937
 C   -3.526950   -0.766043    0.317468
 C   -4.343661    0.183082   -0.292776
 C   -3.758048    1.390716   -0.675122
 C   -2.417082    1.625342   -0.465218
 C    5.541573   -0.973571   -0.836253
 O   -6.373906   -1.294411   -0.117552
 O   -6.619823    0.854817   -1.135378
 O    6.746181   -0.470863   -1.170640
 O    5.276712   -2.121839   -1.062938
Cl   -1.275033   -1.753069    1.350947
 B   -5.876630   -0.103606   -0.529421
 H    6.033349    1.360562    0.611087
 H    2.940817   -1.236476   -0.799328
 H    1.964711    2.298191    1.415781
 H    4.347192    2.820474    1.604986
 H    0.675615   -0.884910   -0.136710
 H    0.023576    2.041110    0.450139
 H   -3.962090   -1.697814    0.642558
 H   -4.376443    2.144792   -1.136473
 H   -1.981793    2.566431   -0.770453
 H   -7.304703   -1.462358   -0.268967
 H   -7.548529    0.667118   -1.276908
 H    6.815886    0.473495   -0.978084
