33 
5u4e_ligand_dft.xyz
 C    5.010314    1.199573   -0.412652
 C    4.625281    0.029421    0.244855
 C    3.274980   -0.306868    0.321733
 C    2.293740    0.495017   -0.266279
 C    2.703073    1.649902   -0.948547
 C    4.043822    2.004897   -1.007623
 C    0.882271    0.095117   -0.152335
 C   -0.161083    0.926310   -0.271909
 C   -1.589986    0.601475   -0.123218
 C   -2.224917   -0.586946   -0.518118
 C   -3.585959   -0.785470   -0.317382
 C   -4.379992    0.193875    0.283631
 C   -3.763715    1.391299    0.663881
 C   -2.408671    1.585935    0.455214
 C    5.608074   -0.887335    0.911755
 O   -6.436570   -1.244475    0.103567
 O   -6.634019    0.958794    1.095707
 O    6.872354   -0.864555    0.433827
 O    5.318571   -1.617608    1.822860
Cl   -1.358224   -1.871825   -1.341232
 B   -5.911357   -0.045935    0.507922
 H    6.051263    1.513040   -0.439594
 H    2.997631   -1.209006    0.858944
 H    1.966095    2.269130   -1.450893
 H    4.340181    2.912023   -1.524909
 H    0.712908   -0.950998    0.084246
 H    0.032691    1.988177   -0.419414
 H   -4.034414   -1.718661   -0.642110
 H   -4.355679    2.175828    1.125310
 H   -1.946760    2.522051    0.758387
 H   -7.379675   -1.355265    0.258413
 H   -7.570111    0.773051    1.218495
 H    6.906394   -0.363149   -0.391260
