70 
5u4x_ligand_xtb.xyz
 C    2.784434   -0.593132    2.734999
 C    1.778177   -1.298474    1.819381
 C    0.412746   -0.676911    1.919437
 N    4.585736   -1.106716    1.194511
 C   -1.798782   -0.991651    2.368780
 C   -2.101318    0.343831    2.170608
 N   -0.580107   -1.489556    2.256714
 C   -1.072049    1.204931    1.802940
 C   -1.320193    2.676018    1.569861
 C   -3.591447    3.674342    1.587755
 C   -2.782096    2.564494   -0.405107
 N   -2.562267    2.951963    0.876343
 C   -1.636737    1.832631   -1.037144
 C   -0.585682    2.523890   -1.624121
 C    0.466384    1.818824   -2.183978
 O   -3.824668    2.784806   -0.990950
 C   -1.651081    0.446790   -1.036432
 C   -0.586821   -0.256190   -1.586505
 O   -0.474671   -1.615543   -1.530326
 C   -1.580547   -2.387237   -1.245778
 C   -2.766139   -2.261966   -1.960886
 C   -3.825987   -3.103485   -1.677597
 C   -3.708803   -4.069954   -0.692534
 C   -2.522112   -4.197569    0.009506
 C   -1.456171   -3.360052   -0.262115
 C    0.476361    0.438699   -2.157163
 C    0.202878    0.676907    1.670933
 C    4.165877   -1.222562    2.579126
 C    2.302013   -1.259910    0.379753
 C    3.704292   -1.857184    0.317240
 C    3.540703    2.008418   -0.108286
 C    2.867583    2.950227    0.522105
 N    3.679062    1.293190   -3.521169
 C    4.427349    0.061883   -3.321679
 H    2.459883   -0.665135    3.774753
 H    2.851097    0.459296    2.461812
 H    1.682051   -2.342879    2.136159
 H    5.540655   -1.437537    1.092794
 H   -2.568896   -1.704542    2.635050
 H   -3.114072    0.699637    2.279035
 H   -0.472837    3.095889    1.016878
 H   -1.369450    3.180464    2.540032
 H   -3.881195    3.144797    2.497658
 H   -3.244648    4.676175    1.852808
 H   -4.452925    3.756320    0.926886
 H   -0.595753    3.603958   -1.642231
 H    1.296136    2.340663   -2.634928
 H   -2.476458   -0.080602   -0.581412
 H   -2.850301   -1.509582   -2.731666
 H   -4.747123   -3.002883   -2.232247
 H   -4.541071   -4.722324   -0.474768
 H   -2.425307   -4.948486    0.779163
 H   -0.532331   -3.436138    0.288381
 H    1.304903   -0.113794   -2.567832
 H    1.021126    1.310426    1.364305
 H    4.125474   -2.275202    2.915169
 H    4.889256   -0.692845    3.204793
 H    2.341783   -0.226460    0.035466
 H    1.633648   -1.817315   -0.276567
 H    3.657659   -2.926316    0.595837
 H    4.092876   -1.786232   -0.701370
 H    3.405087    1.826745   -1.162281
 H    4.245564    1.370904    0.402092
 H    2.997376    3.146614    1.575907
 H    2.158385    3.583133    0.011491
 H    3.088124    1.211833   -4.342886
 H    4.319019    2.064922   -3.682307
 H    5.082045   -0.209657   -4.161458
 H    5.039556    0.168861   -2.426716
 H    3.721410   -0.752630   -3.160969
