38 
5u5t_ligand_xtb.xyz
 C   -1.402187   -0.782817    0.855771
 C   -1.654987   -0.109028    2.054415
 C   -2.648169    0.844247    2.165275
 C    1.068798   -1.097478    0.594006
 C    1.149930   -0.249388   -0.681691
 C    3.523980   -0.514202   -0.852119
 C    3.547618   -1.401122    0.397299
 C    2.209142   -2.116496    0.566869
 C    2.585541    1.663831   -0.186665
 C   -3.454809    1.185140    1.081881
 C   -3.212223    0.525379   -0.098112
 C   -2.206335   -0.433242   -0.207587
 O   -3.846374    0.659400   -1.306438
 C   -3.209411   -0.244441   -2.181097
 O   -2.183180   -0.923768   -1.492877
 C   -0.296917   -1.786508    0.717637
 N    2.423949    0.428007   -0.794009
 N    1.726530    2.351090    0.446556
 N    3.855066    2.214836   -0.322480
 H   -1.050187   -0.349844    2.915550
 H   -2.806729    1.339423    3.110538
 H    1.209117   -0.434212    1.455429
 H    0.347516    0.490057   -0.712999
 H    1.038234   -0.898088   -1.557749
 H    3.387567   -1.136045   -1.744821
 H    4.468080    0.021169   -0.938911
 H    4.358207   -2.127198    0.315602
 H    3.738571   -0.770343    1.268298
 H    2.212366   -2.702656    1.488489
 H    2.055015   -2.805079   -0.268347
 H   -4.231150    1.926948    1.157889
 H   -2.778817    0.307685   -3.032491
 H   -3.945756   -0.972821   -2.558738
 H   -0.283536   -2.438032    1.594401
 H   -0.475205   -2.396652   -0.169285
 H    0.838910    1.900659    0.631170
 H    4.260338    2.133141   -1.243405
 H    3.855259    3.166039    0.018148
