37 
5u62_ligand_xtb.xyz
 C    3.358259    0.533378    0.310432
 C    2.323039   -0.021014   -0.440775
 C    1.734962   -1.223460   -0.111570
 C   -0.758905   -1.448702   -0.260574
 C   -1.919050   -2.069129   -1.040500
 C   -3.223601   -1.872075   -0.268959
 C   -3.389962   -0.434808    0.083024
 C   -0.944406    0.069951   -0.197473
 C   -4.466482    0.330710    0.413205
 C   -2.783687    1.630600    0.497893
 C    2.242428   -1.855155    1.027461
 C    3.267347   -1.308252    1.774891
 C    3.850533   -0.090808    1.430769
 O    3.738014    1.725584   -0.248831
 C    2.925836    1.895790   -1.389814
 O    2.028003    0.812874   -1.493267
 C    0.594199   -1.789742   -0.902960
 N   -2.297942    0.408530    0.148190
 N   -4.078894    1.614992    0.674294
 N   -1.981436    2.754763    0.563887
 H   -0.772402   -1.846805    0.760752
 H   -1.738271   -3.134389   -1.195552
 H   -1.993438   -1.591442   -2.019827
 H   -3.199899   -2.477986    0.644244
 H   -4.078328   -2.206039   -0.860267
 H   -0.693177    0.513744   -1.169898
 H   -0.263736    0.497749    0.548673
 H   -5.497192    0.048049    0.483820
 H    1.816097   -2.802390    1.321467
 H    3.628579   -1.832629    2.645810
 H    4.648565    0.344174    2.007749
 H    3.559846    1.938033   -2.290651
 H    2.358869    2.836333   -1.302794
 H    0.693152   -2.875601   -0.958266
 H    0.622424   -1.383738   -1.915507
 H   -1.087862    2.603645    1.012782
 H   -2.486507    3.529934    0.969357
