48 
5u6v_ligand_xtb.xyz
 C    0.658706   -0.664771   -0.454040
 C   -1.071680   -2.593310    0.577942
 C   -0.719241   -0.500667   -0.533463
 C   -3.646089   -0.643709   -1.221056
 C   -3.894640   -1.611319    0.934316
 C    0.581777    1.873931    0.787390
 C    0.652083    4.245164    0.491680
 C    1.554795    2.805924   -1.196819
 C    3.240758   -3.056801    2.509453
 C    3.492962   -2.551946    1.136995
 C    2.604814   -2.049949    0.193956
 N    3.398667   -1.736611   -0.862767
 N    4.663277   -2.024454   -0.593810
 N    4.726434   -2.500058    0.593824
 C    2.922704   -1.223418   -2.110056
 C    2.449770    0.221137   -1.959333
 N    1.500238    0.388727   -0.875151
 C    1.174925   -1.830990    0.134871
 C    0.292191   -2.779009    0.647356
 C   -1.599297   -1.449423   -0.023318
 C   -3.046171   -1.240726   -0.105866
 C   -5.007958   -0.461699   -1.250401
 C   -5.765525   -0.883237   -0.146252
 N   -5.201686   -1.438819    0.925060
 N   -7.125237   -0.794658   -0.137547
 C    1.202751    1.676328   -0.452941
 C    0.302863    3.139948    1.252997
 C    1.282085    4.077853   -0.727943
Cl    0.304231    5.838099    1.073724
 H   -1.736838   -3.346971    0.970229
 H   -1.104904    0.410046   -0.968707
 H   -3.041333   -0.346609   -2.066022
 H   -3.499559   -2.047852    1.842573
 H    0.322015    1.020033    1.393747
 H    2.034292    2.709998   -2.157174
 H    2.370015   -2.566121    2.939793
 H    3.062748   -4.132449    2.492103
 H    4.113576   -2.869638    3.129248
 H    2.098471   -1.856008   -2.460017
 H    3.744235   -1.268089   -2.827232
 H    2.012660    0.536296   -2.920059
 H    3.316901    0.855578   -1.745728
 H    0.695017   -3.673481    1.097804
 H   -5.496866   -0.012717   -2.101695
 H   -7.575168   -0.157816   -0.770985
 H   -7.574251   -0.967384    0.745659
 H   -0.176234    3.271792    2.210262
 H    1.555937    4.938969   -1.317192
