67 
5u7d_ligand_dft.xyz
 C   -6.523819   -2.077961   -1.021455
 O   -5.338515   -2.480441   -0.350858
 C   -4.263667   -1.656220   -0.520769
 C   -3.158659   -2.137855   -1.209706
 C   -4.227750   -0.363805    0.035868
 O   -5.332375    0.024248    0.720587
 C   -5.332473    1.318425    1.281768
 C   -3.086272    0.418968   -0.133082
 C   -1.988591   -0.080366   -0.826451
 C   -2.009301   -1.362167   -1.367501
 C   -0.776818   -1.912215   -2.056628
 C    0.351735   -2.027483   -1.072011
 N    0.204901   -2.944863   -0.057020
 C    1.115556   -3.138128    0.993007
 O    0.908113   -3.957658    1.864887
 N    1.359099   -1.233516   -1.193839
 N    2.291078   -1.357946   -0.193498
 C    2.249997   -2.251332    0.874306
 C    3.378098   -1.985436    1.618592
 C    3.837363   -2.648656    2.872717
 N    4.071136   -0.967795    1.030352
 C    3.400978   -0.602858   -0.057943
 C    3.790974    0.506979   -0.984524
 C    5.330408    0.473846   -1.182483
 C    5.815192    1.439595   -2.252794
 O    6.016831    0.786710    0.007709
 C    3.293308    1.862660   -0.450233
 C    1.780486    1.954461   -0.240220
 C    1.373481    3.355196    0.236686
 C   -0.112876    3.534445    0.437031
 C   -0.939836    3.880325   -0.636041
 C   -2.300808    4.102254   -0.450195
 C   -2.860658    3.978274    0.819590
 C   -2.055427    3.600865    1.891473
 C   -0.694663    3.378631    1.697417
 H   -6.340946   -1.964065   -2.097772
 H   -7.249877   -2.876879   -0.860993
 H   -6.914987   -1.140741   -0.614942
 H   -3.223462   -3.141291   -1.622808
 H   -6.295354    1.427932    1.781847
 H   -5.230960    2.089713    0.507848
 H   -4.523978    1.440330    2.013531
 H   -3.027217    1.416655    0.284614
 H   -1.102428    0.541397   -0.926672
 H   -0.439007   -1.251584   -2.858822
 H   -0.985727   -2.894848   -2.494943
 H   -0.660115   -3.466294    0.012647
 H    3.112456   -3.399041    3.193360
 H    4.806596   -3.133419    2.716101
 H    3.964642   -1.907841    3.668512
 H    3.314185    0.310223   -1.952388
 H    5.580484   -0.550687   -1.507522
 H    5.659907    2.477196   -1.943535
 H    6.887685    1.296842   -2.410232
 H    5.296569    1.269729   -3.202355
 H    5.692760    0.161092    0.680926
 H    3.594852    2.642161   -1.160211
 H    3.817812    2.074641    0.488201
 H    1.257616    1.714347   -1.175399
 H    1.447237    1.213921    0.498309
 H    1.728106    4.094325   -0.493117
 H    1.895906    3.573959    1.176114
 H   -0.503513    4.001985   -1.624945
 H   -2.922244    4.387523   -1.294141
 H   -3.917221    4.178551    0.973381
 H   -2.483714    3.494843    2.884299
 H   -0.067735    3.102645    2.542003
