46 
5u7j_ligand_dft.xyz
 N   -2.009990   -0.830946    0.324380
 C   -1.718816    1.705516    0.550575
 N   -3.743444   -1.084792    1.681952
 C   -1.032872   -1.283441   -0.540652
 C   -2.929255   -1.719036    0.865757
 C   -2.851632   -3.086397    0.468526
 C    2.163896    1.912925    0.238891
 C   -1.046184   -2.606426   -0.874902
 C    4.649493   -2.155599   -0.096774
 C    3.972219    0.142567    1.375317
 C   -3.660346    2.447059   -0.912478
 C   -2.144933    2.257125   -0.826947
 C   -1.414529    3.569967   -1.111926
 C   -2.337220    0.388087    0.875174
 N   -3.368127    0.220051    1.677180
 N   -1.954288   -3.506515   -0.370628
 O   -0.184143   -0.333219   -0.934253
 C    0.920178   -0.724745   -1.752041
 C    1.892353    0.444681   -1.804958
 C    2.501767    0.761191   -0.461040
 C    2.702831    2.193202    1.493601
 C    3.604003    1.302101    2.056857
 C    3.424996   -0.125012    0.122186
 O    3.725134   -1.227272   -0.620881
 H   -2.046581    2.396595    1.334769
 H   -0.628477    1.631822    0.601259
 H   -3.567044   -3.793303    0.878351
 H    1.462846    2.609705   -0.212145
 H   -0.316418   -3.007122   -1.566735
 H    5.631049   -1.693957    0.067169
 H    4.290735   -2.591226    0.844014
 H    4.742519   -2.942665   -0.845846
 H    4.681445   -0.539127    1.830141
 H   -4.001517    3.173669   -0.165297
 H   -3.947779    2.818598   -1.902053
 H   -4.199396    1.512777   -0.729084
 H   -1.839481    1.526196   -1.586750
 H   -1.708231    3.978479   -2.084779
 H   -1.650872    4.321459   -0.348576
 H   -0.327610    3.431926   -1.122411
 H    0.548996   -0.980159   -2.752131
 H    1.407093   -1.601129   -1.314221
 H    1.369441    1.324680   -2.194869
 H    2.675128    0.180478   -2.524806
 H    2.418305    3.098443    2.019676
 H    4.033178    1.500624    3.034209
