49 
5u7k_ligand_dft.xyz
 N    2.148305   -0.893771   -0.508988
 C    2.575166   -2.085327   -1.067411
 C    1.361416    2.321228   -1.641117
 C    3.167894   -1.499015    1.516849
 C   -2.327829   -1.477954    0.728215
 C   -3.569068   -1.486584    0.088873
 C   -2.809574    0.348417   -1.303752
 C   -3.793669   -0.557673   -0.929708
 C   -5.541816   -1.839803    1.621627
 C    0.025716    2.322269    2.538312
 C    1.543752    2.374309    2.697500
 C    2.206911    1.019243    2.532396
 O    1.953697    0.586315    1.195953
 C    2.444051   -0.587856    0.803825
 N    3.608655   -2.689557    0.992002
 C    3.327028   -2.974093   -0.244148
 N    2.175797   -2.163717   -2.321564
 N    1.487058   -1.028392   -2.591199
 C    1.459655   -0.258683   -1.521011
 C    0.810691    1.046698   -1.409446
 N    0.474240    3.282608   -1.436863
 N   -0.654011    2.642117   -1.078082
 C   -1.831647    3.421993   -0.760750
 C   -0.505269    1.292351   -1.048164
 C   -1.570206    0.354189   -0.657786
 C   -1.341032   -0.570716    0.364743
 C   -4.657270   -2.439671    0.521297
 H    2.368632    2.566565   -1.948549
 H    3.426847   -1.308464    2.550957
 H   -2.131182   -2.193000    1.523477
 H   -2.993076    1.041202   -2.120165
 H   -4.749541   -0.553973   -1.448003
 H   -4.946323   -1.590825    2.506424
 H   -6.023830   -0.919703    1.274421
 H   -6.324472   -2.543634    1.922567
 H   -0.246953    1.983063    1.535640
 H   -0.426718    1.636579    3.264149
 H   -0.412260    3.313108    2.691575
 H    1.811244    2.752106    3.691504
 H    1.974218    3.063539    1.962773
 H    1.789885    0.282996    3.233142
 H    3.290984    1.080361    2.689730
 H    3.672180   -3.914638   -0.663126
 H   -1.497479    4.372196   -0.344071
 H   -2.430577    3.611652   -1.656440
 H   -2.436825    2.885745   -0.027696
 H   -0.387935   -0.564245    0.884406
 H   -4.207519   -3.371664    0.882443
 H   -5.278581   -2.704435   -0.341991
