54 
5u8a_ligand_dft.xyz
 C    3.918812    0.036053   -0.402667
 C    4.023616    1.053822   -1.364960
 C    5.112669    1.907934   -1.325257
 C    6.111452    1.760559   -0.344701
 C    6.045092    0.755049    0.605374
 C    2.949197   -0.993567   -0.140637
 C    0.954175   -2.489138   -0.922097
 C   -3.359192    1.235472   -1.502323
 C   -3.810292   -0.119383    0.588088
 C   -3.672263    0.879767    2.781255
 C   -3.419308    2.109944    2.155699
 C   -3.366962    2.185622    0.787229
 C   -0.779821   -1.031714   -0.417748
 C   -0.111396    1.196644   -2.193270
 C   -3.870182   -0.232384    1.969393
 C    3.418455   -1.690197    0.939118
 C   -3.539434    1.093401   -0.126678
 C    4.940525   -0.100245    0.564593
 C    1.641281   -1.118658   -0.850210
 C    0.524804   -0.249032   -0.219383
 C    5.425703   -1.659012    2.461093
 C   -0.207665    2.086616    0.109757
 N    4.616774   -1.165732    1.370268
 N   -0.381632   -2.095184   -1.337407
 N    0.486771    1.140289   -0.818425
 F   -3.078636    3.397860    0.223846
Br   -4.103883   -1.715241   -0.433554
 H    3.284731    1.149555   -2.160224
 H    5.208019    2.694070   -2.067674
 H    6.954459    2.444325   -0.339190
 H    6.823875    0.639788    1.353239
 H    0.987923   -2.986520    0.066088
 H    1.428407   -3.148273   -1.653892
 H   -3.694935    0.434367   -2.152992
 H   -3.383383    2.237189   -1.920350
 H   -3.728093    0.800865    3.860999
 H   -3.268055    3.020405    2.728774
 H   -1.122331   -1.403239    0.559027
 H   -1.589842   -0.428455   -0.837562
 H    0.265658    2.096416   -2.682667
 H   -1.214482    1.238330   -2.076625
 H    0.170378    0.300400   -2.745864
 H   -4.083050   -1.202720    2.407592
 H    2.986998   -2.538482    1.453776
 H    1.780499   -0.800376   -1.890968
 H    0.739847   -0.083071    0.837957
 H    4.912854   -2.497843    2.934548
 H    5.580879   -0.876492    3.210977
 H    6.399847   -2.003313    2.098158
 H    0.456691    2.291098    0.950905
 H   -0.456193    3.003483   -0.422757
 H   -1.130213    1.621976    0.459497
 H   -1.060342   -2.848871   -1.338681
 H    1.464471    1.437147   -0.883383
