41 
5u9i_ligand_dft.xyz
 C   -4.444261   -2.328491   -0.748841
 C   -4.759909   -1.109811    0.069145
 C   -4.052727    0.022268    0.143189
 C   -2.756558    0.254943   -0.600452
 C   -1.527416   -0.209178    0.210169
 C   -0.232792    0.078970   -0.500353
 C    0.528206    1.170694   -0.369865
 C    1.805866    1.325226   -1.161724
 C    3.077755    1.363907   -0.286147
 C    3.230753    0.126528    0.552664
 C    4.080163   -0.890495    0.374245
 C    5.099132   -0.980429   -0.732163
 C    4.074508   -2.076125    1.305898
 C   -4.484012    1.156481    1.037713
 C    0.207617    2.305131    0.571980
 H   -5.266486   -2.563274   -1.436217
 H   -3.532070   -2.217723   -1.341290
 H   -4.313721   -3.204634   -0.101385
 H   -5.668074   -1.181727    0.668792
 H   -2.643484    1.325295   -0.815634
 H   -2.755135   -0.251535   -1.571890
 H   -1.616832   -1.287614    0.387637
 H   -1.548327    0.261941    1.199443
 H    0.086074   -0.676843   -1.218699
 H    1.760768    2.255449   -1.746648
 H    1.900040    0.498519   -1.875069
 H    3.036242    2.242235    0.371901
 H    3.943284    1.516918   -0.938153
 H    2.526728    0.049818    1.381830
 H    5.082399   -0.124182   -1.409654
 H    6.112165   -1.064527   -0.317766
 H    4.929953   -1.884310   -1.331581
 H    5.054226   -2.203229    1.785200
 H    3.320936   -1.973688    2.092185
 H    3.870532   -3.004674    0.756593
 H   -5.375148    0.904497    1.620348
 H   -3.685465    1.427614    1.741403
 H   -4.702738    2.056904    0.449079
 H   -0.822509    2.275749    0.935172
 H    0.869981    2.294532    1.447578
 H    0.358704    3.270783    0.074072
