66 
5ubt_ligand_dft.xyz
 C   -2.138238    1.135920   -1.216783
 C   -2.507472    0.869656   -2.569024
 N   -1.595130    0.805437   -3.522570
 C   -0.571486    1.559882    0.348405
 C   -1.822266    1.537001    0.961084
 C   -2.808124    1.276329   -0.004254
 C   -4.254014    1.119021    0.191696
 C    0.739136    1.804684    0.964802
 N    0.169963    1.258904   -1.952160
 C   -6.456780    1.250180    0.294825
 N   -0.784683    1.309889   -0.978932
 C   -0.311920    1.008641   -3.137340
 N   -3.800751    0.648408   -2.889313
 N   -4.816841   -0.061420    0.574408
 N   -6.155260    0.001825    0.631974
 C   -5.303885    2.001933    0.002265
 C   -4.137758   -1.338293    0.760589
 C   -4.330934   -2.247595   -0.455360
 C   -3.663549   -3.596381   -0.193777
 O   -4.157068   -4.204297    0.979870
 C   -3.917655   -3.412149    2.122945
 C   -4.606047   -2.050463    2.027926
 C    0.811508    2.638742    2.082894
 C    2.036082    2.844695    2.709833
 C    3.189967    2.246820    2.226776
 C    3.135814    1.403030    1.107595
 C    1.900469    1.180013    0.495909
 N    4.329635    0.833771    0.612761
 C    4.278751    0.228150   -0.707019
 C    5.697573    0.016104   -1.234080
 N    6.476823   -0.771455   -0.297841
 C    6.510542   -0.205543    1.039886
 C    5.092289    0.012167    1.553570
 C    7.019991   -2.009178   -0.528693
 C    6.896155   -2.571824   -1.934901
 O    7.588473   -2.637493    0.351572
 H   -1.995412    1.674679    2.019445
 H   -7.491276    1.565403    0.281781
 H    0.433823    0.962195   -3.925210
 H   -4.536887    0.896996   -2.243107
 H   -4.019665    0.585953   -3.872141
 H   -5.226777    3.041482   -0.280292
 H   -3.073836   -1.095193    0.858411
 H   -3.908142   -1.778192   -1.351458
 H   -5.404221   -2.393042   -0.619548
 H   -2.569607   -3.463519   -0.117886
 H   -3.862083   -4.294871   -1.010215
 H   -2.830683   -3.274565    2.263303
 H   -4.298113   -3.979545    2.975656
 H   -5.690711   -2.185755    1.984090
 H   -4.375085   -1.446371    2.912473
 H   -0.078913    3.143982    2.443545
 H    2.095984    3.505517    3.569507
 H    4.146608    2.460235    2.693526
 H    1.823086    0.521576   -0.357820
 H    3.740999    0.897038   -1.385313
 H    3.753596   -0.745511   -0.697380
 H    6.177868    0.995124   -1.365636
 H    5.656977   -0.472879   -2.207312
 H    7.039183    0.756568    1.010258
 H    7.057001   -0.896662    1.681298
 H    4.604516   -0.968174    1.697763
 H    5.131436    0.509126    2.524763
 H    7.422450   -3.525914   -1.948678
 H    5.849770   -2.741257   -2.210436
 H    7.341677   -1.906848   -2.681840
