40 
5uc4_ligand_dft.xyz
 C   -1.750377   -0.091938   -0.583656
 C   -3.787863    0.187859    0.391738
 C   -5.045429   -1.741914   -1.199974
 C    4.656035   -0.019045   -1.082534
 C   -5.177491   -0.080383    0.587595
 C   -5.776555   -1.021020   -0.193512
 C   -3.719998   -1.518976   -1.417596
 C    1.696301   -2.998983    0.575417
 C    2.875898   -2.029201    0.446119
 C    3.719492   -2.032175    1.730629
 C    2.454980   -0.608710    0.101416
 C    1.203189   -0.130345    0.487936
 C    0.770906    1.169679    0.229922
 C    1.610194    2.054047   -0.455751
 O    1.152882    3.297574   -0.722701
 C    2.857746    1.597416   -0.862826
 C    3.290160    0.297081   -0.584834
 O    5.280101   -1.039924   -0.902303
 C   -0.544500    1.642512    0.766135
 O   -0.653017    2.593475    1.500168
 N   -1.675985    0.876253    0.405023
 C   -2.908622    1.058334    0.995945
 C   -3.051125   -0.541597   -0.618104
 H   -0.891338   -0.349500   -1.181399
 H   -5.573646   -2.480836   -1.795377
 H    5.109678    0.806604   -1.673638
 H   -5.737025    0.460347    1.345035
 H   -6.832150   -1.240015   -0.062497
 H   -3.175896   -2.068901   -2.179851
 H    2.074989   -4.023174    0.650370
 H    1.101379   -2.811737    1.476805
 H    1.028403   -2.948065   -0.291342
 H    3.516457   -2.387616   -0.362773
 H    3.133996   -1.655975    2.577846
 H    4.046942   -3.050373    1.966449
 H    4.610244   -1.408983    1.618058
 H    0.523014   -0.790694    1.015372
 H    1.828606    3.797831   -1.195741
 H    3.518051    2.267803   -1.411754
 H   -3.027171    1.784689    1.783570
