40 
5uc4_ligand_xtb.xyz
 C   -1.749451   -0.186437   -0.419099
 C   -3.833388    0.056913    0.443774
 C   -5.041222   -1.590906   -1.445824
 C    4.359240    0.346725   -1.613859
 C   -5.229411   -0.163614    0.509776
 C   -5.804509   -0.972063   -0.419863
 C   -3.698511   -1.404255   -1.549418
 C    2.579174   -2.900304    0.635481
 C    3.465795   -1.658983    0.512781
 C    4.204379   -1.385821    1.826947
 C    2.675780   -0.435595    0.124309
 C    1.478234   -0.162193    0.779028
 C    0.695736    0.932043    0.460957
 C    1.099404    1.808087   -0.553386
 O    0.287472    2.848280   -0.861620
 C    2.296364    1.562619   -1.199101
 C    3.097878    0.463950   -0.868811
 O    5.275547   -0.407655   -1.409936
 C   -0.561017    1.221997    1.221914
 O   -0.594773    1.886531    2.223937
 N   -1.699533    0.634475    0.681271
 C   -2.957388    0.788052    1.209502
 C   -3.056547   -0.571555   -0.602646
 H   -0.867869   -0.434882   -0.974319
 H   -5.556020   -2.223674   -2.154114
 H    4.422697    1.079858   -2.444840
 H   -5.809172    0.306747    1.289675
 H   -6.867984   -1.159656   -0.391644
 H   -3.118792   -1.874942   -2.329562
 H    3.205490   -3.783370    0.736662
 H    1.930915   -2.850788    1.506628
 H    1.960846   -3.019473   -0.251820
 H    4.212753   -1.853750   -0.258005
 H    3.501717   -1.145559    2.622195
 H    4.776152   -2.262903    2.119436
 H    4.890906   -0.551512    1.706093
 H    1.138245   -0.817635    1.565412
 H    0.689467    3.398950   -1.544692
 H    2.628186    2.241497   -1.974413
 H   -3.110009    1.400552    2.074602
