43 
5uci_ligand_xtb.xyz
 C    1.887176    0.066411   -0.415966
 C    3.210784    0.154772   -0.780812
 C    3.864473    0.372136   -2.016291
 C    3.102960   -0.210733    1.453624
 C    5.992062    0.226842   -0.855219
 C    0.679519   -0.306068    1.706790
 C   -2.996655   -0.103199   -0.460289
 N    1.833855   -0.153543    0.937039
 C    5.223909    0.404337   -2.036350
 C    5.405353    0.016697    0.353596
 C   -3.928268    2.780008    0.906325
 C   -3.062056    2.402463   -0.298775
 C   -2.076531    3.523082   -0.625867
 C   -2.378478    1.083864   -0.027623
 C   -1.187777    1.005226    0.664737
 C   -0.589345   -0.218691    0.923512
 C   -1.191365   -1.391987    0.482373
 O   -0.524285   -2.551461    0.752260
 C   -2.401217   -1.346207   -0.219912
 O   -4.172245    0.027951   -1.110122
 C   -2.979696   -2.681825   -0.658676
 O   -4.137615   -2.565362   -1.463014
 O    0.733114   -0.475356    2.896565
 C    3.993116   -0.024727    0.422421
 H    0.996425    0.143900   -1.005335
 H    3.280921    0.508176   -2.914973
 H    3.254761   -0.380378    2.500021
 H    7.068944    0.263038   -0.936367
 H    5.748345    0.568560   -2.966840
 H    5.989752   -0.117433    1.251645
 H   -3.311473    2.890731    1.795615
 H   -4.444439    3.718798    0.719920
 H   -4.669449    2.007352    1.092959
 H   -3.720172    2.257472   -1.160003
 H   -2.618314    4.392095   -0.992127
 H   -1.516382    3.826449    0.254989
 H   -1.374354    3.206274   -1.393572
 H   -0.705766    1.901922    1.018837
 H   -1.058953   -3.324378    0.549489
 H   -4.477354   -0.848036   -1.394733
 H   -3.226114   -3.271307    0.242508
 H   -2.206423   -3.225079   -1.228701
 H   -4.446485   -3.443935   -1.703713
