54 
5uey_ligand_dft.xyz
 C   -1.451894   -2.381189    0.301904
 C   -0.176557   -2.114080   -0.179818
 C    2.845322   -1.836845    0.638804
 C    4.021248   -2.556153    0.835221
 C   -1.801553   -0.024419    0.661172
 C    4.695512   -2.062300   -1.440862
 C   -0.532463    0.263792    0.160004
 C   -2.273547   -1.335286    0.719020
 C    0.273659   -0.800511   -0.262780
 C    2.576229   -1.239598   -0.588254
 C    4.927961   -2.654142   -0.207707
 C    3.513322   -1.363489   -1.615387
 C    1.443010    3.505086    0.457753
 C   -0.857701    2.542970   -0.685946
 C   -0.091707    1.670687    0.025321
 C    1.100006    2.193964    0.638689
 C    0.638464    4.413321   -0.321197
 C    3.424605    0.711391    3.019955
 C   -4.856313   -2.981003   -1.447898
 C   -1.382975    4.746003   -1.636494
 C    2.898133    1.822702    2.137446
 C   -4.794189   -1.471911   -1.269086
 N   -0.536836    3.850423   -0.860038
 N   -3.580036   -1.594585    1.215063
 O    0.890357    5.594158   -0.527608
 O   -6.055871   -1.646665    1.064748
 O   -4.821672    0.490293    0.463967
 O    1.472071   -0.480003   -0.847367
 O    1.785144    1.322836    1.401374
 F    6.065032   -3.340463   -0.027898
 F    3.258483   -0.789624   -2.792835
 S   -4.933344   -0.957540    0.451466
 H   -1.806563   -3.407749    0.345358
 H    0.458992   -2.924712   -0.520073
 H    2.128348   -1.728691    1.444916
 H    4.238859   -3.027395    1.786680
 H   -2.430607    0.781268    1.021496
 H    5.410400   -2.145851   -2.250208
 H    2.328085    3.946686    0.893847
 H   -1.777109    2.212974   -1.158266
 H    2.630005    0.326722    3.666105
 H    3.822499   -0.109878    2.419466
 H    4.229211    1.097636    3.653076
 H   -3.997437   -3.471585   -0.979566
 H   -5.773498   -3.386863   -1.014049
 H   -4.836841   -3.224305   -2.513772
 H   -0.830252    5.127920   -2.497724
 H   -2.267299    4.201949   -1.971660
 H   -1.681492    5.597150   -1.021300
 H    3.669928    2.170848    1.439579
 H    2.571102    2.678060    2.742059
 H   -5.621145   -0.962951   -1.772653
 H   -3.856149   -1.045725   -1.636560
 H   -3.760714   -2.543841    1.521141
