54 
5uey_ligand_xtb.xyz
 C   -1.278319   -2.621575    0.069157
 C   -0.020995   -2.230002   -0.349619
 C    2.903194   -1.931456    0.457158
 C    4.138605   -2.520770    0.662092
 C   -1.855780   -0.323162    0.456339
 C    4.994273   -1.426213   -1.313026
 C   -0.591352    0.081268    0.050430
 C   -2.209285   -1.668126    0.472538
 C    0.332403   -0.887015   -0.362515
 C    2.681653   -1.095106   -0.633548
 C    5.166308   -2.265126   -0.225355
 C    3.753649   -0.854044   -1.502061
 C    1.185933    3.367455    0.566152
 C   -1.072931    2.398979   -0.603270
 C   -0.251383    1.511853    0.022657
 C    0.924338    2.031682    0.660245
 C    0.332881    4.289727   -0.122219
 C    3.305912    0.485488    2.953146
 C   -4.846035   -2.243255   -1.931616
 C   -1.747780    4.586652   -1.371508
 C    2.752531    1.630670    2.121263
 C   -4.796223   -0.896815   -1.249623
 N   -0.820605    3.718143   -0.681884
 N   -3.482388   -2.042922    0.890569
 O    0.535453    5.487609   -0.229930
 O   -5.946161   -1.997380    0.889041
 O   -4.755322    0.139019    1.185929
 O    1.520929   -0.446451   -0.892732
 O    1.662908    1.143458    1.355940
 F    6.368416   -2.839735   -0.029120
 F    3.567498   -0.039807   -2.556158
 S   -4.852639   -1.139338    0.553183
 H   -1.539211   -3.669574    0.079260
 H    0.683721   -2.971948   -0.695271
 H    2.102048   -2.103441    1.158621
 H    4.307631   -3.168450    1.507193
 H   -2.572266    0.407354    0.795023
 H    5.801267   -1.225136   -1.998136
 H    2.056657    3.816190    1.014392
 H   -1.979428    2.061391   -1.085822
 H    2.514920    0.053954    3.560788
 H    3.715079   -0.287394    2.308785
 H    4.091349    0.857209    3.604744
 H   -3.912203   -2.782559   -1.787967
 H   -5.660318   -2.826211   -1.506858
 H   -5.015382   -2.132307   -3.000448
 H   -1.814057    4.318005   -2.426699
 H   -2.737322    4.526315   -0.917529
 H   -1.362917    5.602444   -1.280238
 H    3.528064    2.027749    1.453525
 H    2.405068    2.438329    2.778308
 H   -5.664195   -0.285392   -1.478183
 H   -3.885692   -0.342842   -1.457365
 H   -3.674906   -3.031632    0.902779
