89 
5ufi_ligand_xtb.xyz
 O   -1.802466    2.004964   -2.431278
 N   -4.178852    0.604733   -1.468295
 C   -1.378554    0.862907   -2.400279
 C   -2.270504   -0.332786   -2.732029
 C   -3.722603    0.121355   -2.801461
 C   -5.276034   -0.207806   -0.905809
 C   -5.597873    0.304542    0.500832
 C   -4.916499    2.449049   -0.037269
 C   -4.577139    2.031180   -1.467681
 O   -5.959849    1.660613    0.482309
 N    0.120770    0.667796    0.685313
 N   -0.116104    0.562607   -2.069543
 C    0.288309    1.904866   -0.051886
 C    0.735130    1.581565   -1.497627
 C    1.232788    2.912761    0.626678
 C    2.672256    2.430742    0.877921
 C    2.884912    1.612983    2.152571
 C    2.278947    2.307129    3.366228
 C    0.801268    2.596611    3.129712
 C    0.632015    3.499940    1.912144
 C    6.897073   -0.275333   -0.996629
 C    7.105458    0.882425   -0.016383
 C    5.441114   -0.660413   -1.046904
 C    4.810796   -1.175002    0.076535
 N   -2.165344   -1.847657    1.984106
 C    3.468953   -1.492129   -0.000706
 C    2.726805   -1.301427   -1.184343
 C    1.090538   -2.042269    0.090991
 C   -0.282746   -2.398512    0.514929
 C   -0.895601   -1.359935    1.489698
 C   -1.035164    0.013266    0.803676
 S    2.426467   -2.122491    1.245843
 N    1.399360   -1.615470   -1.076845
 C    3.368503   -0.797602   -2.311895
 C    4.707578   -0.485797   -2.226074
 C    7.772817   -1.472142   -0.620846
 O   -2.116577    0.451614    0.432343
 C   -3.191425   -2.272121    1.208647
 C   -4.330912   -2.869484    2.014406
 C   -5.365467   -3.566026    1.138781
 O   -3.186303   -2.188794   -0.005318
 H   -3.376788    0.518313   -0.804347
 H   -1.967315   -0.753287   -3.691413
 H   -2.162548   -1.105575   -1.969295
 H   -4.361713   -0.701516   -3.121646
 H   -3.809361    0.941272   -3.516808
 H   -6.152182   -0.111939   -1.551274
 H   -4.945599   -1.246727   -0.855210
 H   -4.715719    0.155960    1.141527
 H   -6.448485   -0.236044    0.917734
 H   -4.018815    2.355034    0.591293
 H   -5.267609    3.480910   -0.015631
 H   -3.743525    2.621773   -1.851412
 H   -5.453369    2.147291   -2.109534
 H    0.972091    0.235140    1.011304
 H    0.200788   -0.400460   -1.971404
 H   -0.708423    2.355800   -0.118229
 H    1.762321    1.221538   -1.525772
 H    0.648167    2.489501   -2.097923
 H    1.299277    3.732799   -0.097799
 H    3.042858    1.867261    0.019000
 H    3.292936    3.325445    0.961302
 H    2.460913    0.609921    2.063247
 H    3.959189    1.483385    2.300338
 H    2.803436    3.247694    3.543267
 H    2.405664    1.682774    4.252251
 H    0.254859    1.662006    2.988485
 H    0.379927    3.095512    4.003875
 H   -0.425617    3.718375    1.752844
 H    1.134585    4.446388    2.120167
 H    7.193463    0.064237   -1.994130
 H    8.145383    1.197295   -0.030459
 H    6.853273    0.582913    0.997969
 H    6.483598    1.732129   -0.290946
 H    5.348937   -1.326892    0.998073
 H   -2.267518   -1.926351    2.982860
 H   -0.923130   -2.488475   -0.363359
 H   -0.268009   -3.361174    1.031784
 H   -0.228031   -1.249109    2.350748
 H    2.813934   -0.659791   -3.226530
 H    5.209714   -0.091452   -3.096554
 H    8.822064   -1.195667   -0.681451
 H    7.567785   -1.806125    0.392978
 H    7.595334   -2.302325   -1.300730
 H   -4.802561   -2.075926    2.599113
 H   -3.906001   -3.590122    2.716880
 H   -5.898600   -2.851877    0.517457
 H   -4.880709   -4.290469    0.489624
 H   -6.088017   -4.085967    1.761078
