63 
5ufo_ligand_dft.xyz
 C    4.353976    0.761666   -1.089025
 C    4.372483   -0.863713    0.696851
 C   -2.248436   -2.413756   -1.793164
 C   -3.757295    0.866413    0.889932
 C   -1.049985   -2.531043   -2.453395
 C    5.565881    1.272991   -0.643089
 C    5.586772   -0.363313    1.148949
 C   -4.123132    2.188069    0.662264
 C   -1.196124   -1.156807   -0.033986
 C   -4.849776    0.294014   -1.152407
 C   -2.655111   -2.619268    2.318774
 C   -4.329576   -2.447510    3.609642
 C    0.046008   -1.263950   -0.691149
 C    3.745119   -0.300161   -0.416259
 C    2.441691   -0.839884   -0.886175
 C   -2.331509   -1.731716   -0.560809
 C   -4.122131   -0.110230   -0.029163
 C    0.127620   -1.964148   -1.921010
 C    6.166054    0.708309    0.477778
 C    1.266869   -0.702319   -0.200429
 C   -4.845715    2.471856   -0.488341
 C   -3.628888   -1.992135    1.578424
 C    2.369895   -1.572619   -2.124640
 C   -6.024903   -1.321659    2.158595
 C    3.522523   -2.411585   -3.996285
 C    7.150910    2.634994    2.248746
 C   -3.695058   -1.568571    0.133881
 C   -5.278814    3.885085   -0.818953
 N   -3.096736   -2.894759    3.583966
 N   -5.208191    1.553570   -1.382389
 N    1.292392   -2.106808   -2.617944
 N   -4.717533   -1.894543    2.431259
 O    8.360424    2.078347   -0.022197
 O    8.392278    0.348750    1.840140
 O   -4.695204   -2.345098   -0.526279
 O    3.534204   -1.683268   -2.773578
 F   -4.725892    4.307491   -1.962272
 F   -6.607544    3.968387   -0.954450
 F   -4.915165    4.746117    0.149350
 S    7.703828    1.389308    1.083813
Cl    1.235859    0.193052    1.294976
 H    3.877216    1.184291   -1.967453
 H    3.907201   -1.700989    1.207538
 H   -3.149673   -2.835156   -2.223846
 H   -3.203033    0.597604    1.785169
 H   -0.974757   -3.052960   -3.401286
 H    6.054540    2.089680   -1.164408
 H    6.091291   -0.806237    2.001392
 H   -3.856354    2.971405    1.360771
 H   -1.244602   -0.613575    0.902680
 H   -5.158785   -0.438111   -1.891518
 H   -1.657311   -2.887781    2.002253
 H   -5.002131   -2.499312    4.456512
 H   -6.731915   -1.705162    2.896837
 H   -5.995978   -0.230509    2.220867
 H   -6.350883   -1.613647    1.159553
 H    2.825061   -1.964028   -4.709176
 H    3.231236   -3.451129   -3.823359
 H    4.544260   -2.357435   -4.371253
 H    6.548364    3.375525    1.720180
 H    8.049664    3.099741    2.660417
 H    6.575587    2.153510    3.041174
 H   -4.511649   -3.270635   -0.314581
