62 
5ufs_ligand_dft.xyz
 C    5.438272    0.663228   -1.149768
 C    4.859268   -0.587180   -1.685357
 C    3.852452   -1.209233   -1.070499
 C    3.222500   -0.740998    0.215502
 C    3.462723   -1.868024    1.255003
 C    3.853013    0.537262    0.743897
 C    3.249573    1.075778    2.011381
 C    1.741658    1.301121    1.845418
 C    1.006134    0.085561    1.262610
 C    1.705831   -0.408043   -0.023448
 C    0.914238   -1.483218   -0.803476
 C   -0.568945   -1.120841   -0.989487
 C   -1.253706   -0.710813    0.315851
 C   -1.417036   -1.907352    1.270087
 C   -0.437763    0.447216    0.928119
 C   -1.355592    1.004184    2.014176
 C   -2.708105    1.053110    1.292325
 C   -2.638582    0.002756    0.133132
 C   -3.179073    2.065945   -0.727144
 C   -4.699389    2.063101   -0.880472
 C   -2.497385    3.096085   -1.604449
 C   -3.814628   -0.962682    0.099864
 C   -4.230487   -1.541562   -1.240389
 C    4.862061    1.152815    0.115280
 F    1.703864    0.682359   -0.912704
 O    6.348261    1.247133   -1.717740
 O    1.095464   -2.731084   -0.154827
 O   -2.634966    0.786204   -1.044240
 O   -2.816937    2.295892    0.616266
 O   -5.209150   -2.519716   -1.080342
 O   -4.413107   -1.299289    1.103911
 H    5.306248   -0.974789   -2.595872
 H    3.470507   -2.148468   -1.465636
 H    4.535623   -1.922115    1.463509
 H    2.942087   -1.686791    2.197947
 H    3.124422   -2.827997    0.867998
 H    3.740406    2.013037    2.290078
 H    3.425561    0.369228    2.833005
 H    1.583205    2.155299    1.177578
 H    1.299725    1.561310    2.812826
 H    1.024194   -0.730534    1.993983
 H    1.364375   -1.518676   -1.805059
 H   -0.632181   -0.293962   -1.701285
 H   -1.067909   -1.981033   -1.459632
 H   -1.933204   -2.731798    0.763601
 H   -2.011405   -1.660679    2.153408
 H   -0.447522   -2.288500    1.591110
 H   -0.383670    1.219712    0.150171
 H   -1.081296    2.006494    2.350940
 H   -1.398083    0.348805    2.890812
 H   -3.566892    0.890709    1.949564
 H   -4.980938    1.823760   -1.910124
 H   -5.097468    3.049043   -0.626049
 H   -5.161128    1.332144   -0.208554
 H   -2.844748    4.098812   -1.342455
 H   -1.416593    3.040990   -1.454674
 H   -2.724091    2.906794   -2.657008
 H   -3.338280   -1.953486   -1.735645
 H   -4.577299   -0.715541   -1.877696
 H    5.302344    2.063448    0.513358
 H    0.494007   -3.365880   -0.561769
 H   -5.443489   -2.503008   -0.137259
