54 
5ugc_ligand_xtb.xyz
 C    1.073824    2.330176   -1.258024
 C    2.004912    0.146373   -0.707361
 C    0.498855   -1.598640   -0.562848
 C    2.819049   -1.809784   -0.053691
 N    3.677178   -2.780717    0.365208
 C    2.921479   -3.916455    0.481465
 C    5.082185   -2.621990    0.608533
 C   -1.901867   -1.279989   -0.798359
 C   -3.186909   -1.557908   -0.273434
 C   -3.933496    1.549234   -1.679937
 C   -1.662107    1.111787    2.031224
 C    0.934699    3.046046    0.096519
 C    2.401673    3.233314    0.521535
 C    3.201259    2.229491   -0.343690
 N    2.208674    1.455892   -1.060228
 N    0.760668   -0.323615   -0.845141
 C    1.564733   -2.428224   -0.168033
 N    3.078624   -0.523585   -0.289481
 N    1.669548   -3.750695    0.181793
 N   -0.766644   -2.061996   -0.621671
 C   -2.059720   -0.072045   -1.448258
 N   -3.343182    0.301365   -1.291327
 N   -4.036495   -0.592523   -0.578464
 O   -3.500447   -2.660243    0.437809
 C   -4.850866   -2.729718    0.846061
 F    2.814193    4.519036    0.253875
 N    0.228853    2.223639    1.054471
 C   -1.132537    2.173754    1.084314
 C   -3.156736    1.257977    2.284653
 O   -1.827899    2.933538    0.446327
 H    1.312314    3.047103   -2.047609
 H    0.189921    1.756445   -1.514225
 H    3.346548   -4.849778    0.795238
 H    5.357733   -1.612696    0.307217
 H    5.309056   -2.759708    1.668378
 H    5.654597   -3.346219    0.026278
 H   -3.793820    1.718882   -2.748219
 H   -4.995893    1.500617   -1.452779
 H   -3.474673    2.368779   -1.119860
 H   -1.451467    0.135556    1.585387
 H   -1.109174    1.179310    2.971249
 H    0.404576    3.997720    0.020085
 H    2.542949    3.091467    1.597765
 H    3.812952    2.794837   -1.052857
 H    3.839095    1.563024    0.234346
 H   -0.913940   -3.007788   -0.299010
 H   -1.359272    0.509475   -2.005504
 H   -5.106172   -1.876357    1.479198
 H   -5.515941   -2.730380   -0.020961
 H   -4.952079   -3.659392    1.402281
 H    0.730243    1.421132    1.404046
 H   -3.482850    0.536392    3.029775
 H   -3.716536    1.089306    1.369736
 H   -3.380288    2.259849    2.641940
