52 
5ugm_ligand_dft.xyz
 C   -6.485390   -3.507859    0.197349
 C   -3.084800    3.268630   -0.812552
 C    1.539583    2.673614   -0.778607
 C    1.431118   -0.081537   -0.962324
 C    0.246387    0.639002   -0.724841
 C   -0.900858   -0.221920   -0.593814
 C    4.458860   -0.874771    0.004862
 C   -2.666907    2.527637    2.429887
 C   -3.390024    1.856808    1.322785
 C   -3.602092    2.134438    0.011393
 C   -4.514907    0.252088    0.406179
 C   -5.199696   -1.038647    0.353367
 C   -5.770847   -1.457435   -0.852623
 C   -6.410849   -2.687336   -0.926933
 C   -5.917542   -3.091801    1.398575
 C   -5.275416   -1.861515    1.480575
 C   -1.731537    2.933862   -1.429770
 C    0.318359    2.043505   -0.638100
 C    2.704601    1.927464   -1.006246
 C    2.680581    0.543366   -1.105782
 C   -0.586159   -1.528202   -0.733830
 C    3.942553   -0.255135   -1.305137
 C    5.640388   -1.804486   -0.262325
 C    6.630269   -0.378185    1.383251
 N   -4.317179    1.092467   -0.562954
 N    6.720094   -1.471298    0.528277
 O   -3.983040    0.651989    1.583570
 O   -0.801057    2.780073   -0.360670
 O    5.629061   -2.705801   -1.065814
 O    7.510212    0.007554    2.103329
 S    1.108239   -1.800831   -1.029011
 S    5.011003    0.361141    1.235001
 H   -6.985387   -4.469770    0.136199
 H   -2.980801    4.174264   -0.205721
 H   -3.796557    3.486555   -1.615044
 H    1.582136    3.754796   -0.700158
 H   -1.906056    0.135654   -0.415769
 H    3.667645   -1.481819    0.456941
 H   -2.192382    3.436500    2.055529
 H   -1.879000    1.878467    2.825417
 H   -3.341548    2.788065    3.252556
 H   -5.703732   -0.807982   -1.719328
 H   -6.853660   -3.007950   -1.864990
 H   -5.973059   -3.728227    2.276576
 H   -4.830326   -1.535747    2.414884
 H   -1.801924    2.007630   -2.013051
 H   -1.391860    3.737828   -2.096223
 H    3.654030    2.445856   -1.108379
 H   -1.260675   -2.372604   -0.684685
 H    3.777734   -1.082504   -2.005943
 H    4.725686    0.380057   -1.731741
 H    7.585998   -1.992267    0.474464
