52 
5ugm_ligand_xtb.xyz
 C    1.381734   -4.115981    1.214582
 C   -3.944098    1.271991    1.466898
 C   -1.867230    2.318798   -1.338597
 C   -0.726683   -0.135489   -1.748039
 C   -2.111803   -0.064196   -1.506446
 C   -2.718904   -1.354927   -1.584430
 C    2.281245    0.387971   -0.761019
 C   -1.069027    2.905624    2.043493
 C   -1.383549    1.472053    1.840757
 C   -2.545472    0.783110    1.619178
 C   -0.953047   -0.629137    1.643123
 C   -0.153538   -1.828288    1.541528
 C   -0.760788   -3.035616    1.196831
 C    0.007917   -4.170789    1.034539
 C    1.986158   -2.923609    1.579352
 C    1.225187   -1.782541    1.748298
 C   -4.553318    0.756811    0.155201
 C   -2.678166    1.199366   -1.250176
 C   -0.508895    2.217631   -1.612697
 C    0.093352    0.988315   -1.803932
 C   -1.834154   -2.337825   -1.842945
 C    1.567271    0.846938   -2.040211
 C    3.743853    0.104536   -1.032693
 C    3.983048    1.812728    0.617759
 N   -2.244386   -0.545523    1.501235
 N    4.543159    0.913005   -0.264571
 O   -0.371376    0.569534    1.857868
 O   -4.008218    1.398811   -0.984663
 O    4.156737   -0.697061   -1.824595
 O    4.587822    2.564385    1.321218
 S   -0.208621   -1.777348   -2.012156
 S    2.222934    1.657295    0.544163
 H    1.980995   -5.003336    1.076509
 H   -3.959903    2.362298    1.484129
 H   -4.554082    0.896049    2.291010
 H   -2.316048    3.286343   -1.177731
 H   -3.774482   -1.530794   -1.488085
 H    1.797870   -0.518022   -0.381964
 H   -1.907082    3.518523    1.726000
 H   -0.184164    3.168675    1.467567
 H   -0.861541    3.107685    3.094406
 H   -1.829828   -3.052214    1.056896
 H   -0.462003   -5.104417    0.762904
 H    3.054895   -2.884810    1.731978
 H    1.682784   -0.852485    2.052825
 H   -4.414700   -0.327170    0.118877
 H   -5.619239    0.992776    0.113996
 H    0.088090    3.115765   -1.662087
 H   -2.026402   -3.386591   -1.957272
 H    1.757410    0.090002   -2.806231
 H    1.988754    1.798637   -2.369713
 H    5.551984    0.861357   -0.343522
