65 
5uhi_ligand_dft.xyz
 C   -2.424819   -0.889891    2.159650
 C    4.376311   -0.273020   -2.067721
 C    4.622230   -1.494374   -0.020381
 C   -4.588917    0.191086   -0.994808
 C   -5.877504    0.240128    1.028849
 C   -1.472770   -1.874621    2.201665
 C    5.458241    0.531502   -1.724346
 C    5.690289   -0.688884    0.344943
 C   -5.649137   -0.397736   -1.668840
 C   -6.949996   -0.354239    0.367804
 C    8.591400    2.835687    0.114394
 C   -1.393323    0.072474    0.206016
 C    8.967573    1.714044    0.882902
 C   -3.623767    3.181716   -0.570729
 C    7.439462    2.439984   -0.520742
 C   -1.973635    4.311460    0.135824
 C   -0.401944   -0.933980    0.226538
 C    3.942929   -1.294639   -1.226009
 C   -4.693419    0.528073    0.357356
 C   -2.387618    0.103594    1.154353
 C    1.602660   -2.029643   -0.646868
 C   -0.438311   -1.923656    1.238463
 C    6.105772    0.331880   -0.509180
 C   -6.827801   -0.664744   -0.978686
 C    0.669130   -1.032612   -0.713756
 C   -3.073804    2.436350    0.444128
 C    1.434098   -2.957876    0.437597
 C   -1.068342    2.868725    1.964948
 C    2.223546   -4.882149    1.547297
 C    2.763779   -2.173165   -1.603760
 C   -3.501187    1.150547    1.102019
 N   -2.930594    4.346545   -0.761098
 N    8.120740    0.706624    0.736061
 N    0.485822   -2.922605    1.326242
 N    7.190862    1.160746   -0.129420
 N   -2.004417    3.190180    0.901150
 O   -3.844483    1.429053    2.462271
 O    2.363199   -3.928803    0.500505
Cl   -8.165631   -1.413445   -1.818894
Cl    0.774310    0.163738   -1.981355
 H   -3.213870   -0.858613    2.902350
 H    3.872897   -0.106570   -3.015835
 H    4.306572   -2.293806    0.643634
 H   -3.666078    0.387219   -1.531744
 H   -5.962313    0.462579    2.086528
 H   -1.483681   -2.642050    2.968201
 H    5.802075    1.294879   -2.414668
 H    6.215182   -0.840722    1.280485
 H   -5.561889   -0.652189   -2.719294
 H   -7.870201   -0.576128    0.897179
 H    9.082636    3.794058    0.041675
 H   -1.356539    0.835466   -0.564770
 H    9.822100    1.599451    1.535756
 H   -4.488756    2.938022   -1.171291
 H    6.773574    2.969428   -1.184964
 H   -1.222611    5.076692    0.286226
 H   -0.288057    2.191511    1.607991
 H   -1.603350    2.392220    2.787182
 H   -0.612101    3.796106    2.317377
 H    3.047172   -5.582886    1.409881
 H    1.262761   -5.398237    1.474697
 H    2.289616   -4.397366    2.524878
 H    3.075531   -3.220564   -1.613281
 H    2.431485   -1.924070   -2.615511
 H   -4.433057    2.196059    2.445275
