26 
5uiq_ligand_dft.xyz
 C    1.152108    2.587470   -0.189275
 C    2.405990    0.563093    0.033194
 C   -0.025724    1.850972   -0.247518
 C    1.243409   -0.207453   -0.020278
 C    0.007542    0.456061   -0.165523
 C    1.466509   -1.700155    0.088275
 C   -3.368208   -0.828757   -0.667201
 C   -2.748878    0.734211    1.223333
 C    2.377061    1.947831   -0.048379
 C   -2.425543    0.264195   -0.189707
 N    0.381724   -2.512438    0.040079
 O    2.597052   -2.149372    0.219978
 O   -1.116412   -0.312336   -0.244840
 H    1.100795    3.670404   -0.255220
 H    3.340789    0.024499    0.144693
 H   -0.966807    2.375604   -0.358238
 H   -3.093675   -1.161755   -1.671904
 H   -3.330933   -1.688229    0.010989
 H   -4.396545   -0.456047   -0.691091
 H   -2.720688   -0.115813    1.912598
 H   -2.033856    1.482742    1.574777
 H   -3.750816    1.173982    1.253891
 H    3.298140    2.519255   -0.001345
 H   -2.475196    1.101950   -0.896049
 H    0.552272   -3.504044    0.091813
 H   -0.546271   -2.146621   -0.098101
