61 
5ukk_ligand_dft.xyz
 O   -3.192189   -1.752464    0.266453
 C   -3.669665   -0.637854    0.058382
 N   -4.987980   -0.402030    0.027237
 C   -5.943205   -1.465688    0.225723
 C   -7.352519   -0.922962    0.098093
 N   -7.477838    0.385891   -0.119082
 C   -8.708792    0.893594   -0.235025
 C   -9.860853    0.125595   -0.141004
 C   -9.723520   -1.241789    0.085509
 C   -8.449753   -1.777640    0.207780
 C   -2.738184    0.530868   -0.183876
 C   -3.073631    1.867594   -0.375327
 F   -4.356886    2.257485   -0.365556
 C   -1.382219    0.209784   -0.209591
 C   -0.379221    1.151235   -0.411397
 C   -0.768910    2.482749   -0.598274
 C   -2.108744    2.843367   -0.581916
 C    1.099601    0.799544   -0.398716
 C    1.618994    0.590781    1.053858
 C    1.282887   -0.806512    1.577474
 N    1.851260   -1.842648    0.644709
 C    1.276571   -1.767959   -0.743628
 C    1.493654   -0.374204   -1.326413
 C    3.104173    0.909684    1.235949
 O    3.874614   -0.088304    0.579463
 C    5.246006    0.086752    0.481934
 C    5.887176   -0.819456   -0.380310
 C    7.248465   -0.684996   -0.502889
 O    8.097664   -1.430856   -1.248515
 C    9.377592   -0.800127   -1.134551
 O    9.284702    0.184362   -0.111504
 C    7.961073    0.297666    0.184009
 C    7.336178    1.183306    1.023968
 C    5.940058    1.066875    1.173157
 H   -5.384636    0.516936   -0.139114
 H   -5.776374   -2.262189   -0.509940
 H   -5.802111   -1.922333    1.213558
 H   -8.767248    1.964439   -0.411668
 H  -10.837074    0.586023   -0.244186
 H  -10.598017   -1.880180    0.163792
 H   -8.301608   -2.839017    0.383225
 H   -1.182534   -0.842786   -0.057339
 H   -0.019134    3.251813   -0.765180
 H   -2.421797    3.870632   -0.730627
 H    1.628540    1.675703   -0.789040
 H    1.082127    1.294438    1.699866
 H    1.725111   -0.985818    2.560715
 H    0.205775   -0.973678    1.638658
 H    1.714898   -2.778914    1.031284
 H    2.865312   -1.643925    0.593509
 H    0.225084   -2.045335   -0.664838
 H    1.787107   -2.527715   -1.339470
 H    2.551802   -0.273281   -1.583652
 H    0.925590   -0.313341   -2.258669
 H    3.353168    0.927422    2.306023
 H    3.333184    1.895097    0.812328
 H    5.333541   -1.573918   -0.927404
 H   10.122582   -1.547033   -0.855883
 H    9.627253   -0.320576   -2.087668
 H    7.892758    1.943206    1.559155
 H    5.432987    1.755338    1.837834
