50 
5ul5_ligand_xtb.xyz
 C    1.503741   -0.597128    0.060161
 C    2.079537   -1.609782   -2.437375
 C    0.465053   -0.795535   -0.855654
 C   -1.878197   -0.636887   -1.272166
 C   -3.080812    3.707985   -0.805272
 C   -2.940594    2.265383   -1.277901
 O    3.487985   -0.618913    2.072170
 C    3.940864   -0.673339    0.712978
 C    4.666661    0.653703    0.420988
 C    3.712742    1.838242    0.488197
 N    3.184005    1.935715    1.878380
 C    2.812244   -0.906082   -0.267975
 C    3.102620   -1.414364   -1.529013
 C    0.768119   -1.306003   -2.115742
 O   -0.759466   -0.450934   -0.417090
 C   -3.144231   -0.184954   -0.535321
 C   -3.048909    1.284750   -0.110788
 C   -3.401899   -1.105224    0.665764
 C   -4.801847   -0.966047    1.260447
 C   -5.044269   -1.999237    2.354236
 H    1.230666   -0.221661    1.036323
 H    2.302887   -2.010848   -3.413302
 H   -1.744446   -0.054332   -2.191273
 H   -1.965906   -1.697399   -1.540329
 H   -2.314252    3.949148   -0.071032
 H   -2.983296    4.395518   -1.641694
 H   -4.053435    3.865891   -0.345999
 H   -1.978193    2.150417   -1.781355
 H   -3.725973    2.049029   -2.004847
 H    2.990433   -1.421746    2.266986
 H    4.669602   -1.488620    0.620013
 H    5.477746    0.778936    1.139754
 H    5.100783    0.598108   -0.575357
 H    4.213214    2.765079    0.207127
 H    2.873129    1.667297   -0.188278
 H    3.868076    2.369899    2.504029
 H    3.069869    0.910209    2.177979
 H    2.303310    2.451991    1.929990
 H    4.118958   -1.664029   -1.789705
 H   -0.007222   -1.476298   -2.843751
 H   -3.972723   -0.294766   -1.243204
 H   -2.188207    1.405325    0.550370
 H   -3.944125    1.534770    0.458754
 H   -3.272114   -2.141439    0.343376
 H   -2.654627   -0.904708    1.436186
 H   -5.542787   -1.096788    0.469172
 H   -4.935948    0.031566    1.680831
 H   -6.041985   -1.885985    2.769988
 H   -4.952166   -3.007507    1.956920
 H   -4.322398   -1.881188    3.159647
