45 
5ula_ligand_dft.xyz
 C    4.149300   -0.114570    0.056622
 C    6.950523   -0.143685   -0.075430
 C    4.889666    1.031166    0.338333
 C    6.280358    1.027108    0.276320
 C    6.208647   -1.293227   -0.358950
 C    4.825105   -1.289540   -0.296558
 O   -8.267405   -0.446535   -0.224607
 C   -7.063174   -0.607645   -0.173752
 C   -6.329226   -1.894680   -0.553955
 C   -4.858928   -1.643873   -0.188979
 C   -4.831904   -0.179833    0.183778
 C   -6.063727    0.384077    0.222286
 C   -6.413470    1.794931    0.570680
 N   -3.681768    0.534806    0.431404
 C   -2.351009    0.141248    0.316522
 C   -1.894905   -1.133776    0.679528
 C   -0.561206   -1.481115    0.553292
 C   -1.389354    1.059606   -0.139071
Cl   -1.882062    2.672150   -0.613306
 C   -0.047798    0.723884   -0.238636
 C    0.382756   -0.555394    0.109081
 C    1.810502   -1.010979    0.002498
 O    2.078286   -2.189476   -0.170648
 N    2.741377   -0.016074    0.129462
 O    8.300361   -0.266922   -0.168276
 C    9.085647    0.868455    0.110767
 H    4.380819    1.952938    0.612624
 H    6.817605    1.940318    0.503977
 H    6.742079   -2.198175   -0.630215
 H    4.263385   -2.187607   -0.510654
 H   -6.461026   -2.066309   -1.626873
 H   -6.766354   -2.749743   -0.032243
 H   -4.161822   -1.861731   -1.005269
 H   -4.562311   -2.267473    0.660659
 H   -6.058812    2.072750    1.571092
 H   -5.993449    2.513537   -0.146079
 H   -7.501257    1.903855    0.551657
 H   -3.820807    1.536160    0.463034
 H   -2.593786   -1.851283    1.087686
 H   -0.226686   -2.478398    0.817220
 H    0.638103    1.463377   -0.640040
 H    2.396231    0.884523    0.425040
 H    8.865453    1.691977   -0.581442
 H    8.940786    1.216175    1.142236
 H   10.122878    0.557946   -0.020287
