48 
5ulg_ligand_dft.xyz
 C    4.865196   -0.417544    1.153625
 C    2.904064    0.419872   -0.334231
 C   -0.369339    1.681764    0.180696
 C   -4.000203   -1.135477   -0.217991
 C   -3.081641    1.915264   -0.421865
 O    0.501415   -2.467683   -1.150674
 C    1.158600   -1.200147   -1.322863
 C    2.176969   -0.932374   -0.224258
 C    3.817061    0.666195    0.879251
 C    5.801189   -0.691020   -0.023361
 C    1.917638    1.578622   -0.503053
 O    0.926404    1.480775    0.520631
 C   -1.294125    0.793720    0.735545
 C   -0.800621    2.691827   -0.677478
 C   -2.159622    2.803109   -0.964290
 C   -2.646764    0.896850    0.430397
 C   -3.629731   -0.156240    0.909875
 O   -3.095304   -0.967127    1.961163
 C   -2.792998   -1.763603   -0.903951
 N   -1.951165   -2.542550    0.072378
 H    4.374128   -1.349579    1.461668
 H    5.458704   -0.098388    2.017749
 H    3.521987    0.414288   -1.243369
 H   -4.564659   -0.595850   -0.984145
 H   -4.663322   -1.906689    0.189636
 H   -4.137386    2.018515   -0.658491
 H    1.167068   -3.167208   -1.164296
 H    0.348383   -0.467334   -1.306246
 H    1.620884   -1.167083   -2.317047
 H    1.670508   -0.988591    0.746343
 H    2.925441   -1.734792   -0.242390
 H    3.187571    0.796919    1.768371
 H    4.333965    1.622101    0.721518
 H    6.286473    0.231169   -0.362339
 H    6.587201   -1.397490    0.258557
 H    5.269869   -1.119726   -0.881603
 H    2.436468    2.540135   -0.417351
 H    1.432243    1.544721   -1.486366
 H   -0.912569    0.025911    1.401378
 H   -0.089984    3.395651   -1.097830
 H   -2.500536    3.598646   -1.619109
 H   -4.552565    0.323298    1.258195
 H   -2.892827   -0.406210    2.722144
 H   -2.141319   -0.994884   -1.321914
 H   -3.085843   -2.443418   -1.705156
 H   -2.320080   -3.484559    0.213963
 H   -0.961868   -2.604142   -0.273082
 H   -1.993934   -2.060193    0.989310
