59 
5umy_ligand_xtb.xyz
 C   -4.926126   -1.918120   -2.132537
 C   -4.446067   -1.733846   -0.692619
 O   -4.446037   -2.964256   -0.008188
 C   -3.046871   -1.070358   -0.671026
 O   -2.736187   -0.397134   -1.861815
 C   -2.778222    0.388356   -0.678384
 C   -1.396223    0.865455   -0.343388
 C   -1.098691    2.197068   -0.247299
 C    0.229041    2.646220   -0.117453
 O    0.414266    3.957971   -0.003730
 C    1.283901    1.724842   -0.139600
 C    2.647075    2.219865   -0.005836
 O    2.896612    3.430693    0.089664
 C    3.718541    1.232090    0.037842
 C    5.024800    1.677212    0.198375
 C    6.066222    0.779319    0.254363
 C    5.847172   -0.592066    0.147816
 O    6.969782   -1.341022    0.226181
 C    6.945018   -2.750306    0.129177
 C    4.523543   -1.067635   -0.025090
 O    4.309786   -2.387267   -0.133527
 C    3.455205   -0.145620   -0.076259
 C    2.087013   -0.625982   -0.271993
 O    1.870857   -1.854930   -0.415152
 C    1.006748    0.339533   -0.277336
 C   -0.338763   -0.090094   -0.367454
 N   -0.661317   -1.392967   -0.520998
 C   -1.926826   -1.876800   -0.017727
 C   -1.888619   -1.736992    1.492441
 C   -2.802734   -1.352158    2.369658
 C   -4.242970   -1.126215    2.210407
 C   -4.877680    0.026955    2.060809
 C   -4.297444    1.373044    1.954233
 C   -3.926711    1.989892    0.843064
 C   -3.919715    1.394813   -0.540938
 O   -3.804575    2.440059   -1.480551
 H   -5.065679   -0.957883   -2.618824
 H   -4.193806   -2.484867   -2.705073
 H   -5.873271   -2.453070   -2.124916
 H   -5.162393   -1.114730   -0.146857
 H   -4.104381   -3.646380   -0.598796
 H   -1.857059    2.956920   -0.314892
 H    1.398412    4.113298    0.054893
 H    5.199799    2.738591    0.279470
 H    7.084208    1.111025    0.382865
 H    6.557904   -3.081870   -0.835822
 H    6.353633   -3.200085    0.928511
 H    7.986330   -3.055710    0.229155
 H    3.329328   -2.504543   -0.273872
 H    0.135259   -2.027973   -0.510369
 H   -1.999051   -2.936019   -0.290357
 H   -0.893055   -1.944680    1.868600
 H   -2.484235   -1.289830    3.406762
 H   -4.823579   -2.037731    2.294061
 H   -5.963472    0.024944    2.044004
 H   -4.259603    1.922378    2.887962
 H   -3.606210    3.019115    0.881865
 H   -4.866938    0.858609   -0.716650
 H   -3.582646    2.057517   -2.337278
