93 
5uov_ligand_dft.xyz
 C   -1.011975   -4.731670   -0.661239
 O   -0.114907   -5.738932   -0.631477
 C    1.125876   -5.548574   -1.281840
 C   -0.817327   -3.521567   -1.336071
 C   -1.799389   -2.541060   -1.280887
 C   -2.965970   -2.759509   -0.558519
 C   -3.178775   -3.975737    0.090640
 C   -2.205064   -4.957876    0.037233
 S   -4.126855   -1.430961   -0.356361
 O   -4.103201   -0.603201   -1.565135
 O   -5.375324   -2.018198    0.102326
 N   -3.448346   -0.498970    0.829855
 C   -3.451356   -0.990156    2.209324
 C   -2.085528   -0.892630    2.903496
 C   -1.037354   -1.794592    2.250002
 C   -2.251911   -1.235013    4.385862
 C   -3.183776    0.921222    0.590950
 C   -1.766379    1.142993    0.057156
 O   -1.637332    0.739395   -1.300007
 C   -1.210303    2.575099    0.270810
 N    0.213036    2.498950    0.581683
 C    0.576678    2.139778    1.850292
 O   -0.228575    2.115984    2.775356
 C   -1.459818    3.532552   -0.899063
 C   -3.746098    4.380778   -0.259730
 C   -5.121845    4.461346   -0.448044
 C   -5.712061    3.852741   -1.553145
 C   -4.915680    3.175886   -2.471881
 C   -3.538769    3.101495   -2.281108
 C   -2.937462    3.693137   -1.169038
 C    2.003798    1.726257    2.056780
 C    2.276173    0.953511    3.188487
 C    3.552006    0.450435    3.403130
 C    4.559614    0.692927    2.473679
 C    4.299828    1.476816    1.351256
 C    3.030357    2.019291    1.161381
 C    5.362370    1.739899    0.318690
 O    5.766694    2.867109    0.086584
 N    5.841324    0.635789   -0.335975
 C    6.766644    0.820564   -1.460326
 C    6.458220   -0.353246   -2.390530
 C    5.972495   -1.439950   -1.428837
 C    5.142936   -0.653476   -0.395685
 C    3.701312   -0.479342   -0.822675
 N    3.320099    0.373812   -1.722147
 C    1.948413    0.375929   -1.866665
 C    1.286763   -0.498111   -1.055130
 S    2.404885   -1.368687   -0.074218
 C    1.310209    1.308449   -2.850056
 H    1.695449   -6.461423   -1.107274
 H    0.993285   -5.404337   -2.360994
 H    1.667993   -4.691899   -0.862579
 H    0.089776   -3.326078   -1.895901
 H   -1.645360   -1.595220   -1.787259
 H   -4.107089   -4.144966    0.626098
 H   -2.342175   -5.912459    0.533306
 H   -4.202845   -0.429706    2.782954
 H   -3.782280   -2.033949    2.201647
 H   -1.734021    0.145650    2.844465
 H   -1.304070   -2.853291    2.359183
 H   -0.056676   -1.640368    2.713600
 H   -0.938519   -1.594625    1.178886
 H   -1.294472   -1.147061    4.909038
 H   -2.612522   -2.263387    4.516008
 H   -2.963364   -0.561677    4.876209
 H   -3.934759    1.348445   -0.078871
 H   -3.287037    1.426919    1.555530
 H   -1.118405    0.487668    0.647950
 H   -2.519534    0.501335   -1.634177
 H   -1.674986    2.985486    1.170297
 H    0.816017    2.192926   -0.171183
 H   -0.954494    3.158242   -1.794469
 H   -1.008085    4.497436   -0.643823
 H   -3.292246    4.853548    0.608702
 H   -5.734756    4.999250    0.269346
 H   -6.786587    3.908379   -1.698237
 H   -5.366268    2.696906   -3.335677
 H   -2.922309    2.561827   -2.994613
 H    1.467484    0.756188    3.884112
 H    3.760264   -0.143695    4.287549
 H    5.553195    0.277836    2.621188
 H    2.863900    2.653568    0.295729
 H    7.800382    0.794361   -1.095337
 H    6.593131    1.797001   -1.916171
 H    7.327186   -0.663916   -2.975803
 H    5.652875   -0.077485   -3.076922
 H    5.384897   -2.224987   -1.911254
 H    6.821792   -1.909815   -0.920342
 H    5.161531   -1.153391    0.576966
 H    0.217753   -0.640645   -0.984723
 H    0.221857    1.256452   -2.768580
 H    1.636661    2.339077   -2.669237
 H    1.606212    1.054383   -3.873360
