53 
5upe_ligand_xtb.xyz
 N   -3.494333    1.850615    0.722459
 C   -1.222006    1.892532   -0.056482
 C   -0.443588    1.880442   -1.210333
 C    0.861991    1.433531   -1.190619
 C   -2.624100    2.394423   -0.163728
 C   -4.904024    2.162141    0.708806
 C   -5.743498   -0.226378    1.022040
 C   -8.845348   -2.254891    0.244645
 C   -7.023568   -3.137820   -1.032760
 C    5.394120   -0.119170    0.872110
 C    8.829189   -1.443480    1.444400
 C    9.107863   -1.751307    0.088043
 C    8.199571   -1.518302   -0.898151
 C    5.840445   -0.592272   -1.273485
 O   -2.953682    3.230335   -0.982199
 C   -5.753895    1.025718    0.136098
 C   -6.654305   -1.275372    0.449517
 C   -6.177848   -2.195899   -0.474740
 C   -8.360142   -3.169664   -0.674106
 C   -7.997377   -1.313843    0.800657
 C   -0.651397    1.474391    1.142220
 C    0.657061    1.036668    1.173737
 C    1.421825    1.000913    0.008127
 N    2.737223    0.539097    0.116083
 C    3.649005    0.359213   -0.877691
 O    3.460922    0.533895   -2.055004
 N    4.903075   -0.094444   -0.408997
 C    6.952617   -0.953928   -0.547118
 C    6.668935   -0.642832    0.832328
 C    7.640791   -0.900652    1.825383
 H   -3.194369    1.085373    1.303325
 H   -0.885453    2.231117   -2.130218
 H    1.449465    1.419190   -2.092595
 H   -5.012182    3.052884    0.085633
 H   -5.228396    2.395785    1.728672
 H   -6.074248    0.043454    2.027975
 H   -4.728263   -0.624336    1.086496
 H   -9.887367   -2.274806    0.529147
 H   -6.638400   -3.848989   -1.748995
 H    4.861324    0.273863    1.715349
 H    9.589909   -1.651181    2.182988
 H   10.069838   -2.180670   -0.151408
 H    8.410626   -1.752079   -1.930706
 H    5.628720   -0.651438   -2.321347
 H   -5.385715    0.770827   -0.859243
 H   -6.781288    1.378971    0.032352
 H   -5.134648   -2.175845   -0.757897
 H   -9.020967   -3.905050   -1.108483
 H   -8.380697   -0.602144    1.518430
 H   -1.211126    1.517383    2.065506
 H    1.094698    0.722439    2.111676
 H    3.014183    0.276811    1.051844
 H    7.430782   -0.667241    2.858907
