57 
5upf_ligand_dft.xyz
 N    2.487205   -0.558409   -0.098429
 C   -5.347027   -1.265253   -1.500302
 C   -3.840933   -1.005615   -1.525511
 C   -3.177914   -1.481738   -0.221821
 C   -3.901364   -0.863019    0.986527
 C   -5.410140   -1.115200    0.927476
 C   -0.773279   -2.263620   -0.093529
 C    3.195240    0.598100   -0.232046
 C    6.585136   -0.373226    0.572295
 C    8.962754   -0.584413    0.821606
 C    6.773703    0.801171   -0.246527
 C    5.520627    1.258956   -0.600405
 C    0.187053    0.343003   -0.250412
 F   10.389649    0.963157   -0.238991
 C    9.124482    0.572037   -0.002493
 C    7.717294   -1.054434    1.109852
 C    8.090380    1.268507   -0.537737
 C    5.223933   -0.591044    0.672867
 N    4.598052    0.405330   -0.045341
 O    2.752198    1.693557   -0.493798
 C    1.084906   -0.721807   -0.145503
 C    0.594273   -2.026218   -0.067089
 C   -1.177482    0.081472   -0.273209
 C   -1.688339   -1.216137   -0.196244
 N   -5.960391   -0.636988   -0.335381
 C   -6.767406    0.445644   -0.542693
 O   -6.983644    0.875685   -1.669457
 C   -7.403106    1.186571    0.659255
 O   -7.838020    0.221070    1.615173
 C   -6.359977    2.134432    1.271066
 C   -8.610107    1.980221    0.159905
 H    3.023552   -1.413126   -0.078126
 H   -5.540119   -2.346116   -1.445666
 H   -5.832025   -0.868470   -2.390672
 H   -3.673859    0.070169   -1.661794
 H   -3.387821   -1.515044   -2.383477
 H   -3.323734   -2.570939   -0.162801
 H   -3.719427    0.219686    1.006243
 H   -3.495160   -1.275744    1.917306
 H   -5.932000   -0.651295    1.759328
 H   -5.604918   -2.195438    0.991436
 H   -1.132685   -3.287797   -0.032499
 H    9.856270   -1.066869    1.202607
 H    5.193078    2.094056   -1.198299
 H    0.555838    1.356558   -0.322226
 H    7.587877   -1.932866    1.734606
 H    8.269746    2.141639   -1.154689
 H    4.669245   -1.295492    1.273912
 H    1.283639   -2.863745    0.015840
 H   -1.858875    0.924170   -0.358195
 H   -8.326726    0.699889    2.296331
 H   -5.511826    1.585836    1.689513
 H   -5.986645    2.830739    0.513879
 H   -6.816952    2.721845    2.076546
 H   -8.320181    2.704406   -0.602056
 H   -9.353082    1.305552   -0.271647
 H   -9.064625    2.517603    1.002257
