47 
5upj_ligand_xtb.xyz
 C    0.550237    1.019068   -0.066959
 C   -0.209638    1.814525   -0.999204
 O    0.252059    2.539336   -1.852373
 O   -1.579114    1.731848   -0.910768
 C   -2.209020    0.936670   -0.029333
 C   -1.532088    0.152878    0.845004
 C   -0.097026    0.194372    0.811163
 O    0.541277   -0.608333    1.685178
 C    2.691998   -0.204735   -0.320975
 C    2.366614   -0.918061   -1.472826
 C    2.886501   -2.177091   -1.699804
 C    3.745898   -2.751125   -0.776198
 C    4.080493   -2.052813    0.368686
 C    3.557155   -0.789536    0.598019
 C    2.058583    1.157330   -0.134935
 C    2.595379    1.966286    1.056102
 C    2.016847    3.376527    1.072856
 C   -3.700228    1.033374   -0.144271
 C   -4.322321   -0.078026   -1.003193
 C   -4.347116   -1.466388   -0.361392
 C   -2.976117   -2.151742   -0.268828
 C   -2.375598   -2.180953    1.136875
 C   -2.216409   -0.796390    1.778687
 H    1.495455   -0.589477    1.512650
 H    1.701736   -0.467024   -2.195465
 H    2.624800   -2.712166   -2.600674
 H    4.154799   -3.734764   -0.951834
 H    4.753222   -2.488807    1.092667
 H    3.846102   -0.263304    1.496198
 H    2.256880    1.742458   -1.041742
 H    2.351684    1.475062    2.002195
 H    3.682751    2.027565    0.972100
 H    0.942239    3.350328    1.239832
 H    2.473477    3.963798    1.866477
 H    2.197620    3.873115    0.122990
 H   -4.154897    1.024974    0.847016
 H   -3.919720    1.991851   -0.618135
 H   -5.352645    0.215640   -1.217343
 H   -3.790870   -0.128273   -1.955332
 H   -5.008378   -2.086097   -0.971156
 H   -4.798200   -1.402620    0.630124
 H   -3.068788   -3.187672   -0.602119
 H   -2.279436   -1.660621   -0.950230
 H   -3.003680   -2.792955    1.787625
 H   -1.393652   -2.655037    1.080111
 H   -1.615886   -0.899760    2.682762
 H   -3.193234   -0.404038    2.058142
