54 
5ur9_ligand_dft.xyz
 C   -1.118138   -0.429841    0.266414
 C    0.570958    2.865459    0.879906
 C    1.706247    3.625698    0.610691
 O    1.080294   -1.192113    0.524252
 C    2.310864   -1.713138    0.137640
 O   -4.409700    1.846700   -1.454257
 C   -3.510573    1.892060   -0.456487
 O   -3.709349    2.485719    0.577481
 C   -2.281996    1.090816   -0.788418
 C   -1.150066    1.144517    0.256638
 C    0.085292    1.946351   -0.053478
 C    0.762763    1.809999   -1.270225
 C    1.902777    2.559489   -1.536370
 C    2.377627    3.471291   -0.597911
 C    0.083661   -1.065077   -0.383743
 O    0.166768   -1.401973   -1.537647
 C    2.417544   -2.967447   -0.396365
 C    3.696759   -3.485835   -0.697987
 C    4.824723   -2.748863   -0.450813
 C    4.729625   -1.447308    0.106681
 C    5.879291   -0.659793    0.377121
 C    5.759779    0.597499    0.909201
 C    4.481855    1.131690    1.194498
 C    3.349849    0.398683    0.951913
 C    3.447885   -0.905751    0.405341
 C   -2.392191   -0.468172   -0.613749
 C   -3.645015   -1.018036    0.015017
 C   -4.484567   -1.847225   -0.731459
 C   -5.653728   -2.363331   -0.181397
 C   -6.002287   -2.054097    1.129767
 C   -5.177230   -1.223410    1.882964
 C   -4.009149   -0.709434    1.329842
 H   -1.225794   -0.848787    1.269610
 H    0.049632    2.991494    1.825425
 H    2.063491    4.339505    1.347366
 H   -5.193042    2.327121   -1.141450
 H   -1.956979    1.341454   -1.801442
 H   -1.568953    1.488442    1.205922
 H    0.410309    1.100272   -2.013015
 H    2.422123    2.428029   -2.480543
 H    3.269140    4.054657   -0.807211
 H    1.526499   -3.552531   -0.590271
 H    3.775033   -4.479769   -1.127051
 H    5.807735   -3.152760   -0.676886
 H    6.858753   -1.075013    0.154510
 H    6.647953    1.188700    1.112112
 H    4.393184    2.132703    1.605450
 H    2.371033    0.812656    1.163779
 H   -2.202906   -0.979249   -1.559358
 H   -4.217771   -2.090958   -1.756584
 H   -6.290562   -3.009563   -0.778304
 H   -6.912109   -2.458349    1.563402
 H   -5.441778   -0.973846    2.906173
 H   -3.384441   -0.051639    1.928348
