62 
5urj_ligand_dft.xyz
 C   -3.517116   -1.912005   -1.060916
 C   -4.926906   -1.946485   -1.603683
 C   -5.573603   -0.563485   -1.529652
 C   -5.285345    0.040901   -0.163932
 C   -1.783098   -0.795042    0.204382
 N    0.447279   -1.727696    0.394376
 C    1.179644   -0.485001    0.145787
 C    3.547946   -0.091326   -0.655082
 C    5.798551    0.476790   -1.413924
 C    6.839085    3.338393    0.854223
 C    6.316490    4.442223    0.181113
 C    5.639126    4.262612   -1.019772
 C    5.459208   -1.214763    0.353556
 C    4.503622   -1.957182    1.133567
 C   -0.343618   -4.045137   -1.184150
 C   -1.291536   -2.923918   -0.858187
 C   -2.603209   -2.932423   -1.322671
 O   -3.879725    0.231738    0.020589
 C   -3.085594   -0.834015   -0.285894
 C   -0.897788   -1.827106   -0.076892
 C    2.654161   -0.757279    0.114181
 N    4.888727   -0.314310   -0.576939
 C    5.996989    1.873650   -0.873480
 C    6.682720    2.061157    0.330445
 C    5.478956    2.980827   -1.542876
 O    6.679247   -1.323520    0.437322
 C    3.160759   -1.736965    1.020247
 N    2.212341   -2.424340    1.758849
 C    0.882765   -2.605685    1.358844
 O    0.212888   -3.497399    1.842903
 C   -5.917078    1.396926    0.058855
 N   -6.454473    2.037971   -0.977422
 C   -6.994092    3.242008   -0.779854
 C   -7.023276    3.872522    0.459017
 C   -6.470404    3.215152    1.552355
 C   -5.917619    1.967327    1.332130
 F   -5.391044    1.287531    2.356970
 H   -4.920499   -2.308971   -2.637538
 H   -5.524909   -2.664658   -1.026613
 H   -6.653644   -0.622892   -1.688975
 H   -5.170711    0.104210   -2.296877
 H   -5.633701   -0.647562    0.620929
 H   -1.486243    0.046217    0.822098
 H    0.947442    0.256064    0.926199
 H    0.831262   -0.077456   -0.806159
 H    3.240569    0.672073   -1.363315
 H    6.740501   -0.072902   -1.432091
 H    5.388017    0.506355   -2.427815
 H    7.372042    3.475298    1.790456
 H    6.441225    5.439347    0.592892
 H    5.232567    5.118484   -1.550459
 H    4.910833   -2.693648    1.816755
 H   -0.716833   -4.639562   -2.022850
 H   -0.215676   -4.704133   -0.319240
 H    0.646991   -3.659682   -1.448848
 H   -2.930808   -3.768425   -1.938204
 H    7.090364    1.195262    0.844944
 H    4.952509    2.844054   -2.485274
 H    2.522828   -3.149253    2.390683
 H   -7.422729    3.721889   -1.655808
 H   -7.473061    4.853444    0.569198
 H   -6.463791    3.644702    2.548207
