62 
5urj_ligand_xtb.xyz
 C   -3.502935   -2.031455   -0.829053
 C   -4.933158   -2.102300   -1.288341
 C   -5.524256   -0.698097   -1.339504
 C   -5.231660    0.002900   -0.017698
 C   -1.726611   -0.860059    0.295859
 N    0.502416   -1.788791    0.443020
 C    1.188277   -0.525565    0.232133
 C    3.490129    0.009717   -0.671706
 C    5.655162    0.698466   -1.505936
 C    6.584986    3.372403    0.994641
 C    5.951423    4.487920    0.471308
 C    5.229741    4.382135   -0.704653
 C    5.463579   -1.189415    0.047850
 C    4.583954   -2.011194    0.822349
 C   -0.341768   -4.119173   -1.076867
 C   -1.272828   -3.005209   -0.716251
 C   -2.601556   -3.045634   -1.111185
 O   -3.833023    0.149967    0.199877
 C   -3.051154   -0.920429   -0.119097
 C   -0.845780   -1.892670    0.013831
 C    2.662418   -0.753787    0.083409
 N    4.823299   -0.194034   -0.711758
 C    5.772469    2.043212   -0.837186
 C    6.496687    2.155723    0.343981
 C    5.137299    3.162965   -1.354724
 O    6.677611   -1.303595   -0.001290
 C    3.234701   -1.810893    0.845309
 N    2.367928   -2.589026    1.574453
 C    1.013885   -2.729455    1.285474
 O    0.386665   -3.652942    1.755388
 C   -5.805509    1.400452    0.033712
 N   -6.244534    1.944897   -1.088023
 C   -6.716547    3.178739   -1.069306
 C   -6.775727    3.957221    0.076116
 C   -6.327326    3.406614    1.265703
 C   -5.840923    2.111844    1.232475
 F   -5.419508    1.537837    2.371886
 H   -4.986316   -2.575538   -2.270570
 H   -5.508070   -2.723405   -0.593425
 H   -6.600449   -0.723194   -1.504356
 H   -5.067278   -0.120137   -2.143312
 H   -5.650707   -0.584786    0.816814
 H   -1.411133    0.003764    0.858484
 H    1.016102    0.149866    1.086512
 H    0.770917   -0.054782   -0.661254
 H    3.114861    0.829485   -1.267586
 H    6.637185    0.219476   -1.567943
 H    5.226294    0.794320   -2.506761
 H    7.151672    3.452386    1.910370
 H    6.022312    5.438779    0.978313
 H    4.736014    5.249665   -1.117387
 H    5.045446   -2.799937    1.394823
 H   -0.751399   -4.710627   -1.891656
 H   -0.192613   -4.767724   -0.213784
 H    0.631840   -3.730648   -1.373500
 H   -2.951495   -3.899585   -1.673851
 H    6.992140    1.283108    0.742910
 H    4.575956    3.086954   -2.275928
 H    2.751935   -3.336208    2.136968
 H   -7.060444    3.554596   -2.023068
 H   -7.162848    4.963156    0.044002
 H   -6.349960    3.951885    2.196706
