59 
5usf_ligand_dft.xyz
 C    5.102424    0.249133    1.332222
 C    6.256751    0.801413    0.793471
 C    6.866539    0.194395   -0.306620
 O    7.984605    0.775032   -0.788053
 C    6.308304   -0.964336   -0.856086
 C    5.151777   -1.502950   -0.308851
 C    4.528596   -0.909492    0.792687
 C    3.236222   -1.460515    1.346886
 C    2.052409   -1.098826    0.444049
 N    2.029215    0.385130    0.208481
 C    0.706533   -1.475649    1.083258
 O    0.604528   -1.677283    2.270356
 N   -0.414696   -1.469779    0.275952
 S   -0.507478   -1.396786   -1.403890
 O   -0.194078   -2.685482   -1.960703
 O    0.209026   -0.216453   -1.841213
 O   -2.046112   -1.053744   -1.544945
 C   -3.048772   -2.067894   -1.237756
 C   -3.925883   -1.541378   -0.116379
 O   -3.104291   -1.222207    1.008643
 C   -4.710786   -0.268980   -0.456697
 O   -6.007268   -0.644161   -0.863048
 C   -4.722979    0.492005    0.884986
 O   -5.743372   -0.006791    1.703255
 C   -3.407278    0.064799    1.537905
 N   -2.276841    0.961890    1.328324
 C   -1.150916    0.939276    2.116603
 N   -0.146266    1.626236    1.635058
 C   -0.641453    2.149840    0.452377
 C   -1.947244    1.736431    0.226217
 N   -2.679062    2.031904   -0.847416
 C   -2.005651    2.766013   -1.730031
 N   -0.750731    3.225685   -1.640328
 C   -0.048946    2.934205   -0.548884
 N    1.263945    3.335392   -0.466007
 H    4.656204    0.712461    2.210289
 H    6.710035    1.688817    1.221291
 H    8.347422    0.256533   -1.517183
 H    6.781458   -1.448056   -1.706838
 H    4.737809   -2.410593   -0.742417
 H    3.042146   -1.081349    2.354628
 H    3.265016   -2.551494    1.426919
 H    2.172825   -1.561479   -0.539650
 H    1.507666    0.604724   -0.653847
 H    1.548096    0.890743    0.983162
 H    2.994906    0.729363    0.115803
 H   -1.319720   -1.582493    0.753255
 H   -2.558656   -3.008296   -0.973014
 H   -3.631809   -2.217101   -2.147791
 H   -4.634892   -2.328011    0.166068
 H   -4.193878    0.326475   -1.212684
 H   -6.362034    0.031249   -1.453755
 H   -4.787405    1.578506    0.752499
 H   -6.455565   -0.294547    1.108926
 H   -3.540324   -0.036682    2.615806
 H   -1.119310    0.357925    3.029348
 H   -2.538415    3.034190   -2.637352
 H    1.519528    4.007617   -1.180527
 H    1.577423    3.598645    0.460363
