66 
5ut4_ligand_xtb.xyz
 F    1.004792   -2.143146    2.494523
 C    2.072189   -1.830073    1.690184
 C    2.889352   -2.914910    1.232828
 C    3.982454   -2.445873    0.428005
 C    4.211210   -1.148417    0.107876
 C    3.335479   -0.122229    0.541160
 C    2.268445   -0.527186    1.378287
 C    3.504545    1.238675    0.137813
 C    2.384237    2.133815    0.055937
 N    1.153608    1.668841    0.233542
 C    0.119317    2.511716    0.134298
 C    0.332334    3.875942   -0.121375
 N    1.522157    4.365477   -0.344393
 C    2.581304    3.511050   -0.305530
 C    3.854651    3.971320   -0.621661
 C    4.919697    3.085891   -0.589262
 C    4.751749    1.763352   -0.227134
 C   -1.170542    1.885992    0.298575
 C   -2.449756    2.334892   -0.034110
 N   -3.328674    1.349103    0.253736
 N   -2.652497    0.301758    0.747532
 C   -1.356423    0.588428    0.792580
 C   -4.742752    1.266064   -0.017705
 C   -5.044135    0.041513   -0.904412
 C   -5.493035   -1.168918   -0.072255
 N   -4.807642   -1.137733    1.212975
 C   -5.337134   -0.082029    2.076773
 C   -5.568738    1.210031    1.275173
 F    4.828503   -3.393224   -0.067889
 C    2.665959   -4.222569    1.527396
 N   -0.265208   -3.279594   -2.112081
 C    0.309995   -2.264244   -1.241755
 C    0.054492   -0.847320   -1.765216
 O   -1.340703   -0.619796   -1.947493
 C   -1.870869   -1.555501   -2.865058
 C   -1.664125   -2.990895   -2.362023
 H    5.046405   -0.919142   -0.535341
 H    1.619497    0.219821    1.802960
 H   -0.491959    4.580063   -0.141289
 H    3.986206    5.007534   -0.890132
 H    5.910445    3.441740   -0.836662
 H    5.620046    1.123524   -0.182981
 H   -2.766544    3.265334   -0.456168
 H   -0.623237   -0.098193    1.162399
 H   -4.997605    2.183730   -0.555496
 H   -4.139710   -0.202559   -1.462641
 H   -5.823790    0.290278   -1.623270
 H   -5.228444   -2.090588   -0.592349
 H   -6.585014   -1.155504    0.057036
 H   -3.217149   -0.544041    0.975825
 H   -4.867995   -2.034596    1.682889
 H   -4.609691    0.086409    2.875658
 H   -6.285141   -0.378086    2.546619
 H   -6.617629    1.282587    0.985907
 H   -5.338410    2.074228    1.898186
 H    1.829622   -4.518723    2.133026
 H    3.325777   -4.991038    1.170878
 H    0.244621   -3.299422   -2.991309
 H    1.381074   -2.438504   -1.146562
 H   -0.150175   -2.381121   -0.256858
 H    0.568167   -0.709867   -2.729144
 H    0.412929   -0.093026   -1.063381
 H   -1.380575   -1.433851   -3.844425
 H   -2.933318   -1.323332   -2.977044
 H   -2.197097   -3.118499   -1.413760
 H   -2.056935   -3.705517   -3.087856
