39 
5uv1_ligand_xtb.xyz
 C    0.232392   -1.675292   -0.897564
 O    0.552684   -0.307889   -1.189684
 C   -1.232214   -1.798734   -0.621884
 F   -1.947409   -1.768877   -1.786720
 C   -1.896946   -1.839626    0.529452
 C   -1.229038   -1.947676    1.861909
 C   -3.405542   -1.799121    0.554847
 C   -3.976948   -0.499800   -0.044162
 C   -3.472228    0.735560    0.634310
 C   -2.851306    1.775250    0.074194
 C   -2.526943    3.009276    0.872953
 C   -2.471980    1.879797   -1.374172
 P    0.837507    0.756054   -0.056564
 O   -0.299177    0.708764    1.023277
 O    1.169493    2.052685   -0.648293
 O    2.013971    0.142957    0.835396
 P    3.437520   -0.179094    0.095339
 O    3.630716    0.977788   -0.937727
 O    3.509294   -1.549689   -0.390544
 O    4.452406    0.151453    1.265489
 H    0.848607   -2.036806   -0.075237
 H    0.487607   -2.220416   -1.809891
 H   -1.533362   -2.880215    2.337938
 H   -0.147346   -1.924198    1.792848
 H   -1.547992   -1.125851    2.499930
 H   -3.745280   -1.903065    1.585731
 H   -3.804086   -2.636712   -0.022186
 H   -3.770958   -0.470240   -1.110748
 H   -5.064196   -0.532294    0.077521
 H   -3.694430    0.779264    1.694536
 H   -1.487912    3.304485    0.732299
 H   -3.148085    3.836328    0.528817
 H   -2.714027    2.861287    1.933635
 H   -3.124138    2.593264   -1.877743
 H   -2.539806    0.930363   -1.894849
 H   -1.449702    2.246759   -1.465713
 H   -1.171152    1.024184    0.722190
 H    2.901540    1.626399   -0.940513
 H    4.855434   -0.653392    1.587689
