39 
5uv1_ligand_dft.xyz
 C   -0.220196   -1.821236   -0.946785
 O    0.286492   -0.502921   -1.261781
 C   -1.676676   -1.735555   -0.644148
 F   -2.384806   -1.475492   -1.777088
 C   -2.319518   -1.774380    0.522909
 C   -1.649797   -2.088565    1.831951
 C   -3.796646   -1.447279    0.590416
 C   -4.133343   -0.022538    0.096379
 C   -3.323253    1.073193    0.735124
 C   -2.556111    1.984043    0.108362
 C   -1.919018    3.124605    0.865001
 C   -2.292185    1.996897   -1.378720
 P    0.878160    0.451573   -0.136848
 O   -0.120806    0.434309    1.091497
 O    1.282406    1.757493   -0.702858
 O    2.102334   -0.340004    0.545662
 P    3.671942   -0.170572    0.054628
 O    3.876489    1.395198    0.025336
 O    3.976916   -0.984047   -1.129216
 O    4.448065   -0.582092    1.385357
 H    0.350320   -2.263186   -0.128726
 H   -0.048520   -2.404727   -1.851991
 H   -2.113508   -2.978093    2.275530
 H   -0.575974   -2.262778    1.754187
 H   -1.795728   -1.263108    2.537852
 H   -4.129357   -1.562004    1.628294
 H   -4.375053   -2.162994   -0.004916
 H   -4.033663    0.010064   -0.988768
 H   -5.192867    0.163942    0.316589
 H   -3.442911    1.173131    1.816218
 H   -0.837209    3.157020    0.690782
 H   -2.325638    4.078710    0.506933
 H   -2.100095    3.058206    1.941804
 H   -2.935344    2.736624   -1.871787
 H   -2.455497    1.027555   -1.852433
 H   -1.255816    2.292614   -1.575208
 H   -1.049624    0.656645    0.850171
 H    3.093847    1.848906   -0.366947
 H    4.939657   -1.400717    1.234594
