39 
5uv2_ligand_dft.xyz
 C    0.719237   -1.094361    0.651548
 O   -0.448524   -1.855829    0.231217
 C    1.921821   -1.645371   -0.022150
 F    2.261269   -2.857712    0.480223
 C    2.660458   -1.077535   -0.975685
 C    3.904433   -1.744590   -1.493888
 C    2.318656    0.267920   -1.570068
 C    3.090968    1.438691   -0.916542
 C    2.892101    1.531916    0.574979
 C    1.892259    2.144552    1.218309
 C    0.767819    2.877646    0.531914
 P   -1.902367   -1.408484    0.610717
 P   -2.217804    0.995650   -0.912318
 C    1.799843    2.125877    2.722013
 O   -1.976264   -1.639739    2.186752
 O   -2.674452    2.430900   -0.391699
 O   -2.980051   -2.005109   -0.205595
 O   -1.040987    0.992198   -1.796237
 O   -1.925144    0.213241    0.507868
 O   -3.579817    0.369342   -1.403658
 H    0.816952   -1.196900    1.736417
 H    0.570778   -0.047988    0.395602
 H    3.774247   -2.011895   -2.549528
 H    4.152265   -2.648943   -0.937039
 H    4.756434   -1.055912   -1.441396
 H    2.570333    0.241929   -2.637662
 H    1.244824    0.467374   -1.523011
 H    2.782952    2.365455   -1.412990
 H    4.162237    1.325199   -1.121171
 H    3.632029    1.010208    1.181285
 H    0.830017    3.955241    0.733904
 H    0.754016    2.723285   -0.549770
 H   -0.193271    2.533927    0.937452
 H    0.884263    1.614256    3.048416
 H    2.655760    1.619948    3.177919
 H    1.750008    3.144883    3.126959
 H   -2.884066   -1.606141    2.519180
 H   -2.001101    3.090302   -0.609817
 H   -3.611188   -0.600797   -1.224498
