62 
5uwk_ligand_xtb.xyz
 C   -0.696503   -2.028090   -0.900891
 C   -2.075514   -1.931421   -0.917749
 C    5.646616   -1.345261    0.041686
 C    2.118098   -1.435527    1.338961
 C    3.487177   -1.261555    1.295424
 C    3.578705   -2.510958   -0.745453
 C    1.453933   -2.124516    0.325760
 C   -2.387844    0.965297   -0.451356
 O   -1.803463    1.174893   -1.607420
 O   -1.798835    0.834759    0.599122
 C   -3.909395    0.900225   -0.550856
 C   -4.539232    2.313904   -0.594367
 C   -4.380669    2.929208   -1.981090
 C   -3.951067    3.227211    0.478504
 N   -4.460064    0.128699    0.539300
 S   -4.498167   -1.526978    0.302193
 O   -5.125768   -2.091438    1.458376
 O   -5.074303   -1.750063   -0.990056
 C   -2.769304   -1.974965    0.275152
 C   -2.118592   -2.165591    1.477790
 C   -0.741908   -2.273663    1.492548
 C   -0.013579   -2.169083    0.307189
 C    4.229212   -1.762824    0.231433
 C    2.211648   -2.695048   -0.696250
 S    5.669464   -0.057117   -1.294407
 C    4.253526    0.836286   -0.705075
 N    4.333943    1.502818    0.393651
 C    3.178573    2.042971    0.841416
 C    3.061784    2.847922    2.093753
 C    1.542405    2.903382    2.335002
 C    0.881675    2.593450    0.977379
 C    1.970923    1.910960    0.215486
 C    1.873089    1.184352   -1.010015
 N    3.115882    0.691981   -1.421143
 O    0.880606    0.953920   -1.689132
 H   -0.144509   -1.932389   -1.823206
 H   -2.621464   -1.800988   -1.838911
 H    6.286282   -2.138346   -0.340127
 H    6.077239   -0.897382    0.934696
 H    1.549670   -0.986731    2.138967
 H    3.984169   -0.698570    2.072056
 H    4.150800   -2.920060   -1.566091
 H   -0.806878    1.154341   -1.561275
 H   -4.185364    0.368021   -1.465396
 H   -5.603993    2.169821   -0.386576
 H   -3.330225    3.005246   -2.249885
 H   -4.816972    3.925204   -1.998027
 H   -4.882557    2.320257   -2.728400
 H   -4.488554    4.172591    0.496282
 H   -2.901941    3.433883    0.276886
 H   -4.029228    2.769672    1.461201
 H   -4.044889    0.353719    1.432574
 H   -2.703872   -2.212834    2.382613
 H   -0.224904   -2.428403    2.427550
 H    1.722689   -3.276001   -1.463428
 H    3.483448    3.840961    1.919664
 H    3.612045    2.398940    2.919172
 H    1.259088    2.137902    3.057408
 H    1.228252    3.867776    2.728008
 H    0.584684    3.508120    0.456413
 H   -0.002864    1.963203    1.074145
 H    3.132317    0.146518   -2.276946
