62 
5uwm_ligand_xtb.xyz
 O    7.496786    1.357238   -0.817234
 C    7.050852    0.441560   -0.156303
 N    7.424014   -0.840146   -0.287182
 C    8.381572   -1.274239   -1.273934
 C    5.988353    0.622988    0.954910
 C    5.775481    2.097736    1.328138
 C    5.008544    2.203584    2.644725
 C    5.072323    2.891491    0.227227
 N    4.745702   -0.010264    0.568379
 C    4.501954   -1.325317    0.725383
 O    5.334506   -2.119800    1.147668
 C    3.146924   -1.739217    0.349705
 O    2.257338   -0.826524   -0.109348
 C    1.102244   -1.477492   -0.371722
 C    1.250508   -2.815832   -0.079605
 C    2.565729   -2.982889    0.383951
 C   -0.025799   -0.725953   -0.882135
 C   -1.241091   -1.353292   -1.163091
 C   -2.307989   -0.627987   -1.652214
 C   -2.191527    0.739618   -1.875703
 C   -0.984539    1.369669   -1.589712
 C    0.084845    0.649307   -1.102353
 C   -3.349560    1.528812   -2.386221
 S   -4.103874    2.533233   -1.046469
 C   -5.072845    1.322127   -0.241270
 N   -5.709770    1.722565    0.881967
 C   -6.540044    0.884622    1.663021
 O   -7.072546    1.324686    2.657535
 C   -6.611684   -0.431494    1.097078
 C   -7.360777   -1.616308    1.621351
 C   -7.315592   -2.608235    0.442729
 C   -6.133164   -2.166492   -0.437695
 C   -5.934337   -0.736412   -0.044386
 N   -5.155896    0.128240   -0.735362
 H    6.968996   -1.545030    0.286275
 H    9.225442   -1.769691   -0.791073
 H    7.920098   -1.966630   -1.980743
 H    8.735465   -0.393183   -1.807258
 H    6.358835    0.078694    1.834319
 H    6.774555    2.524262    1.459733
 H    4.028147    1.739160    2.556125
 H    4.869840    3.247234    2.915789
 H    5.548846    1.709606    3.449065
 H    5.116295    3.952455    0.460575
 H    5.570497    2.731368   -0.724381
 H    4.021352    2.618646    0.140371
 H    4.046845    0.569044    0.131411
 H    0.512308   -3.583640   -0.183701
 H    3.039972   -3.886646    0.705841
 H   -1.347070   -2.413416   -0.996419
 H   -3.246941   -1.117428   -1.858292
 H   -0.889593    2.434199   -1.748797
 H    1.018156    1.146593   -0.887956
 H   -3.044743    2.261951   -3.132403
 H   -4.143283    0.890872   -2.768009
 H   -6.852894   -2.014005    2.503974
 H   -8.376779   -1.356822    1.917076
 H   -8.240806   -2.533876   -0.129572
 H   -7.210309   -3.637339    0.780237
 H   -6.331791   -2.274652   -1.503406
 H   -5.225042   -2.729993   -0.207858
 H   -5.603740    2.676845    1.207765
