63 
5uzk_ligand_dft.xyz
 C    6.265193    1.595222    0.770589
 C    5.040250    2.187624    1.075080
 C    3.862514    1.455616    0.946267
 C    3.920350    0.131842    0.503103
 C    5.142993   -0.441203    0.157875
 C    6.324573    0.289000    0.310621
 O    5.273621   -1.703453   -0.333103
 C    4.159959   -2.288094   -0.990245
 C    3.314354   -3.184686   -0.086217
 C    2.013295   -3.584944   -0.797306
 C    0.938226   -2.488808   -0.719066
 C   -0.010372   -2.486884   -1.922838
 C   -1.008517   -1.342543   -1.814949
 N   -1.775118   -1.434028   -0.541871
 C   -0.921154   -1.486606    0.680988
 C    0.111864   -2.598225    0.570538
 C    2.546550    2.080149    1.354502
 C    1.378588    1.901906    0.389236
 O    1.205890    0.903877   -0.286986
 N    0.479633    2.944258    0.403593
 C   -0.810118    2.827293   -0.138508
 N   -1.602044    1.846572    0.143062
 C   -2.790152    1.930536   -0.574676
 C   -2.877793    3.035852   -1.376044
 S   -1.421031    3.965509   -1.301337
 C   -3.717391    0.813714   -0.477542
 C   -4.273156    0.072094   -1.543371
 N   -4.854270   -1.079711   -1.178571
 C   -4.733765   -1.107475    0.185730
 C   -4.040297    0.046572    0.686266
 C   -3.776990    0.125887    2.058388
 C   -4.214439   -0.923608    2.849804
 C   -4.877589   -2.016073    2.254036
 N   -5.135655   -2.134704    0.958829
 H    7.182011    2.166961    0.878449
 H    5.007640    3.217362    1.420683
 H    3.001054   -0.429313    0.416722
 H    7.266774   -0.179216    0.046514
 H    4.583147   -2.890595   -1.800845
 H    3.548056   -1.501093   -1.450193
 H    3.089760   -2.663647    0.852426
 H    3.901881   -4.068174    0.183638
 H    1.618476   -4.516055   -0.372730
 H    2.238596   -3.807648   -1.849984
 H    1.429648   -1.507100   -0.710901
 H   -0.540972   -3.447352   -1.995226
 H    0.553907   -2.364213   -2.853597
 H   -1.744604   -1.336616   -2.621473
 H   -0.496523   -0.376013   -1.783527
 H   -2.433606   -2.218452   -0.570907
 H   -2.389811   -0.588983   -0.476188
 H   -1.598277   -1.612164    1.528598
 H   -0.453102   -0.502304    0.746769
 H    0.760355   -2.548694    1.452365
 H   -0.387866   -3.577319    0.601647
 H    2.697820    3.143055    1.571998
 H    2.201778    1.627252    2.295749
 H    0.692658    3.765377    0.950709
 H   -3.716756    3.348842   -1.980194
 H   -4.203314    0.344008   -2.594703
 H   -3.239836    0.971142    2.481315
 H   -4.051034   -0.919251    3.923427
 H   -5.207122   -2.842999    2.882703
