47 
5v2l_ligand_xtb.xyz
 P    4.486937    0.477495   -0.480048
 O    5.435413    1.694685   -0.774981
 O    3.825788   -0.014136   -1.686266
 O    5.419893   -0.492915    0.323866
 P    1.956318    0.920628    0.924089
 O    1.654169    0.422649    2.252084
 O    1.393441    2.316861    0.515183
 O    3.500056    1.106866    0.628478
 P    1.955406   -1.548790   -0.347696
 O    1.982099   -1.830609   -1.891477
 O    3.167672   -1.771550    0.433417
 O    1.410608   -0.030410   -0.264940
 O    0.752505   -2.435522    0.155908
 C   -0.452798   -2.443585   -0.595540
 C   -1.600958   -2.916811    0.305005
 O   -1.895576   -1.975596    1.325640
 C   -2.915085   -3.077309   -0.480173
 O   -3.760300   -3.975671    0.171140
 C   -3.466965   -1.641621   -0.435473
 O   -4.853516   -1.613785   -0.538104
 C   -2.936528   -1.137966    0.934183
 N   -2.488608    0.232920    0.813066
 C   -1.338136    0.786612    1.278343
 N   -1.198806    2.039830    0.943204
 C   -2.325871    2.353515    0.222634
 C   -2.798336    3.517211   -0.414298
 N   -2.124787    4.674943   -0.425105
 N   -3.981030    3.455208   -1.035520
 C   -4.659300    2.323651   -1.039824
 N   -4.326919    1.166018   -0.491331
 C   -3.147687    1.220174    0.137272
 H    5.959865    1.952463   -0.016365
 H    4.907228   -1.274077    0.581919
 H    0.429536    2.389522    0.759362
 H    2.697254   -1.291910   -2.268931
 H   -0.336805   -3.127260   -1.440920
 H   -0.651545   -1.437087   -0.974753
 H   -1.312831   -3.841869    0.808751
 H   -2.734633   -3.403165   -1.514218
 H   -4.668855   -3.667739    0.038248
 H   -3.000211   -1.053327   -1.238529
 H   -5.113380   -0.673027   -0.580636
 H   -3.739127   -1.177980    1.689365
 H   -0.630422    0.230519    1.859868
 H   -2.520326    5.461993   -0.907782
 H   -1.226479    4.736390    0.018606
 H   -5.606152    2.343959   -1.561711
