24 
5v4q_ligand_xtb.xyz
 O    2.339102    0.665434   -1.102493
 C    1.943037   -0.360265   -0.342934
 O    2.148012   -1.506866   -0.582712
 C    1.219998    0.134716    0.921908
 N    0.763292    1.535913    0.731502
 C    0.072204   -0.801910    1.308853
 C   -0.994744   -1.028647    0.230346
 C   -2.086729    0.039474    0.128869
 O   -1.510734    1.209605   -0.482158
 C   -3.263203   -0.451362   -0.701705
 H    2.834919    0.358693   -1.879964
 H    1.973681    0.110022    1.718768
 H    1.446922    2.038382    0.152403
 H    0.636830    2.016749    1.624635
 H   -0.182155    1.512369    0.201958
 H   -0.395103   -0.442308    2.227187
 H    0.530091   -1.766809    1.528502
 H   -1.492098   -1.969819    0.459440
 H   -0.524225   -1.143361   -0.746341
 H   -2.436582    0.312284    1.136198
 H   -2.217153    1.806228   -0.756637
 H   -2.930557   -0.728477   -1.698977
 H   -4.021946    0.324295   -0.787638
 H   -3.720086   -1.317056   -0.233174
