59 
5v5d_ligand_xtb.xyz
 O    1.451800    3.384082    0.765184
 C    0.836911    2.474378    0.248483
 C   -0.596793    2.598830   -0.164139
 N   -1.202380    1.484051   -0.568315
 C   -2.468201    1.537361   -0.950101
 C   -3.106207    0.236068   -1.330265
 C   -4.314048   -0.098405   -0.442029
 C   -3.926595   -0.156181    1.033989
 C   -5.176248   -0.277928    1.914508
 C   -6.281557   -1.080896    1.217448
 C   -5.669441   -2.122493    0.288588
 C   -4.929201   -1.440424   -0.868047
 C   -3.173416    2.742790   -0.977690
 C   -2.547454    3.900781   -0.554530
 C   -1.231635    3.832678   -0.122292
 N    1.321542    1.236969   -0.047412
 C    2.609089    0.745219    0.074817
 C    3.632346    1.476017    0.676156
 C    4.920141    0.985328    0.712347
 C    5.222917   -0.257251    0.159953
 C    6.634361   -0.721858    0.212906
 O    6.832489   -2.055080    0.133695
 O    7.567912    0.023569    0.329789
 C    4.202711   -0.997755   -0.433270
 C    2.900358   -0.521031   -0.475213
 N    1.914012   -1.259964   -1.145655
 C    0.770088   -1.792779   -0.563400
 C    0.442589   -1.590383    0.777146
 C   -0.700536   -2.160826    1.303890
 C   -1.531371   -2.938758    0.515526
 C   -1.213264   -3.138385   -0.818206
 C   -0.074713   -2.572856   -1.355227
 H   -2.354988   -0.550043   -1.236991
 H   -3.435613    0.282249   -2.371802
 H   -5.061629    0.692028   -0.562971
 H   -3.368024    0.739468    1.312419
 H   -3.265188   -1.008963    1.186114
 H   -5.554440    0.716569    2.159382
 H   -4.903287   -0.761435    2.854176
 H   -6.918246   -0.415834    0.630642
 H   -6.915105   -1.564459    1.962885
 H   -6.445936   -2.779345   -0.107237
 H   -4.978887   -2.741383    0.863510
 H   -4.139325   -2.102617   -1.227120
 H   -5.617810   -1.270903   -1.698467
 H   -4.194550    2.763875   -1.325329
 H   -3.074748    4.843582   -0.559923
 H   -0.690633    4.696248    0.229157
 H    0.622824    0.630230   -0.471806
 H    3.404058    2.445194    1.087135
 H    5.715675    1.556657    1.163551
 H    6.001739   -2.547062    0.116000
 H    4.407040   -1.946414   -0.916539
 H    2.256335   -1.791755   -1.933955
 H    1.096428   -1.012657    1.412468
 H   -0.934509   -2.004287    2.346541
 H   -2.412202   -3.398955    0.936795
 H   -1.851149   -3.746595   -1.443067
 H    0.177353   -2.738796   -2.393321
