31 
5v6u_ligand_xtb.xyz
 C    4.013735    0.223022   -1.126296
 C    4.221158   -0.386099    0.100061
 C    1.914830   -0.011322    0.687586
 C    2.754596    0.688730   -1.462241
 C    0.427291    1.206756    2.317047
 O    0.367951   -1.171707    2.067681
 C    0.830220   -0.113592    1.717221
 C   -1.090385   -2.647875   -0.758763
 C   -2.418171   -2.539795   -0.368624
 C   -2.971679   -1.292961   -0.165972
 C   -2.209910   -0.138269   -0.345111
 C   -2.754109    1.220841   -0.134891
 C    3.174904   -0.507529    0.998490
 C    1.704971    0.564515   -0.565423
 C   -0.870773   -0.255398   -0.743286
 C   -0.325689   -1.517917   -0.954751
 O   -3.827797    1.338742    0.664533
 O   -2.250355    2.198466   -0.628899
 S    0.088151    1.197913   -1.010761
 H    4.828204    0.324094   -1.827493
 H    5.197277   -0.766920    0.359409
 H    2.571830    1.147646   -2.421520
 H    0.026308    1.863060    1.546965
 H   -0.316703    1.053808    3.094747
 H    1.307406    1.691326    2.736442
 H   -0.653117   -3.620695   -0.922238
 H   -3.017517   -3.426031   -0.229582
 H   -4.018485   -1.221212    0.100848
 H    3.329190   -0.977115    1.958856
 H    0.701234   -1.610555   -1.273675
 H   -4.090366    0.493338    1.052619
