50 
5v82_ligand_xtb.xyz
 C    1.081798    1.337630   -0.485510
 C    3.320961   -2.192762   -0.445857
 C    0.326421    2.423161   -0.071662
 C    3.194512    0.092196   -0.184686
 C    2.628270   -3.509761   -0.543910
 C    4.710221   -2.079001   -0.520620
 N    5.327062   -0.917338   -0.410647
 C    4.589107    0.161293   -0.247983
 N    2.576570   -1.097352   -0.268667
 C    2.383114    1.296965   -0.000802
 C    0.926351    3.510554    0.608001
 C    2.288686    3.407760    0.911564
 N    2.959458    2.311641    0.660656
 C   -0.153670    4.422792    0.804927
 N   -1.264221    3.934558    0.336863
 N   -1.001695    2.720183   -0.195141
 C   -2.017997    1.843907   -0.544391
 C   -3.284728    2.308267   -0.890606
 C   -4.246787    1.369069   -1.208082
 C   -3.925780    0.015537   -1.174807
 C   -2.645860   -0.353153   -0.795013
 N   -1.715553    0.548924   -0.476099
 C   -2.247187   -1.809900   -0.677062
 C   -0.744582   -2.043379   -0.866628
 N   -0.006113   -1.356687    0.206839
 C   -0.304927   -1.937804    1.523290
 C   -1.787359   -1.766279    1.839643
 C   -2.631957   -2.358571    0.714332
 F   -2.474274   -3.713515    0.695396
 F   -3.947598   -2.146906    0.952073
 H    0.714359    0.611599   -1.187903
 H    2.080258   -3.724162    0.372055
 H    1.927662   -3.509960   -1.377179
 H    3.352289   -4.302909   -0.702653
 H    5.338781   -2.946449   -0.658947
 H    5.095481    1.110116   -0.161613
 H    2.835425    4.209644    1.385952
 H   -0.137688    5.382729    1.279636
 H   -3.478988    3.367280   -0.896022
 H   -5.241065    1.681567   -1.484702
 H   -4.660330   -0.732966   -1.420702
 H   -2.807203   -2.390621   -1.416362
 H   -0.429702   -1.642550   -1.831691
 H   -0.533574   -3.115046   -0.839643
 H    1.116474   -1.281740   -0.002562
 H   -0.412976   -0.382227    0.164355
 H    0.300148   -1.437550    2.280594
 H   -0.051445   -3.001131    1.514922
 H   -2.049308   -0.712494    1.945032
 H   -2.041949   -2.277979    2.768766
