75 
5v88_ligand_dft.xyz
 F   -2.986826    5.312440    0.112396
 C   -2.861416    3.996641   -0.094967
 F   -3.675501    3.680396   -1.124889
 F   -3.350200    3.364756    0.988504
 C   -1.438971    3.598487   -0.382230
 C   -1.033723    2.299952   -0.086018
 C   -0.569574    4.511284   -0.968621
 C    0.730614    4.112229   -1.258847
 C    1.148898    2.819548   -0.976766
 C    0.266538    1.906353   -0.392692
 N    0.789029    0.626538   -0.084806
 C    0.080357   -0.520529    0.046896
 O   -1.151778   -0.558929   -0.131204
 N    0.790182   -1.651280    0.383897
 C    0.156115   -2.974087    0.453624
 C   -0.735035   -3.345685   -0.765641
 C   -2.175260   -3.671529   -0.369578
 C   -0.592129   -3.238358    1.772453
 C   -1.977001   -2.597006    1.867216
 N   -2.694321   -2.608590    0.541483
 C   -4.200953   -2.559170    0.684985
 C   -4.768081   -3.902293    1.129020
 C   -4.859177   -2.063350   -0.605965
 C   -4.325267   -0.742417   -1.170676
 C   -4.374240    0.417686   -0.179506
 C    2.215738   -1.582798    0.690014
 C    3.116264   -1.567539   -0.537483
 C    2.682653   -2.114757   -1.744786
 C    3.522773   -2.198275   -2.849244
 C    4.826541   -1.723679   -2.763193
 C    5.266236   -1.145843   -1.579219
 C    4.420776   -1.062919   -0.474580
 N    4.923360   -0.452461    0.714702
 C    4.476945    0.758414    1.172672
 O    3.439089    1.265422    0.762909
 C    5.346600    1.416649    2.226468
 C    4.621317    2.531569    2.971273
 H   -1.718373    1.608046    0.380815
 H   -0.899256    5.521051   -1.184701
 H    1.425890    4.814437   -1.706632
 H    2.168206    2.514992   -1.191610
 H    1.802786    0.623375    0.019604
 H    0.999980   -3.666166    0.447153
 H   -0.736663   -2.534167   -1.495097
 H   -0.325834   -4.227474   -1.266435
 H   -2.258646   -4.631062    0.145665
 H   -2.816771   -3.701824   -1.251157
 H   -0.689406   -4.323657    1.887644
 H    0.008979   -2.890576    2.617382
 H   -1.915570   -1.546492    2.156350
 H   -2.590851   -3.124951    2.598125
 H   -2.359852   -1.717523    0.115389
 H   -4.361415   -1.815121    1.472214
 H   -5.831032   -3.773618    1.347732
 H   -4.686337   -4.656203    0.340026
 H   -4.295679   -4.292899    2.034988
 H   -5.922591   -1.942505   -0.367357
 H   -4.817153   -2.848752   -1.370992
 H   -3.300353   -0.859034   -1.546878
 H   -4.930948   -0.495215   -2.048746
 H   -4.113623    1.354483   -0.673157
 H   -5.376195    0.534586    0.248703
 H   -3.667772    0.283887    0.648362
 H    2.464490   -2.452986    1.306698
 H    2.402080   -0.716220    1.324917
 H    1.663925   -2.479688   -1.825627
 H    3.158033   -2.633108   -3.774068
 H    5.493211   -1.782271   -3.617052
 H    6.269194   -0.734515   -1.508711
 H    5.848919   -0.735680    1.007144
 H    5.712052    0.651406    2.922179
 H    6.233256    1.815151    1.715271
 H    5.294847    3.001952    3.692063
 H    3.754159    2.143127    3.512333
 H    4.265603    3.294007    2.275137
