23 
5v8o_ligand_xtb.xyz
 C    1.774669    0.053176    0.007309
 C    0.313941    0.188357    0.011188
 C    4.002650    0.972779   -0.054667
 C   -1.765727    1.543769    0.023115
 C   -0.338900    1.394885    0.029682
 C    4.544055   -0.301635   -0.010410
 C    3.703096   -1.400998    0.043182
 C    2.333499   -1.226134    0.052193
 C    2.632611    1.152616   -0.046614
 N   -2.390091    0.261076   -0.000026
 C   -1.646874   -0.896691   -0.010086
 N   -0.366723   -1.000391   -0.006382
 N   -2.595472   -1.876247   -0.027247
 N   -3.811406   -1.299876   -0.027886
 N   -3.696210   -0.066702   -0.012208
 O   -2.416891    2.557811    0.033399
 H    4.653423    1.833652   -0.097392
 H    0.203273    2.324542    0.051320
 H    5.615532   -0.435892   -0.018915
 H    4.117557   -2.397828    0.077145
 H    1.670931   -2.075604    0.093284
 H    2.239408    2.155727   -0.087333
 H   -2.463808   -2.872852   -0.038409
