81 
5v8v_ligand_dft.xyz
 C   -4.246633    4.634449   -0.347223
 C   -2.877082    3.984232   -0.580558
 C   -3.000679    2.622656   -1.221380
 C   -3.086567    2.483020   -2.607067
 C   -3.255795    1.229562   -3.188311
 C   -3.328349    0.092021   -2.393253
 C   -3.231041    0.205106   -1.002859
 C   -3.086633    1.472639   -0.433537
 C   -3.345955   -1.009294   -0.131384
 C   -4.630006   -1.263792    0.360831
 F   -5.608774   -0.411789    0.027673
 C   -4.950301   -2.339620    1.166619
 C   -3.928590   -3.215415    1.500890
 C   -2.639306   -2.995400    1.034207
 C   -2.310552   -1.902989    0.217766
 C   -0.826760   -1.714370   -0.185544
 O   -0.654984   -0.843947   -1.292049
 C   -0.231110   -3.047050   -0.698419
 C    1.278465   -3.067772   -0.978248
 C    1.773759   -2.102810   -2.058525
 N    3.206528   -2.239540   -2.285517
 C    4.116422   -1.485723   -1.655100
 O    3.853496   -0.563863   -0.876313
 O    5.365828   -1.847349   -1.971807
 C    6.414721   -1.123674   -1.335640
 C    0.006593   -1.135053    0.998901
 C    0.187937   -2.039838    2.227121
 C    1.127737   -1.394738    3.253861
 C    0.650029    0.013197    3.616232
 N    0.476142    0.800740    2.396761
 C   -0.508964    0.231040    1.474494
 C    1.389776    1.651981    1.900932
 O    1.251589    2.153242    0.770309
 C    2.607406    1.999233    2.751364
 C    3.659720    2.837421    2.016038
 C    4.399088    2.101183    0.894473
 N    3.630843    2.088306   -0.391717
 C    3.920426    3.214837   -1.304847
 H   -4.869916    4.008164    0.299288
 H   -4.137517    5.615338    0.125763
 H   -4.778858    4.768567   -1.294376
 H   -2.267563    4.635606   -1.217797
 H   -2.346569    3.892501    0.374659
 H   -3.026623    3.366934   -3.237463
 H   -3.329828    1.137499   -4.267460
 H   -3.443963   -0.889129   -2.842156
 H   -3.047904    1.567345    0.649272
 H   -5.970809   -2.475701    1.505597
 H   -4.136165   -4.078119    2.125626
 H   -1.874713   -3.705714    1.323574
 H   -1.222780   -0.067393   -1.207733
 H   -0.779490   -3.289409   -1.615497
 H   -0.434401   -3.856759    0.004402
 H    1.845467   -2.877526   -0.058681
 H    1.537430   -4.089935   -1.282655
 H    1.574498   -1.069193   -1.783184
 H    1.258383   -2.283943   -3.005847
 H    3.556359   -3.007996   -2.839382
 H    6.346077   -1.217973   -0.249122
 H    6.384210   -0.066784   -1.616103
 H    7.337679   -1.575082   -1.695740
 H    0.998077   -0.941691    0.567439
 H    0.582947   -3.020181    1.940833
 H   -0.785823   -2.213334    2.700935
 H    2.143069   -1.331616    2.838670
 H    1.183141   -2.006400    4.160197
 H   -0.324755   -0.034953    4.114496
 H    1.332089    0.515240    4.302437
 H   -1.461933    0.128973    2.005511
 H   -0.637984    0.931841    0.653084
 H    3.074536    1.078424    3.120113
 H    2.269325    2.547193    3.638903
 H    4.410279    3.143481    2.750771
 H    3.209090    3.758799    1.631506
 H    4.575062    1.054243    1.156237
 H    5.367062    2.566159    0.691699
 H    3.787348    1.169235   -0.846743
 H    2.615785    2.110818   -0.117779
 H    3.734872    4.155982   -0.785173
 H    3.262458    3.144160   -2.171556
 H    4.962771    3.166998   -1.624447
