42 
5var_ligand_dft.xyz
 C   -4.146557   -0.546325    1.181197
 C   -4.572665   -1.295391    0.087415
 C   -3.785353   -1.346635   -1.057869
 C   -2.577347   -0.655059   -1.106171
 C   -2.136342    0.097845   -0.011314
 C    0.319964   -0.214876    0.445345
 C    0.763256    2.348973   -1.083022
 C   -0.474680    1.943414    0.891915
 C    3.653527   -1.396371    1.453634
 O    0.641135   -1.258969   -0.471366
 N    3.225330   -1.074444    0.064992
 C   -2.937450    0.139614    1.133470
 C   -0.779524    0.756536   -0.047328
 C    1.553716    0.707798    0.703276
 C    0.980273    2.125560    0.421071
 C   -0.344918    1.319924   -1.426235
 C    2.791010    0.360523   -0.115176
 C    4.269579   -1.449715   -0.928138
 H   -4.759610   -0.492569    2.075508
 H   -5.517685   -1.827488    0.125622
 H   -4.114945   -1.916243   -1.921305
 H   -1.991169   -0.678851   -2.021910
 H   -0.011941   -0.667023    1.388683
 H    1.664595    2.241150   -1.693376
 H    0.409046    3.371450   -1.240672
 H   -0.555385    1.697474    1.956281
 H   -1.101086    2.816107    0.687552
 H    4.490490   -0.750134    1.725018
 H    2.821284   -1.238759    2.138172
 H    3.962098   -2.441484    1.494566
 H   -0.168617   -1.762056   -0.645393
 H    2.360569   -1.607478   -0.147564
 H   -2.623887    0.720960    1.995794
 H    1.812420    0.670018    1.766592
 H    1.546152    2.918201    0.915324
 H    0.015927    0.527922   -2.088249
 H   -1.196697    1.793813   -1.920335
 H    3.641414    0.995461    0.151541
 H    2.598265    0.466094   -1.183175
 H    5.155424   -0.834270   -0.761229
 H    3.878740   -1.280601   -1.931872
 H    4.519287   -2.503725   -0.802015
