42 
5var_ligand_xtb.xyz
 C   -4.202229   -0.370842    1.127894
 C   -4.571346   -1.263864    0.136903
 C   -3.719687   -1.490366   -0.929926
 C   -2.504836   -0.831208   -1.001046
 C   -2.121738    0.065165   -0.006352
 C    0.343477   -0.216046    0.457507
 C    0.723094    2.272710   -1.189681
 C   -0.493625    1.958096    0.795911
 C    3.717611   -1.261291    1.490233
 O    0.667325   -1.291691   -0.408722
 N    3.218244   -1.031943    0.128173
 C   -2.985617    0.285195    1.059972
 C   -0.771533    0.721695   -0.070805
 C    1.546395    0.748112    0.677951
 C    0.949757    2.129380    0.315628
 C   -0.349557    1.206298   -1.474306
 C    2.794958    0.372652   -0.115843
 C    4.207793   -1.469732   -0.866809
 H   -4.864031   -0.181977    1.959191
 H   -5.519306   -1.775731    0.191874
 H   -4.000974   -2.178105   -1.712967
 H   -1.867580   -1.001119   -1.857960
 H    0.019364   -0.635425    1.422556
 H    1.621779    2.153934   -1.791060
 H    0.336856    3.271081   -1.390392
 H   -0.563780    1.761368    1.863526
 H   -1.127676    2.801232    0.537225
 H    4.601569   -0.649495    1.667312
 H    2.958272   -1.008999    2.225418
 H    3.984531   -2.308650    1.617519
 H   -0.159030   -1.734503   -0.643221
 H    2.333088   -1.566775   -0.018009
 H   -2.715870    0.980157    1.839480
 H    1.793547    0.772468    1.742240
 H    1.506241    2.954130    0.755869
 H    0.044919    0.387739   -2.075772
 H   -1.205952    1.625769   -1.998530
 H    3.616926    1.046493    0.134837
 H    2.581022    0.453860   -1.180809
 H    5.105818   -0.857597   -0.792328
 H    3.799322   -1.378308   -1.870958
 H    4.477122   -2.510130   -0.695845
