67 
5vc3_ligand_xtb.xyz
 C    1.723846    2.503053   -0.051096
 O   -7.198895    2.390201   -0.896688
 C    6.041681   -1.306719    0.577373
 N   -5.388180   -2.336453   -0.915493
Cl   -8.366426    1.218373    1.428331
Cl   -3.584963   -1.097934    2.138570
 C   -4.255320   -2.198088   -0.783360
 C   -2.097635   -3.284235   -0.805371
 C   -5.923284    0.109269    1.608652
 C   -5.011552    1.348430   -0.693204
 C    1.285060   -2.221010   -0.743450
 C    0.034895    0.251405   -0.400871
 C    5.607533   -1.863566   -0.777230
 C    4.128482   -2.232003   -0.785029
 C   10.460664    2.199669    0.291748
 C    5.664901    1.947161   -0.885730
 C    7.791879   -0.049734    1.685319
 C    5.840190    3.229210   -1.133079
 C    9.181463    0.554446    1.508333
 N   -0.799617   -3.320083   -0.826004
 N   -2.855767    0.313345   -0.444341
 O    2.254532    1.219208   -0.264619
 O    3.392789   -1.033795   -0.632899
 C   -6.311945    1.583997   -0.273226
 C   -6.758263    0.941212    0.892271
 C   -4.624915   -0.107274    1.178000
 C   -2.856247   -2.098950   -0.684283
 C   -4.160895    0.490415    0.005248
 C    1.401333    0.175160   -0.420515
 C    2.046567   -1.090386   -0.611757
 C   -2.184177   -0.880014   -0.546040
 C   -0.122027   -2.159087   -0.713697
 C   -0.763939   -0.903323   -0.559429
 N    7.335904   -0.669263    0.460482
 N    9.209743    1.484083    0.399481
 C   -6.823460    3.007834   -2.104673
 H    1.122296    2.836666   -0.903539
 H    1.118656    2.542481    0.860686
 H    2.585276    3.159364    0.060012
 H    6.027116   -2.112060    1.336537
 H    5.325516   -0.540870    0.887652
 H   -2.611071   -4.231659   -0.904223
 H   -6.279609   -0.365388    2.508023
 H   -4.633741    1.814175   -1.589972
 H    1.723571   -3.196148   -0.871060
 H   -0.443656    1.203108   -0.231442
 H    6.195942   -2.746442   -1.032056
 H    5.782810   -1.098077   -1.532966
 H    3.898885   -2.920797    0.039559
 H    3.863050   -2.717477   -1.733658
 H   11.259895    1.482895    0.097947
 H   10.403870    2.889332   -0.548181
 H   10.724732    2.767294    1.199275
 H    6.497316    1.276869   -0.741338
 H    4.682077    1.509516   -0.811882
 H    7.077490    0.742652    1.936337
 H    7.819557   -0.755761    2.537437
 H    5.015192    3.909499   -1.281215
 H    6.822855    3.667833   -1.211235
 H    9.904866   -0.239888    1.290299
 H    9.482525    1.024737    2.464543
 H   -2.403405    1.123501   -0.838688
 H    8.029920   -1.332913    0.130114
 H    8.438430    2.138554    0.487342
 H   -5.989945    3.702369   -1.958283
 H   -6.557543    2.268073   -2.865737
 H   -7.700233    3.563546   -2.432254
