67 
5vc3_ligand_dft.xyz
 C    1.763047    2.002958   -1.253764
 O   -7.666829    0.720430   -0.996702
 C    5.836775   -1.056136    1.207985
 N   -5.514420   -2.659165   -0.224596
Cl   -7.768661    2.462747    1.314194
Cl   -2.438922    1.641453    1.538908
 C   -4.377073   -2.454138   -0.117684
 C   -2.243256   -3.432886    0.476917
 C   -5.116127    1.952452    1.265691
 C   -5.274710    0.355876   -1.000500
 C    1.181384   -2.526934    0.189797
 C    0.015085   -0.132563   -0.666464
 C    5.496760   -2.237951    0.302364
 C    4.020546   -2.589555    0.343638
 C    9.909998    2.477878   -0.614722
 C    5.631939    1.038854   -1.640374
 C    7.484028    0.673634    1.639862
 C    5.862145    2.093341   -2.417987
 C    8.794040    1.303161    1.179450
 N   -0.942497   -3.518703    0.535533
 N   -2.874548   -0.051639   -0.945869
 O    2.259981    0.745747   -0.853791
 O    3.319694   -1.455848   -0.149637
 C   -6.442572    0.910782   -0.481110
 C   -6.339486    1.729635    0.655165
 C   -3.970909    1.352720    0.754217
 C   -2.961305   -2.304369    0.001452
 C   -4.043491    0.543811   -0.380681
 C    1.377266   -0.238426   -0.586587
 C    1.978516   -1.472306   -0.166382
 C   -2.256966   -1.172506   -0.415504
 C   -0.232715   -2.428855    0.126501
 C   -0.830249   -1.229620   -0.331863
 N    7.155191   -0.533415    0.905293
 N    8.747458    1.711813   -0.211364
 C   -7.821301   -0.291867   -1.978756
 H    1.197969    1.928301   -2.191848
 H    1.126280    2.445473   -0.476867
 H    2.641069    2.631257   -1.406356
 H    5.708895   -1.348243    2.269218
 H    5.115548   -0.254178    1.013823
 H   -2.812172   -4.302353    0.800464
 H   -5.058022    2.583523    2.144483
 H   -5.302502   -0.278577   -1.876123
 H    1.590436   -3.468558    0.534085
 H   -0.408888    0.824269   -0.943652
 H    6.075775   -3.125700    0.587014
 H    5.772556   -1.982480   -0.726176
 H    3.687355   -2.808973    1.368076
 H    3.803082   -3.462708   -0.285008
 H   10.799822    1.838596   -0.573441
 H    9.789276    2.810027   -1.650300
 H   10.109975    3.365652    0.014805
 H    6.449931    0.498862   -1.163739
 H    4.623550    0.678541   -1.446261
 H    6.669366    1.391928    1.470210
 H    7.533979    0.517029    2.734122
 H    5.059244    2.644521   -2.903505
 H    6.873987    2.439796   -2.619307
 H    9.615061    0.580609    1.298886
 H    9.023609    2.143354    1.864992
 H   -2.224812    0.635551   -1.298098
 H    7.868131   -1.240874    1.061519
 H    7.900773    2.249198   -0.375120
 H   -7.333308   -0.008586   -2.919517
 H   -7.421215   -1.246981   -1.620811
 H   -8.895109   -0.376513   -2.144200
