67 
5vcz_ligand_dft.xyz
 C   -1.484780   -2.481032   -1.316825
 O    7.900173   -1.646412    0.950149
 C   -6.000045    0.492573    0.487420
 N    5.303107    2.774083   -0.250867
Cl    7.422819   -2.150900   -1.938009
Cl    6.177020   -0.430089    3.041461
 C    4.167995    2.535715   -0.218136
 C    1.922226    3.411731    0.130315
 C   -1.394664    2.199324   -0.319386
 C    0.021702   -0.163480   -0.819706
 C   -5.665409    1.615343   -0.493622
 C   -4.215636    2.050753   -0.388307
 C  -10.896086   -2.230671    0.705757
 C   -7.915601   -0.424790   -0.718444
 C   -7.822126   -0.557839    1.655525
 C   -9.376974   -0.835765   -0.570900
 C   -8.811339   -1.461479    1.647464
 N    0.616836    3.394937    0.084505
 N    2.887926   -0.034561   -0.876203
 O   -2.124075   -1.242773   -1.101616
 O   -3.408889    0.926615   -0.711557
 C    6.691355   -1.230119    0.504125
 C    6.305734   -1.410471   -0.828198
 C    4.499705   -0.258385    0.933291
 C    2.757852    2.306760   -0.178535
 C    4.159924   -0.416006   -0.409701
 C   -1.347787   -0.166628   -0.865482
 C   -2.074621    1.049891   -0.626331
 C    2.168341    1.087714   -0.522230
 C    0.022673    2.217679   -0.261697
 C    0.742058    1.032521   -0.542932
 N   -7.422356    0.174031    0.515762
 C    5.063332   -1.002375   -1.292357
 N   -9.526554   -1.813635    0.491370
 C    8.924199   -0.655362    0.874535
 C    5.757306   -0.645404    1.367637
 H   -0.830167   -2.444532   -2.197425
 H   -0.899458   -2.786170   -0.439918
 H   -2.282398   -3.203711   -1.488555
 H   -5.716575    0.817965    1.495841
 H   -5.391304   -0.396078    0.252222
 H    2.396122    4.352551    0.402955
 H   -1.902895    3.131633   -0.107954
 H    0.558921   -1.095498   -0.943570
 H   -6.306011    2.480435   -0.289002
 H   -5.854835    1.302748   -1.526067
 H   -3.978703    2.390484    0.630197
 H   -4.002136    2.873685   -1.083209
 H  -11.555560   -1.403427    1.023295
 H  -11.297072   -2.652634   -0.221778
 H  -10.927928   -3.011120    1.472123
 H   -7.839499    0.304080   -1.531388
 H   -7.314939   -1.308652   -0.994131
 H   -6.149943   -2.870655    1.316815
 H   -7.287047   -0.335794    2.571647
 H   -9.723604   -1.277026   -1.512370
 H   -9.986724    0.063754   -0.375147
 H   -8.790612    2.213783    0.231988
 H   -9.095090   -1.975412    2.558988
 H    2.458507   -0.646535   -1.552044
 H    3.794065    0.172910    1.634165
 H   -9.237480    2.765153    0.000336
 H    4.813680   -1.119250   -2.341375
 H   -5.578795   -3.337535    1.219684
 H    9.097135   -0.353095   -0.164242
 H    8.662924    0.222426    1.475475
 H    9.823770   -1.122272    1.276311
