66 
5vdr_ligand_dft.xyz
 C    5.058883    0.061840   -0.748429
 C    3.696791    1.086248    0.866200
 C    2.606811    0.481670    1.727060
 O    0.163338   -2.338627    0.795928
 C    3.278653    1.586406   -0.525078
 O    0.570828    2.494621   -0.726303
 C   -0.850920    2.618490   -0.557026
 C   -1.281504    1.809633    0.662654
 C   -0.969603    0.317944    0.526811
 C   -2.334003   -0.294130    0.167266
 C   -3.308785    0.679101    0.846269
 C   -5.476349   -0.216664   -0.089289
 C   -7.743390   -0.472925   -0.999468
 C   -6.607956    0.363921   -0.607726
 C   -5.254718    1.955107   -0.189380
 O    1.391204   -4.560060   -1.648887
 C    2.194280   -3.920338   -1.009540
 N    2.299130   -4.106435    0.409169
 C    3.167942   -3.463799    1.119678
 N    4.025580   -2.514504    0.655901
 C    3.851595   -2.152003   -0.653746
 C    3.047675   -2.853207   -1.517607
 N    3.067048   -2.258199   -2.759222
 C    3.844771   -1.226618   -2.625099
 N    4.359218   -1.085472   -1.339286
 O    4.742052    0.130940    0.620716
 O    1.863252   -0.502155    0.993499
 P    0.681483   -1.237658    1.828013
 O    1.078843   -1.660831    3.174546
 O    2.972233    2.975082   -0.562704
 P    1.558243    3.634954   -0.208977
 O   -0.516384   -0.177191    1.788803
 O   -2.553444   -1.594105    0.632468
 N   -4.588391    0.789602    0.176510
 N   -5.343836   -1.565168    0.091642
 C   -6.428121   -2.313551   -0.298660
 N   -7.529047   -1.866996   -0.784563
 O   -8.784941   -0.067899   -1.466299
 N   -6.443699    1.733212   -0.663168
 O   -2.692002    1.940117    0.784360
 O    1.416859    3.512780    1.397394
 O    1.407278    5.002125   -0.711387
 C    4.559838    1.377755   -1.342478
 O    5.522525    2.343987   -1.035630
 H    6.139594   -0.054300   -0.846339
 H    4.133172    1.922171    1.424050
 H    1.937121    1.283033    2.055727
 H    3.052415    0.017129    2.612214
 H    0.697925   -3.172719    0.793584
 H    2.449785    1.002697   -0.931758
 H   -1.144023    3.666590   -0.451709
 H   -1.305133    2.222850   -1.468132
 H   -0.794556    2.199827    1.561177
 H   -0.215048    0.132031   -0.241189
 H   -2.472369   -0.218203   -0.921672
 H   -3.461567    0.367411    1.888795
 H   -4.780591    2.917198   -0.072125
 H    3.214408   -3.638717    2.192166
 H    4.536055   -1.912534    1.286591
 H    4.110422   -0.541316   -3.417159
 H   -1.766313   -2.139584    0.467996
 H   -4.462072   -1.979876    0.378947
 H   -6.297058   -3.385667   -0.160060
 H    1.479429    4.387655    1.807475
 H    4.357621    1.330989   -2.417785
 H    5.108396    3.212065   -1.141729
