66 
5vds_ligand_dft.xyz
 C   -4.019594    0.668333   -0.833000
 C   -6.618518   -2.093040   -0.819481
 C    1.803172   -0.488914    0.526816
 C    1.972935    0.733294   -0.374110
 O    1.008711   -3.074399    1.761999
 P    0.285912   -2.677738    0.414087
 O   -0.977811   -1.890790    1.040331
 C   -2.118375   -1.679625    0.213039
 C   -1.957061   -0.386093   -0.586106
 C   -1.890904    0.862172    0.283823
 O   -1.252443    1.888891   -0.464953
 C   -3.379161    1.182362    0.480470
 O   -3.594882    2.546115    0.709610
 N   -5.272509   -0.071468   -0.589736
 C   -5.647954   -1.147803   -1.510782
 C   -7.797520   -1.345581   -0.241845
 N   -7.504336   -0.026133    0.094812
 C   -6.268246    0.607417    0.047213
 O   -6.134711    1.710855    0.571838
 O   -8.895981   -1.810272   -0.052509
 O   -3.092177   -0.196396   -1.428152
 O    1.210510   -1.523800   -0.249965
 C    2.015309    2.055028    0.390944
 O    0.776889    2.278302    1.055287
 P   -0.398825    3.056638    0.264000
 O   -1.264963    3.498136    1.510800
 O    0.073646    4.038559   -0.718635
 O    3.221313    0.559111   -1.051625
 C    3.937478   -0.518491   -0.511521
 N    5.349142   -0.142470   -0.412333
 C    6.223315   -1.142888   -0.135789
 N    7.564453   -0.786080   -0.104300
 C    8.130998    0.409325   -0.540792
 C    7.115318    1.420617   -1.022745
 C    5.776981    1.250465   -0.315127
 O    9.327665    0.571675   -0.537478
 O    5.887185   -2.306149    0.085982
 C    3.262796   -0.843122    0.833598
 O    3.433660   -2.170376    1.248401
 O   -0.061336   -3.689507   -0.590199
 H   -4.208517    1.507628   -1.513716
 H   -6.996334   -2.850327   -1.508904
 H   -6.116307   -2.612197    0.006477
 H    1.207099   -0.269852    1.417262
 H    1.178246    0.762988   -1.124140
 H    1.989024   -2.986442    1.677762
 H   -2.256463   -2.517986   -0.475642
 H   -2.981726   -1.626019    0.883096
 H   -1.078830   -0.455365   -1.232131
 H   -1.370493    0.683027    1.228902
 H   -3.756184    0.580572    1.317914
 H   -4.564897    2.641199    0.782368
 H   -6.099923   -0.727941   -2.420493
 H   -4.739050   -1.670642   -1.799758
 H   -8.232030    0.498087    0.564784
 H    2.236744    2.872273   -0.301413
 H    2.784251    2.031413    1.169022
 H   -2.229670    3.386406    1.335418
 H    3.876366   -1.394180   -1.168346
 H    8.201507   -1.529973    0.152236
 H    7.527372    2.419043   -0.865678
 H    6.986867    1.274741   -2.102147
 H    5.013401    1.866203   -0.786089
 H    5.860409    1.550457    0.738957
 H    3.641314   -0.148132    1.598314
 H    4.296238   -2.485789    0.902073
