29 
5vfd_ligand_xtb.xyz
 C    1.541144    1.828965   -0.155913
 C    2.311572    0.972167   -0.820493
 C    2.290863   -0.512836   -0.566379
 C    1.275564    0.070140    1.530277
 C    0.579973    1.252308    0.863659
 C   -0.007057   -0.749351   -0.165134
 C    3.683858   -1.014829   -0.120119
 O    4.707932   -0.450887   -0.417161
 N    3.622811   -2.145464    0.603884
 N    1.276511   -0.900347    0.426113
 O   -0.595927   -1.585202   -0.808576
 N   -0.455025    0.498958    0.138915
 O   -1.623996    1.014476   -0.280189
 S   -3.762396   -0.613280    0.267350
 O   -5.059954   -0.052453    0.131785
 O   -3.223394   -0.942637   -1.212892
 O   -2.673316    0.756287    0.650009
 C    1.521297    3.303598   -0.374601
 H    3.028980    1.303137   -1.554271
 H    2.067461   -1.043714   -1.501799
 H    2.292128    0.285454    1.852905
 H    0.697691   -0.343860    2.359578
 H    0.128267    1.991459    1.521734
 H    4.475116   -2.577048    0.919740
 H    2.733850   -2.567197    0.811656
 H   -2.295499   -1.258371   -1.250244
 H    2.231779    3.589824   -1.144094
 H    1.771675    3.824177    0.549231
 H    0.522743    3.618928   -0.676015
