21 
5vfj_ligand_dft.xyz
 C   -3.716376    0.048816   -0.000107
 O   -4.574640    1.096534    0.000073
 C   -2.272924    0.397278   -0.000199
 C   -1.360690   -0.583790    0.000150
 C    0.096523   -0.457445    0.000163
 C    0.751933    0.784908    0.000143
 C    2.132060    0.855484    0.000049
 C    2.888660   -0.329154   -0.000045
 C    2.256621   -1.562016    0.000047
 C    0.865471   -1.623862    0.000124
 O    4.241244   -0.144323   -0.000067
 O    2.750881    2.060175    0.000042
 O   -4.147640   -1.077179   -0.000152
 H   -4.088172    1.930619    0.000104
 H   -1.984183    1.446438   -0.000572
 H   -1.754056   -1.599558    0.000410
 H    0.200475    1.719013    0.000263
 H    2.846567   -2.475393    0.000078
 H    0.374149   -2.592026    0.000172
 H    4.692765   -0.996103   -0.001326
 H    3.706040    1.904034   -0.000243
