21 
5vfj_ligand_xtb.xyz
 C   -3.699233    0.044683    0.001454
 O   -4.544403    1.100630    0.023951
 C   -2.265312    0.380080    0.005344
 C   -1.348767   -0.598507   -0.011761
 C    0.090332   -0.464526   -0.008095
 C    0.734651    0.776679   -0.013453
 C    2.113100    0.863671   -0.007347
 C    2.881506   -0.312126    0.006021
 C    2.251865   -1.545062    0.010192
 C    0.872569   -1.621301    0.002234
 O    4.242488   -0.160671    0.013580
 O    2.716841    2.077428   -0.013327
 O   -4.132562   -1.076898   -0.019378
 H   -4.076060    1.945069    0.039702
 H   -1.994711    1.426791    0.024295
 H   -1.731085   -1.612418   -0.027354
 H    0.177959    1.698568   -0.024124
 H    2.848054   -2.447477    0.019776
 H    0.393222   -2.587972    0.005968
 H    4.665425   -1.026229    0.023409
 H    3.674007    1.938210   -0.007823
