69 
5vgo_ligand_xtb.xyz
 C    5.735357   -0.243711   -0.824885
 C    3.525542   -1.578399   -1.291368
 C    4.420916   -0.643039   -0.547181
 C    3.940520   -0.026657    0.587810
 C    6.218816    0.654766    0.089414
 C    7.613022    1.076323   -0.201732
 C    2.582460   -0.162168    1.082909
 C    2.557159   -2.198421   -0.286272
 C    6.765111   -0.543175   -1.863688
 C    8.792001   -1.118610   -0.497297
 C    8.074355    0.011754   -1.236340
 S    5.088478    1.056440    1.312931
 O    2.093768    0.579517    1.926536
 N    1.875063   -1.170862    0.486513
 C    0.527832   -1.415117    0.861978
 C    0.213784   -2.636100    1.449176
 C   -1.092720   -2.932872    1.783898
 C   -2.087850   -2.004002    1.549846
 C   -1.786044   -0.770299    0.981858
 C   -0.470290   -0.469500    0.611850
 C   -0.154222    0.833638   -0.089331
 O    0.070177    1.906162    0.793915
 C   -2.893953    0.176516    0.766751
 C   -3.963794   -0.098728    0.028216
 C   -5.050090    0.933333   -0.046460
 C   -4.410061    2.313252   -0.255225
 O   -4.836825    3.084720   -1.098424
 N   -3.368197    2.548269    0.547476
 C   -2.872942    1.523882    1.446377
 C   -2.644250    3.796630    0.480325
 N   -5.992616    0.714782   -1.106642
 C   -6.978015   -0.196911   -1.028981
 C   -7.985912   -0.285502   -2.010900
 C   -8.916427   -1.281501   -1.846059
 N   -8.889339   -2.132069   -0.817603
 C   -7.909516   -1.959272    0.044249
 N   -6.955436   -1.050120    0.004008
 C    8.996919    0.612864   -2.290770
 H    4.101170   -2.361305   -1.786348
 H    2.974790   -1.025848   -2.059807
 H    8.248852    1.090932    0.683376
 H    7.624749    2.078886   -0.638530
 H    3.123911   -2.859312    0.385167
 H    1.796461   -2.790932   -0.798436
 H    6.526759   -0.021602   -2.794208
 H    6.844217   -1.607732   -2.085443
 H    8.138970   -1.548194    0.259345
 H    9.083474   -1.904831   -1.190394
 H    9.689819   -0.746871   -0.008541
 H    0.999755   -3.349354    1.645752
 H   -1.331040   -3.884872    2.233210
 H   -3.112355   -2.221109    1.810195
 H   -1.004966    1.124307   -0.713601
 H    0.720326    0.692884   -0.743084
 H    0.791391    1.637590    1.397039
 H   -4.092238   -1.011397   -0.528196
 H   -5.576188    0.946939    0.923983
 H   -1.860802    1.795265    1.745979
 H   -3.505429    1.476365    2.345753
 H   -3.040610    4.371035   -0.354854
 H   -2.778738    4.362667    1.404624
 H   -1.581597    3.603108    0.332849
 H   -6.054161    1.480118   -1.768779
 H   -8.013479    0.402678   -2.840146
 H   -9.727132   -1.423754   -2.549721
 H   -7.878661   -2.640340    0.886662
 H    9.291327   -0.145898   -3.012471
 H    8.500044    1.420336   -2.824216
 H    9.896202    1.010157   -1.825541
