44 
5vii_ligand_dft.xyz
 N    1.341580    2.151047   -1.716788
 C    0.607413    1.680103   -0.486968
 C   -0.915832    1.629086   -0.721533
 C   -1.738469    0.922913    0.392468
 C   -3.204371    1.004751    0.170059
 C   -3.661899   -0.253018   -0.001819
 N   -2.620752   -1.179585    0.121448
 N   -1.560535   -0.546297    0.366830
 C   -0.287015   -1.182502    0.476537
 C    0.134130   -2.014511   -0.557786
 C    1.455922   -2.441830   -0.558456
 C    2.341817   -2.054472    0.452377
 C    3.808716   -2.393072    0.369450
 C    4.700598   -1.161115    0.119493
 C    4.421170   -0.394937   -1.153650
 F    3.212500    0.377205   -1.011097
 C    1.852920   -1.298070    1.527761
 C    0.544146   -0.845067    1.546965
 C   -5.040428   -0.777009   -0.281176
 O   -5.912239    0.227167   -0.264445
 O   -5.257138   -1.935064   -0.491541
 C    0.982766    2.542879    0.717508
 O    0.459072    2.394579    1.788618
 O    1.925980    3.430220    0.418140
 H    2.304855    1.765313   -1.667740
 H    1.402731    3.173952   -1.774306
 H    0.918750    1.798333   -2.581448
 H    1.005291    0.681264   -0.302201
 H   -1.314872    2.644931   -0.809766
 H   -1.122177    1.112725   -1.666615
 H   -1.442709    1.302428    1.381358
 H   -3.786241    1.917996    0.163637
 H   -0.548059   -2.292206   -1.355365
 H    1.805642   -3.072895   -1.369804
 H    3.974978   -3.130362   -0.422799
 H    4.130920   -2.862438    1.305025
 H    4.655707   -0.464893    0.964638
 H    5.741549   -1.499574    0.060310
 H    5.206739    0.329704   -1.371155
 H    4.259445   -1.043978   -2.017468
 H    2.511056   -1.048441    2.354742
 H    0.181245   -0.240948    2.371990
 H   -6.803104   -0.123850   -0.442725
 H    2.148795    3.961949    1.205575
