35 
5vja_ligand_dft.xyz
 O   -1.130555   -2.178388    2.141662
 C   -0.398034   -2.379023    1.194653
 N    0.959476   -2.393887    1.287806
 C   -0.918199   -2.770470   -0.201236
 C   -1.053577   -4.295286   -0.296104
 S   -2.560538   -2.055723   -0.524320
 C   -2.198730   -0.341978   -0.358918
 N   -0.969555    0.076602   -0.300402
 C   -0.858129    1.425974   -0.159017
 N    0.301376    2.130410   -0.033918
 N    0.050197    3.467178    0.109967
 C   -1.256721    3.600991    0.066072
 C   -1.893254    2.350636   -0.104114
 C   -3.256257    1.894234   -0.190134
 O   -4.288632    2.529151   -0.158350
 N   -3.289463    0.477764   -0.317778
 C    1.637301    1.666153    0.021395
 C    1.968193    0.415768   -0.498495
 C    2.616079    2.478082    0.594198
 C    3.927574    2.025196    0.652591
 C    4.280523    0.770862    0.161637
 C    3.284545   -0.011784   -0.405141
Cl    3.683078   -1.604917   -1.026328
 H    1.360328   -2.088714    2.162317
 H    1.555831   -2.364861    0.474255
 H   -0.238054   -2.404659   -0.975459
 H   -0.073575   -4.754585   -0.139222
 H   -1.734672   -4.669465    0.473543
 H   -1.424129   -4.599514   -1.279130
 H   -1.707714    4.578836    0.155058
 H   -4.220574    0.078335   -0.326242
 H    1.211582   -0.207249   -0.953966
 H    2.338271    3.450577    0.980240
 H    4.689220    2.657554    1.097101
 H    5.301167    0.410212    0.217658
