103 
5vkc_ligand_xtb.xyz
 C    5.378750   -1.318411   -0.352242
 C    5.128308    1.855003    1.986353
 C    4.375149   -3.305721   -3.312512
 C    3.009283   -4.652396   -1.302316
 C    0.950214   -2.089063   -1.094446
 C    1.632917   -0.142679   -2.332215
 C   -4.589325    1.958961   -0.933756
 C   -2.536448    0.591656    0.296821
 C    5.405498    3.170095    1.650969
 C    3.776421   -3.520083   -0.966653
 C    0.922634   -1.300651    0.059982
 C    1.578140    0.679906   -1.223283
 C    2.812828    2.347576    1.642222
 C    1.235437    0.081621   -0.000932
 C   -2.244410    1.733349   -0.450321
 C    3.614597   -4.401131   -3.612258
 C    2.929543   -5.084167   -2.597258
 C    1.319975   -1.503022   -2.276374
 C    5.274896   -1.719359   -1.652283
 C    3.807598    1.438715    1.973943
 C   -3.832418    0.151074    0.429783
 C    4.676802   -1.977819    0.666769
 C   -3.287083    2.414855   -1.059596
 C    3.208378    3.647814    1.341740
 C    4.483238   -2.837749   -1.986929
 C    1.863836    2.108704   -1.393423
 C    0.614529   -1.607253    1.412773
 C   -4.892034    0.822690   -0.189224
 C    3.857709   -3.041396    0.374490
 C    0.755912   -0.420501    2.119662
 C    0.945082    3.177012   -1.456259
 C    3.099866    2.703635   -1.587671
 C    0.606556   -0.198707    3.562779
 C   -9.917795   -1.068259   -0.501410
 C   -6.501724   -1.013020   -0.308755
 C   -7.304584    1.236944   -0.325234
 C   -7.732992   -1.462877    0.477151
 C   -8.541970    0.790576    0.467533
 C    4.450306    2.097503   -1.671448
 C  -11.005134   -0.073091   -0.852282
 C    3.852668    5.066725   -1.857979
 C    0.374363   -3.000193    1.913058
 C    1.357720    1.966071    1.636891
 C   -0.545910    3.111925   -1.406377
 C    1.402876   -3.461720    2.961989
 C    2.831143   -3.122164    2.536294
 N    4.466663    4.048212    1.333605
 N    1.578528    4.324043   -1.646045
 N    1.141278    0.591841    1.261384
 N    2.873595    4.028222   -1.727873
 N   -6.199772    0.369480    0.013523
 N   -8.846471   -0.587583    0.176097
 O    1.215512    0.625892    4.198648
 O  -10.010949   -2.246333   -0.788819
 O   -0.280864   -1.003755    4.185003
 O   -0.930282    2.096566   -0.503089
 O    3.090327   -3.707480    1.277248
 H    6.007466   -0.480684   -0.085987
 H    5.923969    1.175542    2.250672
 H    4.912533   -2.781048   -4.089805
 H    2.494006   -5.174877   -0.510909
 H    0.689577   -3.134957   -1.056874
 H    1.910173    0.293419   -3.281265
 H   -5.368871    2.506307   -1.440242
 H   -1.722540    0.065050    0.768924
 H    6.420717    3.545419    1.632161
 H    3.539826   -4.751295   -4.631747
 H    2.339788   -5.954286   -2.847015
 H    1.366813   -2.091656   -3.180066
 H    5.806821   -1.200689   -2.436267
 H    3.547535    0.422572    2.228591
 H   -4.033511   -0.721369    1.032679
 H    4.809423   -1.638132    1.682254
 H   -3.104264    3.304037   -1.642480
 H    2.474508    4.403094    1.089731
 H   -6.712080   -1.121842   -1.386526
 H   -5.651039   -1.645761   -0.061959
 H   -7.056641    2.260478   -0.040393
 H   -7.538898    1.207753   -1.403607
 H   -7.524494   -1.416227    1.551189
 H   -8.019429   -2.478098    0.199420
 H   -9.383961    1.437794    0.233564
 H   -8.317738    0.875447    1.537707
 H    4.384753    1.036993   -1.441096
 H    4.858945    2.212275   -2.676219
 H    5.134648    2.575725   -0.971879
 H  -10.632192    0.681245   -1.541619
 H  -11.812348   -0.618771   -1.333190
 H  -11.389825    0.412684    0.041375
 H    4.453910    5.131918   -0.947209
 H    4.504941    4.873341   -2.710834
 H    3.320498    6.003057   -2.008462
 H    0.452346   -3.665777    1.052728
 H   -0.635809   -3.127217    2.319552
 H    0.802358    2.613035    0.955371
 H    0.967477    2.113397    2.647764
 H   -0.932139    2.884175   -2.412233
 H   -0.936023    4.091872   -1.098385
 H    1.309602   -4.540950    3.088744
 H    1.224228   -2.987315    3.927774
 H    3.546455   -3.502535    3.277738
 H    2.931196   -2.033499    2.482353
 H   -0.737507   -1.584143    3.562637
