63 
5vlr_ligand_xtb.xyz
 C   -5.248959    0.687219   -2.212439
 C   -6.965831    1.490214   -0.545831
 C   -4.546681    1.399892   -0.005281
 C   -3.651177   -0.796649    0.511974
 C   -0.009108    2.261820    2.093415
 C   -2.392137    2.388726    1.786974
 C    0.034676    1.081876    1.349454
 O   -7.531750   -1.080986   -1.826394
 C   -6.874921   -1.471542   -0.882216
 C   -7.101296   -2.858841   -0.309575
 N   -5.916482   -0.712245   -0.288207
 C   -5.103046   -1.147271    0.817581
 C   -5.686611    0.668646   -0.737609
 O   -4.528063    2.612964    0.008010
 N   -3.534101    0.644872    0.502311
 C   -2.357666    1.220007    1.034112
 C   -1.214211    2.903473    2.300063
 C   -1.146250    0.577215    0.812910
 C    1.300129    0.401815    1.133006
 C    2.582605    0.942496    1.129200
 C    3.506255   -0.079471    0.888877
 C    2.765474   -1.255888    0.748220
 C    3.049486   -2.616119    0.454660
 N    4.304558   -3.048120    0.263832
 N    2.067075   -3.502712    0.384020
 C    0.825819   -3.051237    0.584575
 N    0.444456   -1.834215    0.823133
 N    1.427844   -0.925774    0.892475
 C    4.946997    0.053623    0.805827
 C    5.962773   -0.570796    1.506120
 C    7.146592   -0.004819    1.011049
 N    6.891694    0.885659    0.078378
 N    5.562814    0.930108   -0.036909
 C    4.968397    1.710768   -1.078399
 C    4.723392    0.858948   -2.328369
 F    3.918536   -0.186031   -2.075354
 F    5.848402    0.354254   -2.839467
 F    4.135268    1.575002   -3.293907
 H   -4.336915    0.109255   -2.351505
 H   -6.035361    0.264211   -2.830154
 H   -5.064981    1.713433   -2.518685
 H   -7.740544    1.131338   -1.215242
 H   -7.313041    1.403363    0.482439
 H   -6.755699    2.534695   -0.755199
 H   -3.368563   -1.230773   -0.455295
 H   -2.989104   -1.197465    1.282439
 H    0.896610    2.661190    2.522602
 H   -3.326841    2.892754    1.961972
 H   -7.355676   -2.813744    0.746584
 H   -7.932226   -3.299806   -0.854031
 H   -6.225171   -3.488984   -0.448252
 H   -5.408675   -0.633489    1.740339
 H   -5.195227   -2.219841    0.968006
 H   -1.243922    3.811506    2.883328
 H   -1.106587   -0.318515    0.216497
 H    2.817859    1.974868    1.302422
 H    5.070412   -2.398507    0.217802
 H    4.430508   -4.004874   -0.016614
 H    0.036733   -3.787666    0.531284
 H    5.858713   -1.298837    2.284582
 H    8.157007   -0.210435    1.301232
 H    5.661106    2.512218   -1.348733
 H    4.005025    2.121631   -0.765229
