103 
5voj_ligand_xtb.xyz
 C    0.955228    3.916069    0.346125
 C   -0.484890    1.674804   -1.255451
 C   -0.162598   -3.379157    2.389755
 C    0.321254   -4.587640    1.649995
 C    0.089538   -3.100950   -1.574827
 C   -0.498320   -0.824200   -0.902499
 C    1.592623   -3.239595   -1.578069
 C   -1.983095    1.775810    0.625226
 C   -4.075002   -0.286497    1.296889
 C   -2.441407   -1.222570    2.975203
 C   -1.540032   -3.625099    3.020896
 C    0.107955   -4.837077    0.363947
 C   -0.655523   -3.964183   -0.549422
 C   -0.731631   -4.274766   -2.011372
 C    0.088930    6.265683    0.761286
 C    1.214843    5.312700    0.543401
 C   -0.553276    2.135022    0.206385
 C   -1.333214    0.406959   -1.254224
 C   -3.108643   -0.423356    0.118884
 C   -3.796742   -1.411336    2.293333
 C   -2.039485   -2.426866    3.830283
 C    4.596527   -3.242768    0.046537
 C    3.954499   -3.322998    1.392699
 C    5.329896   -2.747982    1.250912
 C   -5.961509    0.699875    0.138271
 C   -7.881856    1.312502   -1.206160
 C   -9.034212    0.494911   -1.790623
 C   -7.066554    1.963365   -2.323505
 C   -8.409270    2.361446   -0.228215
 C    3.183661    3.488284    0.156567
 C    4.238477    2.589775   -0.022823
 C    5.541587    3.053782   -0.024219
 C    7.854935    2.516513   -0.247886
 C    5.803809    4.427901    0.151987
 C    4.777712    5.316877    0.333192
 C    3.447239    4.872565    0.343113
 C    5.015918   -4.429637   -0.762662
 N   -2.278303    0.593911   -0.154528
 N   -0.439608   -1.791576   -1.831071
 N    2.225555   -2.221414   -0.950757
 N   -5.426519   -0.377046    0.778845
 N    1.900409    3.041988    0.152822
 N    2.437893    5.755807    0.531849
 O   -0.334166    3.520707    0.370158
 O   -3.126906   -1.423509   -0.586703
 O    0.085185   -0.889556    0.169374
 O    2.159883   -4.194131   -2.056790
 O    3.996128   -0.669835   -0.260896
 O    4.373101   -1.978864   -2.301623
 O   -5.492224    1.812565    0.198411
 O   -7.077206    0.332168   -0.505400
 O    6.507917    2.116388   -0.196748
 S    3.904183   -1.918863   -0.955040
 H    0.541333    1.496039   -1.569928
 H   -0.935101    2.436462   -1.893541
 H    0.546821   -3.138922    3.185020
 H   -0.208346   -2.528546    1.711093
 H    0.871560   -5.311560    2.236255
 H   -2.044719    1.580377    1.694934
 H   -2.669339    2.589378    0.364390
 H   -3.993620    0.694500    1.767450
 H   -2.491656   -0.337260    3.613956
 H   -1.674011   -1.043357    2.220856
 H   -2.256168   -3.873359    2.236335
 H   -1.470933   -4.491563    3.683224
 H    0.527311   -5.725498   -0.088229
 H   -1.513588   -3.462960   -0.118276
 H   -1.655256   -4.073857   -2.533112
 H   -0.178784   -5.128304   -2.375610
 H   -0.479054    5.972537    1.642533
 H   -0.588677    6.242186   -0.090338
 H    0.482949    7.268925    0.892050
 H    0.183794    1.576758    0.794707
 H   -1.879445    0.251118   -2.189750
 H   -4.592273   -1.435044    3.040447
 H   -3.811611   -2.355510    1.745569
 H   -1.248643   -2.121667    4.518912
 H   -2.899052   -2.734087    4.431135
 H    3.141105   -2.643310    1.596141
 H    3.836979   -4.298913    1.840205
 H    5.439519   -1.679040    1.349911
 H    6.175270   -3.323599    1.598338
 H   -9.705594    1.143294   -2.345432
 H   -8.646732   -0.270641   -2.457551
 H   -9.587847    0.008462   -0.992094
 H   -6.246797    2.538307   -1.902060
 H   -6.659386    1.198515   -2.981701
 H   -7.703114    2.625862   -2.903090
 H   -7.584047    2.926305    0.196228
 H   -9.075643    3.043991   -0.748019
 H   -8.956425    1.877931    0.578246
 H    4.044394    1.536293   -0.152058
 H    8.040244    3.214368   -1.071099
 H    8.423525    1.603693   -0.419541
 H    8.179802    2.970775    0.694525
 H    6.819029    4.793126    0.150108
 H    4.968851    6.369220    0.474500
 H    4.168302   -4.796384   -1.338460
 H    5.386766   -5.224129   -0.118162
 H    5.797460   -4.139768   -1.461992
 H   -1.024007   -1.705603   -2.649769
 H    1.663769   -1.574530   -0.398412
 H   -5.739756   -1.287335    0.475847
