50 
5vp0_ligand_xtb.xyz
 N   -1.883866    0.814091    0.521271
 N   -3.222266   -0.929600   -0.324287
 C   -3.810479    2.673702   -0.105439
 C   -1.681867    2.098534    0.793228
 C    1.403647   -1.836144   -0.332967
 C   -4.012504    1.340979   -0.395684
 C    3.874385   -0.600974   -0.792951
 C    2.986140   -0.089186    0.143586
 C   -2.248649   -1.943504   -0.390439
 C   -1.305755    4.850785    1.387135
 C    0.107838   -3.209143    1.316735
 C    2.294177   -2.354889   -1.265418
 C    3.511972   -1.744843   -1.493289
 C    1.763632   -0.696824    0.369963
 C   -2.622573    3.079745    0.516571
 C   -3.008384    0.407735   -0.042965
 C   -5.480922   -0.388876   -1.261220
 C   -4.593263   -1.369070   -0.520733
 C    0.319493   -2.813699    3.615362
 C    0.084324   -2.509088   -0.058049
 C    5.555649    1.095131   -0.694318
 N   -5.143636    0.916366   -1.075066
 N   -0.990201   -1.547939   -0.128399
 O   -6.445000   -0.715516   -1.908942
 O   -2.561936   -3.074229   -0.705423
 O   -2.493802    4.404097    0.772619
 O    5.138749   -0.090865   -1.108301
 O    0.286907   -2.249841    2.330093
 F    3.279013    1.011524    0.861195
 F    4.721164    2.103404   -0.976549
 F    6.701161    1.362775   -1.322035
 F    5.821769    1.163113    0.615273
 H   -4.546259    3.417993   -0.367337
 H   -0.724383    2.314351    1.242069
 H   -0.430148    4.642909    0.765253
 H   -1.422146    5.927166    1.499228
 H   -1.170193    4.395058    2.372381
 H    0.924171   -3.947926    1.337158
 H   -0.846083   -3.739314    1.453069
 H    2.034190   -3.241249   -1.822680
 H    4.209527   -2.136062   -2.215362
 H    1.116005   -0.281920    1.124425
 H   -5.071326   -1.561217    0.452794
 H   -4.563330   -2.317078   -1.065352
 H    1.149482   -3.523834    3.716330
 H    0.459772   -1.990646    4.312903
 H   -0.618051   -3.334195    3.845717
 H   -0.116372   -3.281634   -0.809157
 H   -5.757176    1.618323   -1.469943
 H   -0.876368   -0.629892    0.297900
