112 
5vp9_ligand_xtb.xyz
 C   -2.004820   -1.400329   -0.432665
 C   -0.242376   -0.276792    2.012385
 C    1.280425    1.357850    2.760561
 C    1.319322    2.799258    0.733557
 C    4.109799    3.042907   -2.652007
 C    6.133034    2.119795   -1.406589
 C    6.798680    0.806426   -1.159864
 C    0.115913    0.633316    0.830905
 C    0.758078    2.952325   -0.698395
 C    2.965730    2.532441   -1.779087
 C    5.261113    2.035392   -2.671323
 C    6.639828    0.036999   -0.092197
 C    5.848740    0.402761    1.109430
 C    5.547325   -0.626676    2.156470
 C   -1.719280   -3.818789   -1.248149
 C   -2.368500   -2.619641   -1.238431
 C   -1.805715   -1.774201    1.053229
 C    0.048875    0.586793    3.243821
 C    1.845725    3.554820   -1.589240
 C    4.433182   -0.093966    1.291659
 C    2.474148    0.386674    2.676228
 C    3.778034   -1.001640    0.271760
 C    2.722618   -3.688441   -1.243481
 C    3.556983   -4.686942   -0.509231
 C    2.344284   -5.134114   -1.253767
 C   -1.707246    3.377975   -0.666319
 C   -3.963580    4.333419   -0.655445
 C   -4.467223    3.556926   -1.871837
 C   -4.401259    3.703176    0.667783
 C   -4.431523    5.784398   -0.728137
 C   -4.333347   -1.848421    0.967433
 C   -5.442865   -1.897331    2.018963
 C   -6.741114   -1.326797    1.447295
 C   -6.522169    0.104989    0.977204
 C   -5.410184    0.150069   -0.068582
 C   -4.106336   -0.407524    0.505795
 C   -2.270140   -4.729699   -2.178875
 C   -3.319268   -4.219214   -2.868250
 N    0.910883    1.697465    1.394515
 N    3.460787    0.801863    1.869611
 N    2.871281   -1.871579    0.823864
 N   -0.430084    3.782556   -0.660454
 N   -3.068361   -2.420859    1.552955
 N   -3.039845   -0.334750   -0.540910
 O   -1.607012   -0.700660    1.915151
 O    2.067559    3.607645    1.239147
 O    2.428432   -0.723846    3.181417
 O    3.951150   -0.980262   -0.919323
 O    1.059320   -1.614609   -0.947700
 O    0.876320   -3.354990    0.678895
 O   -2.061548    2.189825   -0.646585
 O   -2.512301    4.424399   -0.686050
 S    1.770940   -2.625608   -0.197452
 S   -3.666120   -2.606094   -2.409086
 H   -1.040394   -1.028490   -0.806945
 H    0.387009   -1.171738    2.030732
 H    1.516912    2.256964    3.331775
 H    3.742007    3.199630   -3.667266
 H    4.466506    4.002719   -2.274975
 H    6.890436    2.894963   -1.542198
 H    5.517808    2.398577   -0.552067
 H    7.425651    0.455465   -1.967098
 H   -0.800696    1.056658    0.416374
 H    0.670982    0.092352    0.059498
 H    0.470215    1.981235   -1.105362
 H    2.560009    1.620622   -2.225655
 H    3.362904    2.260303   -0.799338
 H    4.844021    1.028749   -2.746618
 H    5.885737    2.204111   -3.548361
 H    7.129730   -0.925238   -0.046542
 H    6.013639    1.413872    1.465714
 H    5.545578   -0.337791    3.195980
 H    5.873546   -1.640831    1.980857
 H   -0.863078   -4.035356   -0.635435
 H   -0.964043   -2.489471    1.110190
 H   -0.780393    1.263815    3.440393
 H    0.267455   -0.008195    4.126413
 H    2.242836    4.452346   -1.112759
 H    1.419026    3.827965   -2.555053
 H    3.077570   -3.159077   -2.110563
 H    4.534403   -4.918362   -0.903587
 H    3.507030   -4.669924    0.569386
 H    1.479703   -5.418906   -0.673654
 H    2.463410   -5.679377   -2.177551
 H   -4.054888    2.551161   -1.898699
 H   -5.551558    3.503597   -1.849418
 H   -4.168278    4.070693   -2.781826
 H   -4.093769    4.339345    1.494025
 H   -3.946741    2.724325    0.801144
 H   -5.482678    3.607984    0.690804
 H   -4.026660    6.352795    0.104032
 H   -5.515291    5.825976   -0.690009
 H   -4.093517    6.242792   -1.652664
 H   -4.615027   -2.460175    0.105384
 H   -5.607819   -2.926746    2.338701
 H   -5.150281   -1.306100    2.889448
 H   -7.081730   -1.943434    0.615013
 H   -7.512102   -1.353084    2.214913
 H   -7.440735    0.493803    0.542109
 H   -6.261680    0.740028    1.824503
 H   -5.257103    1.177148   -0.396129
 H   -5.708604   -0.447997   -0.932565
 H   -3.776350    0.192167    1.359841
 H   -1.897730   -5.725479   -2.330667
 H   -3.920122   -4.681628   -3.625473
 H    3.472009    1.768412    1.566325
 H    2.758238   -1.881667    1.840838
 H   -0.280691    4.782205   -0.637641
 H   -3.075002   -2.255244    2.571499
 H   -3.036850   -3.432948    1.394731
 H   -2.616578    0.638915   -0.534943
 H   -3.478457   -0.429261   -1.467281
