60 
5vqu_ligand_dft.xyz
 C    0.861654   -2.804784   -1.681109
 N    3.805294    0.871821    1.477172
 C    3.647886   -2.929697   -1.619545
 C    1.610323    2.639572    1.274192
 C    1.544615    1.413864    2.050558
 C    2.608389    0.591133    2.097952
 C   -0.165914   -0.866291    0.215604
 C   -0.137985    0.244413   -0.600694
 C   -1.345136    1.003749   -0.726495
 C   -2.510974    0.645967    0.009525
 C   -2.461308   -0.493429    0.864103
 C   -1.310365   -1.228950    0.954628
 C   -1.421607    2.132364   -1.580816
 C    2.959970   -2.322415   -0.575827
 C   -2.585655    2.858358   -1.695411
 C   -3.742057    2.497686   -0.958114
 C   -3.696389    1.413844   -0.127160
 C   -2.631525    3.989935   -2.579905
 C    1.122390    0.650490   -1.316076
 C   -4.548503   -1.742761    1.222112
 C   -4.304824   -2.326762   -0.173224
 C   -3.717676   -0.230259    2.964485
 C    1.560412   -2.256892   -0.615914
 C    1.557898   -3.409845   -2.726673
 C    2.945112   -3.469963   -2.696303
 C    4.783538   -1.080994    0.331803
 C    4.898370   -0.093943    1.482620
 C    3.974743    2.024423    0.714198
 F   -5.357341   -3.124829   -0.515642
 N    2.875955    2.857065    0.701984
 N   -3.596745   -0.846124    1.650165
 N   -2.674535    4.898862   -3.297743
 O    0.949762   -1.636533    0.446969
 O    3.555355   -1.761820    0.512147
 O    5.001120    2.267756    0.108695
 O    0.704990    3.426700    1.077200
 O   -5.514173   -2.056382    1.885732
 H   -0.221675   -2.737405   -1.698796
 H    4.731846   -2.977857   -1.593888
 H    0.612477    1.161446    2.535756
 H    2.578759   -0.359276    2.615429
 H   -1.259074   -2.098012    1.602697
 H   -0.561189    2.433075   -2.165122
 H   -4.648811    3.082943   -1.063033
 H   -4.575875    1.122627    0.437809
 H    1.219498    1.737299   -1.357162
 H    1.999358    0.264128   -0.793444
 H    1.148668    0.263269   -2.341132
 H   -3.382457   -2.919844   -0.178336
 H   -4.199663   -1.523598   -0.912603
 H   -2.903624   -0.558437    3.619967
 H   -3.680793    0.860465    2.874749
 H   -4.673513   -0.534653    3.390538
 H    1.008799   -3.831997   -3.561806
 H    3.490413   -3.938874   -3.508759
 H    5.631172   -1.778446    0.357862
 H    4.792630   -0.548284   -0.626946
 H    4.874118   -0.628886    2.435414
 H    5.837615    0.455186    1.407780
 H    2.978886    3.696557    0.145720
