60 
5vqx_ligand_dft.xyz
 C    4.251644   -2.871452    0.321769
 C    4.517317   -2.374696   -1.086746
 C    3.840842   -0.857276   -2.895960
 N    3.350748    4.570619    3.198247
 C   -0.883997    0.709726    1.308940
 C    3.997040    0.895476    0.146678
 C    4.157494    1.993662    0.943988
 N    3.662955   -1.397011   -1.555737
 C    3.209405    3.650605    2.507550
 C    3.043152    2.504192    1.657325
 C   -3.782008   -2.613750    1.676253
 C   -3.029551   -2.103555    0.625326
 C   -4.718327   -0.727189   -0.344913
 C   -3.144172   -3.180353    2.779634
 C   -1.757668   -3.243212    2.828569
 C   -0.996815   -2.735972    1.775938
 C   -1.630104   -2.161658    0.683782
 C   -4.722154    0.235652   -1.521524
 C   -3.618762    2.279061   -0.791686
 C   -1.202591    2.666137   -1.334891
 C   -1.236357    1.416249   -2.073891
 C   -2.368619    0.690205   -2.113875
 C    0.238932   -0.984218   -0.167683
 O   -3.559813   -1.527985   -0.488450
 O   -0.956074   -1.630970   -0.387806
 N   -3.543713    1.095020   -1.520370
 C    0.327392    0.146088    0.615924
 N   -2.449930    3.009675   -0.784353
 C    1.610789    0.769434    0.732100
 C    1.805965    1.909238    1.551923
 O    5.432473   -2.806304   -1.765499
 C    2.734962    0.259544    0.021223
 C    2.567333   -0.894176   -0.798307
 C    1.341773   -1.497389   -0.880272
 O   -0.234633    3.378039   -1.150233
 O   -4.627595    2.630742   -0.210015
 H    3.285220   -3.381710    0.382291
 H    5.045547   -3.570875    0.582777
 H    4.235502   -2.047731    1.042314
 H    3.002075   -1.139057   -3.542544
 H    3.903243    0.235563   -2.857777
 H    4.765306   -1.267683   -3.301428
 H   -0.867561    1.801706    1.304254
 H   -1.797373    0.394047    0.801334
 H   -0.948469    0.371233    2.349545
 H    4.841343    0.489447   -0.400731
 H    5.122838    2.478161    1.040072
 H   -4.865543   -2.565622    1.635138
 H   -5.629056   -1.340257   -0.366362
 H   -4.688721   -0.170427    0.599610
 H   -3.739319   -3.572510    3.597766
 H   -1.258824   -3.685674    3.684530
 H    0.087867   -2.764312    1.808272
 H   -5.605945    0.873124   -1.475693
 H   -4.734234   -0.323703   -2.460429
 H   -0.324007    1.066785   -2.535971
 H   -2.417488   -0.274433   -2.602737
 H   -2.484122    3.870467   -0.252797
 H    0.979120    2.322693    2.115679
 H    1.199841   -2.377770   -1.498643
