63 
5vqy_ligand_dft.xyz
 N    3.872372    0.809552    1.442638
 C    2.915696   -2.370322   -0.580080
 N    3.010098    2.822819    0.663638
 N   -3.601465   -0.800138    1.672391
 C    0.794034   -2.788224   -1.666243
 N   -2.662786    4.937924   -3.277879
 C    2.846817   -3.524145   -2.696108
 C    4.783208   -1.182002    0.308300
 C    4.078587    1.952074    0.673897
 C    3.575174   -3.003096   -1.626874
 C    1.518581   -2.259246   -0.608392
 C    1.462114   -3.419262   -2.714890
 O    0.939692   -1.614356    0.456277
 O    3.538247   -1.827322    0.501795
 C    4.933622   -0.190966    1.451369
 C    1.741839    2.655204    1.247192
 C    1.635130    1.433451    2.025319
 C    2.668957    0.573238    2.069558
 C   -0.173824   -0.836270    0.233541
 C   -0.140656    0.271740   -0.585358
 C   -1.343428    1.038336   -0.706963
 C   -2.508925    0.686239    0.032390
 C   -2.465704   -0.453281    0.887135
 C   -1.317947   -1.193198    0.975621
 C   -1.416119    2.166999   -1.561528
 C   -2.576839    2.899143   -1.673112
 C   -3.732740    2.545117   -0.931634
 C   -3.689939    1.461237   -0.100520
 O    5.110363    2.156788    0.062935
 O    0.866838    3.477472    1.057243
 C   -2.620318    4.029869   -2.558766
 C    1.117775    0.664570   -1.311568
 C   -4.575677   -1.679512    1.244209
 O   -5.529308   -1.967388    1.946860
 C   -4.389654   -2.258363   -0.153126
 C   -3.695547   -0.197410    2.994312
 C   -5.566858   -3.132417   -0.565698
 H    3.139688    3.656063    0.103650
 H   -0.286589   -2.685378   -1.675733
 H    3.370062   -4.012919   -3.511391
 H    4.800485   -0.655865   -0.653939
 H    5.611364   -1.902639    0.333061
 H    4.657243   -3.085952   -1.609273
 H    0.892725   -3.825926   -3.544178
 H    4.895728   -0.718193    2.408033
 H    5.889591    0.327475    1.369286
 H    0.696748    1.215364    2.515081
 H    2.607690   -0.374559    2.588966
 H   -1.271462   -2.065069    1.620003
 H   -0.555234    2.463059   -2.147739
 H   -4.636358    3.135852   -1.033445
 H   -4.568038    1.173640    0.468333
 H    1.994789    0.258358   -0.804074
 H    1.124793    0.287985   -2.340991
 H    1.231624    1.750265   -1.343076
 H   -3.455219   -2.832950   -0.172631
 H   -4.246546   -1.436552   -0.865466
 H   -2.880055   -0.545849    3.638106
 H   -3.640537    0.893915    2.917573
 H   -4.651402   -0.490610    3.427718
 H   -5.701283   -3.960635    0.134124
 H   -6.496127   -2.557075   -0.573198
 H   -5.402016   -3.541470   -1.567094
