41 
5vt1_ligand_xtb.xyz
 C    4.996216    1.292442    0.040736
 C   -6.110478    0.213168   -0.007103
 C    6.351530    1.004065    0.040130
 C    6.793793   -0.323629    0.008125
 C   -3.340412    0.585045   -0.011899
 C    8.262943   -0.642054    0.007820
 C    1.587418   -0.111666   -0.012187
 C   -0.916017   -0.009015   -0.019855
 C    0.365527    0.698660    0.007798
 C   -3.878665   -0.700723   -0.066514
 C   -5.247808   -0.878301   -0.061213
 N    2.715716    0.632218    0.013179
 N    1.592241   -1.418826   -0.050138
 C    4.053061    0.268671    0.009728
 N   -1.032321   -1.309718   -0.056386
 C    5.837887   -1.327357   -0.022471
 C    4.483034   -1.054589   -0.022223
 O    7.215206    2.055723    0.071648
 S    0.241846   -2.291999   -0.079401
 O    0.414550    1.935360    0.047591
 N   -1.982227    0.830415   -0.000362
 C   -5.566713    1.496981    0.019684
 C   -4.203458    1.684458    0.025048
 C   -7.593627    0.088615   -0.009258
 O   -8.326430    0.969728   -0.410312
 N   -8.085660   -1.085132    0.466562
 H    4.691302    2.327248    0.065833
 H    8.761956   -0.202347   -0.858101
 H    8.746797   -0.270260    0.913313
 H    8.410932   -1.717587   -0.032140
 H   -3.216488   -1.548398   -0.115850
 H   -5.637640   -1.883366   -0.131568
 H    2.511710    1.629133    0.039814
 H    6.163253   -2.357055   -0.047444
 H    3.761792   -1.852287   -0.046298
 H    8.122423    1.728527    0.066638
 H   -1.687862    1.805070    0.028493
 H   -6.241200    2.339367    0.038081
 H   -3.791145    2.682885    0.054012
 H   -9.085167   -1.186891    0.525147
 H   -7.506447   -1.759872    0.931017
