66 
5w0i_ligand_xtb.xyz
 C   -5.719648   -2.824586   -1.416893
 C   -2.381322    3.231944   -0.785881
 C   -3.562406    2.251115   -0.842325
 C   -3.030333    0.902489   -0.513539
 C   -1.779622    0.661893    0.018136
 C   -1.734657   -0.741091    0.197886
 C   -4.998663   -0.556986   -1.062772
 C   -5.045531   -1.655011   -2.144355
 C   -0.828241    3.577891    2.657171
 C   -5.864749   -1.155940    0.078930
 C   -1.097518   -2.620753    1.612352
 C   -0.379611   -2.465269    2.950359
 C   -1.684498    3.868671    1.441760
 C    1.125051   -2.536473    2.711650
 C    1.544898   -1.697776    1.533922
 C    0.602801   -1.229741    0.602929
 C    1.057128   -0.518418   -0.507627
 C    2.397351   -0.215269   -0.672472
 C    3.343277   -0.664565    0.254603
 C    2.881455   -1.405981    1.341147
 C    4.771655   -0.414445    0.122047
 C    5.680982   -0.121344    1.160102
 C    5.569834   -0.448581   -1.010306
 C    8.006768   -0.129142   -1.432131
 C    2.804308    0.620504   -1.850697
 C   -0.833352    1.767472    0.369077
 F    1.809065    1.467095   -2.229430
 F    3.068927   -0.137648   -2.954351
 N   -2.880504   -1.290678   -0.185811
 N   -3.660293   -0.287223   -0.618227
 N   -0.736928   -1.507405    0.761200
 N    6.904846    0.016937    0.695261
 N    6.830525   -0.190070   -0.614396
 N   -1.581975    3.007309    0.401835
 O   -6.585487   -2.222347   -0.479128
 O   -2.415364    4.840337    1.392171
 H   -4.962000   -3.427879   -0.898448
 H   -6.320280   -3.460590   -2.065794
 H   -1.741023    3.090064   -1.662216
 H   -2.739559    4.261559   -0.755578
 H   -4.018670    2.275871   -1.834282
 H   -4.319522    2.545070   -0.108854
 H   -5.418331    0.382821   -1.425058
 H   -4.046723   -1.912580   -2.486974
 H   -5.648874   -1.329772   -2.990278
 H    0.221773    3.503977    2.384478
 H   -1.143595    2.653636    3.136958
 H   -0.957650    4.397273    3.359034
 H   -6.577764   -0.447477    0.500680
 H   -5.190106   -1.518388    0.868511
 H   -2.181040   -2.616340    1.729716
 H   -0.803454   -3.564393    1.137807
 H   -0.644098   -1.498233    3.383516
 H   -0.693294   -3.247181    3.642368
 H    1.668199   -2.215115    3.602949
 H    1.412771   -3.574579    2.516027
 H    0.348629   -0.218047   -1.263014
 H    3.602779   -1.774944    2.056025
 H    5.478026    0.011514    2.203694
 H    5.335524   -0.671153   -2.031534
 H    7.911788    0.652640   -2.188221
 H    8.849084    0.096742   -0.781700
 H    8.178564   -1.084842   -1.930816
 H    3.698395    1.232592   -1.655038
 H   -0.361665    1.564965    1.329991
 H   -0.034854    1.858109   -0.381748
