69 
5w0l_ligand_dft.xyz
 C    3.455799    0.855872    0.118516
 C    3.066877    1.809172    1.068439
 C    1.739347    2.085820    1.350120
 N    7.094374    0.306123    0.413937
 C    0.728389    1.408932    0.641568
 C    1.097813    0.485311   -0.338771
 N   -0.606637    1.672885    0.941417
 C    2.436691    0.191589   -0.579312
 C    2.772505   -0.829396   -1.627994
 C   -1.040507    2.968436    1.474235
 C    0.135247    3.906138    1.727019
 N   -2.737914    1.182141    0.030330
 C    1.307838    3.133865    2.338623
 C   -1.613583    0.765157    0.602366
 C   -4.831690    0.189018   -0.666377
 N   -3.504418    0.077557   -0.084627
 N    6.900394    0.247793   -0.913169
 C    8.022373   -0.012309   -1.787364
 O   -6.967619    1.759083   -1.796506
 C    5.603400    0.409560   -1.256468
 C   -4.775739    0.740503   -2.092854
 C   -6.194126    0.923745   -2.630418
 C   -7.103408    1.223848   -0.498923
 C   -5.750501    1.061026    0.192697
 C    4.890205    0.591942   -0.082680
 C   -2.882991   -1.025335    0.395028
 C   -1.649372   -0.626050    0.857487
 C   -0.681590   -1.562564    1.517366
 C   -2.583563   -3.140234    1.570628
 C   -3.409818   -2.420402    0.492914
 C   -0.377407   -3.999121    0.996007
 C    1.105846   -3.741380    0.804521
 C    5.887452    0.518490    0.919212
 F    1.708096   -1.648193   -1.878154
 F    3.073436   -0.220599   -2.820048
 N   -1.158854   -2.932170    1.367148
 O   -0.851895   -5.113477    0.830487
 H    3.839041    2.359050    1.601285
 H    0.331901   -0.023976   -0.912270
 H    3.624732   -1.458146   -1.355969
 H   -1.582294    2.784962    2.411630
 H   -1.748122    3.424876    0.774592
 H   -0.197981    4.715692    2.383896
 H    0.463676    4.362238    0.786206
 H    2.140738    3.801199    2.581085
 H    0.982515    2.663614    3.277553
 H   -5.233516   -0.831047   -0.698015
 H    8.834348    0.676973   -1.548481
 H    8.373807   -1.039885   -1.661057
 H    7.707036    0.139807   -2.820982
 H    5.282356    0.403086   -2.287210
 H   -4.207694    0.062852   -2.740064
 H   -4.258538    1.704775   -2.076003
 H   -6.178276    1.399506   -3.613851
 H   -6.686513   -0.059562   -2.736746
 H   -7.620135    0.248340   -0.546851
 H   -7.742766    1.915435    0.055106
 H   -5.281153    2.041424    0.322535
 H   -5.881833    0.613508    1.184738
 H   -0.570528   -1.311658    2.583919
 H    0.307221   -1.466606    1.067464
 H   -2.762473   -4.214176    1.550786
 H   -2.860149   -2.750276    2.559196
 H   -3.309583   -2.948603   -0.462936
 H   -4.469928   -2.437376    0.771437
 H    1.581734   -4.706986    0.633854
 H    1.286802   -3.099515   -0.062977
 H    1.558129   -3.266029    1.680824
 H    5.758231    0.600670    1.990512
