34 
5w10_ligand_dft.xyz
 P    3.569785    0.897915   -0.102625
 O    3.295780    2.331780   -0.276975
 O    5.034557    0.414170   -0.504974
 O    3.435484    0.318545    1.392586
 C    2.144980   -0.003970    1.947833
 C    1.510225   -0.966195    0.963422
 O    0.188351   -1.349235    1.267381
 C    1.371417   -0.290060   -0.391784
 O    2.654484   -0.108213   -0.990586
 C    0.473622   -1.274961   -1.123159
 O    1.196042   -2.391084   -1.584357
 C   -0.422948   -1.767223    0.048834
 N   -1.778773   -1.290798    0.020656
 C   -2.910399   -2.048680    0.248673
 N   -4.017062   -1.363736    0.266471
 C   -3.598356   -0.063233    0.051567
 C   -4.294874    1.157200   -0.038445
 N   -5.636787    1.226612    0.068252
 N   -3.601035    2.284823   -0.249599
 C   -2.271615    2.198058   -0.374018
 N   -1.498611    1.115972   -0.312816
 C   -2.219429    0.011001   -0.093816
 H    5.568171    1.176359   -0.767843
 H    2.338774   -0.450353    2.923183
 H    1.541629    0.901706    2.069849
 H    2.162477   -1.845192    0.860078
 H    0.843829    0.665315   -0.295698
 H   -0.117976   -0.810100   -1.919520
 H    2.002822   -2.057516   -2.001824
 H   -0.464654   -2.860586    0.001775
 H   -2.834102   -3.119419    0.389564
 H   -6.163424    0.408064    0.325657
 H   -6.074275    2.133456    0.090503
 H   -1.757492    3.140112   -0.546343
