45 
5w14_ligand_dft.xyz
 C   -3.834823   -0.394376    0.155333
 C   -3.074313   -1.526658    0.876176
 C   -0.586036   -1.160396    0.604770
 B   -5.314614   -0.281460    0.734469
 O   -5.575644    0.738834    1.598868
 O   -6.300696   -1.181129    0.454745
 N   -3.119495    0.862035    0.267637
 N   -1.761099   -1.759638    0.315374
 C    0.302544   -1.707691   -0.292520
 N   -0.381146   -2.590261   -1.075433
 N   -1.622913   -2.616692   -0.708311
 C    1.741140   -1.469651   -0.451932
 C    2.512368   -1.017552    0.618080
 C    3.875826   -0.778375    0.452280
 C    4.482636   -1.001827   -0.784798
 C    3.717640   -1.458715   -1.851406
 C    2.356135   -1.691044   -1.688141
 C    4.721459   -0.266935    1.559122
 O    5.915713   -0.081219    1.493307
 O    4.024042   -0.001006    2.686017
 C   -2.343349    1.335408   -0.750668
 O   -2.169610    0.727078   -1.791728
 C   -1.654758    2.670619   -0.479950
 C   -0.172363    2.481910   -0.329493
 C    0.574445    2.626281    0.806714
 C    1.962333    2.367026    0.601482
 C    2.239928    2.036613   -0.690903
 S    0.822428    2.010497   -1.666171
 H   -3.852436   -0.647512   -0.911769
 H   -2.950931   -1.291057    1.937446
 H   -3.619224   -2.471117    0.795359
 H   -0.487959   -0.397050    1.360325
 H   -6.490478    0.722120    1.906224
 H   -6.046536   -1.840157   -0.199687
 H   -3.362451    1.473232    1.033114
 H    2.054465   -0.847177    1.586201
 H    5.545770   -0.814084   -0.891592
 H    4.182727   -1.632708   -2.816639
 H    1.750285   -2.042839   -2.516816
 H    4.679453    0.309641    3.330115
 H   -1.880866    3.326574   -1.327190
 H   -2.040571    3.152455    0.424755
 H    0.146326    2.925504    1.758123
 H    2.710336    2.403700    1.384333
 H    3.193568    1.753422   -1.115296
