56 
5w44_ligand_xtb.xyz
 C   -0.457343   -1.597629    1.145480
 C   -2.545942   -1.673140    0.239109
 C   -2.268859   -2.796812   -0.503432
 C   -0.915558   -3.382388   -0.440638
 C   -3.865079   -1.012444    0.123569
 C   -5.062293    1.041912    0.702887
 C   -4.851779    1.920872   -0.546077
 C    0.094713    1.363459    2.043040
 C    0.049456    0.125838    2.936779
 C    0.600078   -0.968405    2.026655
 C    1.393235    1.184000    1.258978
 C    2.506856   -0.908363    0.503159
 C    5.034762    1.439111   -2.026008
 C    3.812968    0.987390   -2.496256
 C    2.996243    0.252390   -1.652914
 C    3.384385   -0.033556   -0.348196
 C    4.610100    0.438385    0.102259
 C    5.440000    1.174289   -0.729157
 C   -0.892216    3.567375   -0.497416
 C   -1.911753    4.191068    0.201967
 C   -3.192421    3.667954    0.177268
 C   -3.473193    2.517385   -0.549409
 C   -2.441288    1.895329   -1.242375
 C   -1.159680    2.416480   -1.219956
 N   -1.630098   -1.077845    1.064749
 N   -0.086141   -2.698159    0.441540
 N   -3.984350    0.098918    0.866886
 N    1.561601   -0.255423    1.189652
 O   -3.147344   -3.382428   -1.304998
 O   -0.518723   -4.336888   -1.064171
 O   -4.758373   -1.457690   -0.597819
 O    2.636766   -2.120310    0.528783
Cl    1.460713   -0.326097   -2.197749
Cl    5.078384    0.103023    1.727890
 H   -5.114225    1.659036    1.601757
 H   -5.991595    0.477773    0.593119
 H   -4.985433    1.296147   -1.430103
 H   -5.611123    2.703873   -0.553672
 H    0.082287    2.293175    2.606672
 H   -0.751708    1.352912    1.358081
 H   -0.955153   -0.108411    3.276680
 H    0.705049    0.251813    3.798502
 H    1.120420   -1.765187    2.570718
 H    2.244400    1.628877    1.787498
 H    1.335106    1.619789    0.259928
 H    5.679165    2.006134   -2.679386
 H    3.495440    1.196616   -3.504865
 H    6.389389    1.529199   -0.362109
 H    0.105857    3.980492   -0.482124
 H   -1.708797    5.090543    0.764681
 H   -3.986156    4.162274    0.719412
 H   -2.645407    0.999655   -1.811726
 H   -0.372107    1.924628   -1.771965
 H    0.890822   -3.000360    0.485836
 H   -3.138363    0.393282    1.334682
 H   -3.990561   -2.856893   -1.264054
