39 
5w4w_ligand_dft.xyz
 C    0.090632    1.025056   -0.359600
 N   -0.321253    3.179131   -0.268889
 C   -2.411767    0.360103    0.108119
 C   -3.317275   -1.632093    1.155232
 C    3.142289    0.228296    0.453421
 C   -2.256198   -0.765625    0.923658
 C    2.579226   -1.836407   -0.483583
 C    0.686881   -2.537659   -1.446038
 C    2.072157   -0.564804   -0.226057
 C   -0.204611    4.621915   -0.248234
 C    0.665458    2.282131   -0.430582
 C   -1.291441    1.293024   -0.125006
 N   -1.519671    2.601095   -0.071693
 C   -4.543244   -1.353979    0.569675
 C   -4.737015   -0.240428   -0.233045
 C   -3.663730    0.613051   -0.460343
 F   -5.572982   -2.187312    0.788352
 C    0.751879   -0.263293   -0.589911
 C    0.072083   -1.309728   -1.234168
 N    1.939302   -2.834443   -1.073916
 O    3.130429    1.392105    0.824210
 N    4.210851   -0.622436    0.583527
 C    3.989500   -1.938830    0.029074
 C    5.459983   -0.226609    1.179644
 H   -3.208688   -2.506744    1.786902
 H   -1.295037   -0.963312    1.387864
 H    0.139607   -3.332654   -1.947041
 H    0.469836    4.937642    0.551907
 H    0.169540    4.989937   -1.207504
 H   -1.200837    5.023206   -0.066433
 H    1.695655    2.573291   -0.560671
 H   -5.712215   -0.055885   -0.669933
 H   -3.791371    1.492004   -1.083615
 H   -0.946018   -1.163283   -1.575580
 H    4.698984   -2.163275   -0.778344
 H    4.083776   -2.724084    0.790404
 H    5.694818   -0.852496    2.048729
 H    6.281712   -0.305090    0.457405
 H    5.360192    0.811567    1.500319
