29 
5w5j_ligand_dft.xyz
 C   -1.368647    0.263495    0.000259
 C   -2.676368   -0.244351   -0.000014
 C   -0.163179   -0.575990    0.000179
 C    3.397261    0.548961   -0.000154
 C   -4.640201   -1.616693   -0.000432
 C   -5.446657   -0.445103   -0.000330
 C    2.645037   -1.730836    0.000080
 C    4.720158    0.132065   -0.000044
 C    3.970392   -2.146490    0.000190
 C    5.012948   -1.226281    0.000110
 N   -3.498370    0.862030    0.000144
 N   -2.818117    2.031846    0.000508
 C   -1.544249    1.660421    0.000588
 N    1.022586    0.126693   -0.000202
 C    2.330576   -0.365232   -0.000105
 C   -3.275218   -1.526199   -0.000284
 C   -4.860832    0.783232   -0.000051
 O   -0.227377   -1.798804    0.000405
Cl    3.069548    2.276974   -0.000343
 H   -5.118131   -2.590610   -0.000611
 H   -6.527645   -0.515789   -0.000480
 H    1.834666   -2.445414    0.000173
 H    5.509906    0.875301   -0.000075
 H    4.184543   -3.210696    0.000319
 H    6.046395   -1.556412    0.000187
 H   -0.791334    2.439593    0.000925
 H    0.951864    1.133047   -0.000632
 H   -2.623870   -2.390303   -0.000350
 H   -5.378500    1.733163    0.000043
