29 
5w5j_ligand_xtb.xyz
 C   -1.348382    0.234973   -0.034682
 C   -2.671904   -0.244771   -0.005033
 C   -0.157254   -0.614730   -0.033841
 C    3.364995    0.563600    0.018254
 C   -4.632077   -1.596306    0.058975
 C   -5.416439   -0.424011    0.049435
 C    2.656280   -1.721851   -0.031318
 C    4.687707    0.168307    0.034420
 C    3.980293   -2.118043   -0.015485
 C    4.998544   -1.181150    0.017844
 N   -3.473748    0.876354   -0.014140
 N   -2.765638    1.999167   -0.049115
 C   -1.495622    1.630145   -0.061079
 N    1.015913    0.096312   -0.026316
 C    2.321260   -0.369087   -0.013799
 C   -3.267713   -1.511367    0.031593
 C   -4.821049    0.800454    0.012215
 O   -0.219585   -1.830310   -0.037190
Cl    2.996185    2.266314    0.038874
 H   -5.119966   -2.557592    0.088170
 H   -6.491572   -0.493453    0.071749
 H    1.861965   -2.448897   -0.056261
 H    5.467983    0.913292    0.060255
 H    4.216146   -3.171070   -0.029234
 H    6.031514   -1.491705    0.031017
 H   -0.742857    2.394863   -0.090837
 H    0.945511    1.106014   -0.015572
 H   -2.623161   -2.375028    0.036675
 H   -5.351555    1.738909    0.002698
