61 
5w73_ligand_dft.xyz
 C    1.725003   -0.352067   -1.750333
 C    1.705634   -3.027411   -0.316170
 C    1.313614   -3.566475    1.062657
 C   -1.651753    3.529324   -0.443278
 C   -2.660117    2.628936    0.247854
 C    2.216895    1.216607    2.369101
 C    0.845450    0.991645    2.418113
 C    0.344771   -0.289513    2.233669
 C    1.203180   -1.370573    1.995322
 C    2.576906   -1.135227    1.941659
 C    3.076064    0.151027    2.132174
 C    1.644508    1.802232   -0.926400
 C   -5.888482   -1.251310    0.158292
 C   -5.429424   -1.040456   -1.142355
 C   -4.514245   -0.033677   -1.410646
 C   -4.039002    0.775206   -0.373787
 C   -4.501449    0.580937    0.927640
 C   -5.422327   -0.435828    1.181341
 C    2.990402    1.826891   -0.709124
 C    3.788752    0.636038   -1.006803
 C    0.714853    2.878914   -0.446560
 C   -1.311143   -1.485740   -1.719713
 C   -0.312450   -1.398539   -2.879445
 C    1.053264   -1.631682   -2.221152
 C   -0.725720   -2.575733   -0.827397
 N    1.034757    0.705048   -1.501305
 N    3.076417   -0.414224   -1.529132
 N   -0.541354    2.764110   -0.953928
 N    0.724845   -2.445001   -1.037638
 O    3.690473    2.819625   -0.162820
 O    4.989271    0.595862   -0.753476
 O    1.058387    3.742693    0.347224
 O    0.630118   -2.600043    1.839541
 O    2.878587   -3.062801   -0.687918
 O   -3.131614    1.720855   -0.735377
Cl   -1.382161   -0.547651    2.272335
 H    2.228874   -3.916562    1.549163
 H    0.618094   -4.406022    0.980725
 H   -1.251570    4.258933    0.264752
 H   -2.146234    4.070330   -1.258114
 H   -2.177026    2.082997    1.068304
 H   -3.494906    3.218880    0.650395
 H    2.594896    2.228522    2.457824
 H    0.159658    1.817654    2.571850
 H    3.262410   -1.947168    1.727240
 H    4.146047    0.316131    2.056019
 H   -6.606047   -2.038116    0.367198
 H   -5.791649   -1.662794   -1.955687
 H   -4.150445    0.148562   -2.416971
 H   -4.152076    1.202427    1.743909
 H   -5.774620   -0.583764    2.197956
 H   -1.346772   -0.537328   -1.177073
 H   -2.324609   -1.730054   -2.043624
 H   -0.496176   -2.198652   -3.604347
 H   -0.350170   -0.442240   -3.402929
 H    1.739420   -2.186487   -2.868425
 H   -0.983645   -2.446634    0.222503
 H   -1.049708   -3.572442   -1.155428
 H    3.526613   -1.328157   -1.554269
 H   -0.737356    1.936467   -1.500606
 H    4.610209    2.485360   -0.141377
