27 
5w88_ligand_xtb.xyz
 C   -3.010559    2.296861    0.539083
 C    3.975798    0.867359   -0.174417
 C    2.828983    1.356014   -0.777895
 C    3.920562   -0.332150    0.516138
 C   -3.216417   -1.348215   -0.431230
 C   -3.576452   -0.037254   -0.176253
 C    1.633398    0.670862   -0.682423
 C    2.729981   -1.022518    0.621324
 C   -1.897996   -1.745395   -0.327855
 C   -1.292711    0.487578    0.318806
 C   -2.613838    0.888649    0.210977
 C    1.562772   -0.521786    0.039344
 C   -0.913976   -0.823517    0.031032
 N    0.396465   -1.256412    0.149451
 H   -3.713864    2.679104   -0.198256
 H   -3.498963    2.329682    1.513337
 H   -2.142578    2.950735    0.570672
 H    4.905941    1.409422   -0.251347
 H    2.866756    2.277668   -1.340587
 H    4.811474   -0.732428    0.978032
 H   -3.969422   -2.067944   -0.717783
 H   -4.608344    0.268754   -0.265287
 H    0.756752    1.042166   -1.189845
 H    2.691793   -1.960131    1.159036
 H   -1.619834   -2.770919   -0.527285
 H   -0.548223    1.192637    0.656688
 H    0.515995   -2.242784    0.326678
