31 
5w8h_ligand_xtb.xyz
 C    5.873340   -0.727083   -0.021974
 C    5.545238    0.616735   -0.063713
 C    4.212300    0.979026   -0.053967
 N    0.856353   -0.553168   -0.014037
 C   -1.471953   -0.636203   -0.019652
 C   -3.596277   -1.131957   -0.038348
 C   -5.039331   -0.756344   -0.113379
 C   -3.085241   -2.403921   -0.022018
 F   -2.010381    2.407049   -1.018454
 C   -1.239795    2.439238    0.072085
 F   -0.733752    3.682195    0.146117
 F   -2.033654    2.291027    1.140514
 C   -0.130584    1.441825    0.034581
 C    1.223415    1.658879    0.037706
 C    1.808183    0.365095    0.005702
 C    3.215174    0.005049   -0.003547
 C    3.576599   -1.343461    0.036854
 C    4.904812   -1.715918    0.028521
 F    7.171555   -1.082821   -0.031034
 N   -0.309515    0.084929    0.001296
 N   -2.658417   -0.153454   -0.040615
 O   -5.434321    0.249225   -0.616948
 O   -5.888721   -1.660027    0.413626
 S   -1.367918   -2.387299   -0.012650
 H    6.327884    1.357586   -0.103931
 H    3.950224    2.024322   -0.089670
 H   -3.606914   -3.340482   -0.055792
 H    1.711018    2.610500    0.064417
 H    2.796036   -2.086087    0.074810
 H    5.199703   -2.752744    0.059989
 H   -5.445065   -2.400851    0.845262
