58 
5w92_ligand_dft.xyz
 C    5.972781    0.731407    1.017382
 C   -7.442643   -0.540828   -0.009473
 C   -7.789089   -1.335950   -1.097909
 C   -8.748989   -0.870299   -1.990474
 C   -9.346450    0.371650   -1.786830
 C   -8.995105    1.153043   -0.687904
 C   -8.037429    0.698215    0.212091
 C   -0.156181    2.459599   -0.387793
 C    1.160871    2.666432   -1.025560
 C    1.663780   -2.303163   -0.839157
 C    2.066730   -2.416664    0.635184
 C    5.755678   -0.192713   -0.002168
 C    3.476407   -1.815316    0.673429
 C    6.763552   -1.125750   -0.225795
 C    7.921162   -1.097462    0.546765
 C    7.158937    0.694188    1.745114
 C    4.514960   -0.120158   -0.857533
 C    2.243695   -0.952481   -1.259512
 C    1.331610    0.226012   -0.950392
 C   -0.571724    1.181506   -0.116136
 C   -1.894393    0.965803    0.518517
 C   -3.490885   -0.692985    1.351421
 C   -4.675241   -0.422301    0.417750
 N    3.475616   -0.875870   -0.457997
 N    0.180546    0.055611   -0.396491
 N   -2.236639   -0.318717    0.733941
 N    1.816482    1.461840   -1.276860
 N    8.113711   -0.202676    1.512015
 O    4.486102    0.622582   -1.833322
 O   -2.633817    1.914681    0.823155
 O   -6.402421   -0.470688    2.414912
 O   -6.092532   -2.565986    1.013341
 O   -0.838809    3.560796   -0.123336
 O    1.642974    3.740078   -1.312199
 S   -6.184001   -1.110477    1.120112
Cl    4.764181    1.920554    1.396092
Cl    6.580872   -2.339855   -1.459480
 H   -7.323869   -2.307890   -1.226138
 H   -9.035230   -1.479913   -2.841700
 H  -10.095088    0.730518   -2.486530
 H   -9.471457    2.115022   -0.528302
 H   -7.761914    1.281610    1.084810
 H    0.585891   -2.350960   -0.993647
 H    2.141733   -3.090883   -1.430314
 H    1.385711   -1.820364    1.248780
 H    2.055162   -3.444326    1.004610
 H    3.687349   -1.294687    1.611459
 H    4.243520   -2.582704    0.518401
 H    8.711056   -1.823295    0.375262
 H    7.335609    1.414930    2.538366
 H    2.517620   -0.915896   -2.318735
 H   -3.441709   -1.756573    1.596071
 H   -3.628485   -0.131775    2.279201
 H   -4.533047   -0.897590   -0.556684
 H   -4.820503    0.652416    0.287848
 H   -1.572042   -1.017992    0.433836
 H    2.748552    1.525290   -1.692158
 H   -1.682942    3.267063    0.302585
