82 
5wa5_ligand_dft.xyz
 C    4.504454   -0.358955   -0.520208
 C    5.528532    0.157340   -1.326433
 C    5.322554    1.454411   -1.786698
 N    4.216909    2.155195   -1.563711
 N    3.374869    0.310975   -0.311792
 C   -6.734087   -1.406915   -1.596158
 C   -7.360312   -2.770732   -1.820167
 N   -8.738939   -2.810421   -1.381541
 C   -9.356821   -4.091743   -1.652693
 C   -8.823084   -2.452859    0.019008
 C   -8.230013   -1.081951    0.274498
 N   -6.778207   -1.057295   -0.132890
 C   -6.165070    0.300247    0.193944
 C   -4.876825    0.546173   -0.581468
 C   -4.248784    1.872562   -0.137121
 C   -5.946154    0.400706    1.700356
 C   -5.264521    1.727515    2.048411
 N   -4.023461    1.900053    1.305823
 C   -2.882247    1.371581    1.881066
 O   -2.912661    0.786179    2.955559
 C   -1.585349    1.590405    1.167097
 C   -1.285348    2.801664    0.527420
 C   -0.052891    2.982386   -0.074103
 O    0.339054    4.119836   -0.713552
 C   -0.576132    5.190832   -0.789725
 C   -0.626120    0.588906    1.209204
 C    0.611113    0.755922    0.592313
 C    0.917139    1.949974   -0.057566
 N    2.110353    2.242113   -0.711086
 C    3.266240    1.523029   -0.859722
 N    4.634242   -1.607872    0.088594
 C    3.390085   -2.248796    0.492275
 C    5.770845   -1.783604    0.928083
 C    5.592644   -2.154930    2.266032
 C    6.680649   -2.323234    3.111911
 C    7.973986   -2.122971    2.642178
 C    8.158473   -1.775431    1.313559
 C    7.076954   -1.597431    0.446538
 C    7.447895   -1.362072   -0.985651
 O    8.484155   -1.829883   -1.434417
 N    6.618204   -0.615166   -1.785538
 C    7.024009   -0.469032   -3.179966
 H    6.082195    1.940457   -2.395351
 H   -7.280854   -0.560353   -2.065812
 H   -5.690087   -1.427293   -1.909594
 H   -6.751045   -3.553062   -1.308374
 H   -7.315963   -2.985909   -2.892765
 H   -8.047232    1.124705   -1.530762
 H   -9.317279   -4.298830   -2.726440
 H   -8.864765   -4.928561   -1.119168
 H  -10.408215   -4.063395   -1.350906
 H   -8.319036   -3.212604    0.661656
 H   -9.874586   -2.426812    0.323058
 H   -8.290574   -0.834230    1.334300
 H   -8.667325   -0.271211   -0.349722
 H   -6.271582   -1.781153    0.390939
 H   -6.945163    0.987867   -0.248320
 H   -5.108816    0.635179   -1.647469
 H   -4.140350   -0.260050   -0.441437
 H   -4.923807    2.696700   -0.395769
 H   -3.311183    2.027505   -0.668877
 H   -5.302074   -0.414822    2.064758
 H   -6.891092    0.349503    2.250585
 H   -5.038866    1.766989    3.113356
 H   -5.926517    2.562959    1.792951
 H   -2.020196    3.598899    0.531459
 H   -1.488818    4.896736   -1.322948
 H   -0.840231    5.559930    0.208755
 H   -0.070171    5.980427   -1.345578
 H   -0.848613   -0.332458    1.736919
 H    1.351749   -0.029645    0.616290
 H    2.151190    3.156831   -1.139364
 H    3.604416   -3.291725    0.735725
 H    2.906976   -1.763301    1.349565
 H    2.695688   -2.216579   -0.348619
 H    4.594236   -2.301878    2.659492
 H    6.509320   -2.605555    4.146383
 H    8.828281   -2.252579    3.298289
 H    9.155273   -1.660864    0.902179
 H    7.778194    0.316223   -3.305534
 H    7.460240   -1.409033   -3.517210
 H    6.143608   -0.229119   -3.779664
