82 
5wa5_ligand_xtb.xyz
 C    4.166398   -0.390446   -0.386267
 C    5.446353   -0.012749   -0.841227
 C    5.649286    1.360336   -0.944840
 N    4.715443    2.259809   -0.699265
 N    3.208330    0.509049   -0.210738
 C   -6.204896   -1.743104   -2.113133
 C   -6.904533   -3.095591   -1.998511
 N   -8.185365   -2.965223   -1.337380
 C   -8.933547   -4.202077   -1.298252
 C   -8.098016   -3.523734    2.637480
 C   -7.692264   -2.461345    1.973012
 N   -6.062260   -1.140114   -0.808049
 C   -5.531102    0.203610   -0.769176
 C   -4.038740    0.325690   -1.133867
 C   -3.586105    1.781103   -1.010414
 C   -5.739836    0.779843    0.634456
 C   -5.238606    2.219936    0.702248
 N   -3.844006    2.277394    0.318287
 C   -2.926478    2.785768    1.172431
 O   -3.236841    3.277755    2.243575
 C   -1.495036    2.724919    0.739567
 C   -0.802469    3.922911    0.579704
 C    0.540156    3.919767    0.252523
 O    1.300406    5.043420    0.060338
 C    0.697071    6.298636    0.263814
 C   -0.823179    1.520366    0.599550
 C    0.523555    1.505336    0.279423
 C    1.219721    2.690905    0.095623
 N    2.561056    2.759347   -0.237887
 C    3.502302    1.796243   -0.386111
 N    3.822035   -1.705912   -0.129321
 C    2.401271   -1.981806   -0.066588
 C    4.675067   -2.441331    0.715957
 C    4.168748   -3.049858    1.864797
 C    4.988329   -3.769067    2.713586
 C    6.336926   -3.903826    2.434064
 C    6.843434   -3.326393    1.287687
 C    6.034465   -2.589016    0.426023
 C    6.703903   -2.138290   -0.824180
 O    7.544324   -2.846211   -1.352814
 N    6.408107   -0.909134   -1.329677
 C    7.162928   -0.483028   -2.495306
 H    6.605376    1.762312   -1.248909
 H   -6.815480   -1.067945   -2.722814
 H   -5.245623   -1.896352   -2.640507
 H   -6.292377   -3.774571   -1.394593
 H   -6.991005   -3.534097   -3.011019
 H   -8.731706   -2.240185   -1.792460
 H   -9.133253   -4.628221   -2.294569
 H   -8.365253   -4.934487   -0.723936
 H   -9.882046   -4.025698   -0.794776
 H   -7.999266   -3.609778    3.708511
 H   -8.554598   -4.363941    2.139722
 H   -7.238461   -1.623171    2.478307
 H   -7.792135   -2.379361    0.902454
 H   -5.539699   -1.751547   -0.190238
 H   -6.114299    0.797708   -1.485306
 H   -3.864992   -0.018933   -2.154464
 H   -3.452574   -0.298884   -0.455626
 H   -4.153935    2.392043   -1.726080
 H   -2.524564    1.878358   -1.240810
 H   -5.191341    0.171724    1.356209
 H   -6.798104    0.738279    0.888728
 H   -5.315662    2.616724    1.715934
 H   -5.825805    2.852495    0.025179
 H   -1.340900    4.845993    0.722395
 H   -0.116005    6.472788   -0.447943
 H    0.315655    6.398825    1.284130
 H    1.484263    7.032452    0.097831
 H   -1.346212    0.588780    0.754131
 H    1.057810    0.578586    0.172349
 H    2.921061    3.698387   -0.354024
 H    2.258246   -3.061013   -0.079901
 H    1.920898   -1.552592    0.817123
 H    1.939916   -1.547150   -0.951973
 H    3.124237   -2.953393    2.110879
 H    4.566372   -4.223615    3.597615
 H    6.981714   -4.463930    3.093094
 H    7.882659   -3.446800    1.021641
 H    8.028810    0.117649   -2.209185
 H    7.519543   -1.379255   -3.001574
 H    6.521592    0.093342   -3.160548
