61 
5wa6_ligand_dft.xyz
 C   -2.215198    0.979006    1.043933
 C   -2.651214   -0.159884    1.956825
 C   -1.347467   -2.191809    1.802201
 C   -3.332521   -1.805896    0.271682
 C   -2.976273   -3.023720   -0.583055
 C    0.589708   -0.002677   -2.467943
 C    1.212204   -1.090341   -1.854626
 C    0.429360   -2.109741   -1.351429
 C   -0.965768   -2.084819   -1.437777
 C   -1.577558   -1.000930   -2.062375
 C   -0.794747    0.035999   -2.575049
 C   -0.708519    2.488384    0.222838
 C    4.631734   -2.585040   -0.759016
 C    3.803160   -2.659028    0.361172
 C    3.408805   -1.506514    1.021979
 C    3.841962   -0.257279    0.568439
 C    4.676623   -0.171491   -0.546402
 C    5.063194   -1.341410   -1.202546
 C   -1.491838    2.820957   -0.850927
 C   -2.796855    2.157159   -1.016139
 C    0.636979    3.097714    0.353538
 C    2.748960    3.056079    1.567561
 C    3.625320    2.110756    0.762118
 C   -1.403422   -1.790897    3.275093
 C   -1.788392   -0.305809    3.223339
 F    0.996027   -3.157453   -0.730746
 N   -1.067350    1.549925    1.169949
 N   -3.085896    1.297105    0.037532
 N    1.348629    2.721006    1.433126
 N   -2.468851   -1.435536    1.240964
 O   -1.159534    3.670210   -1.811494
 O   -3.546412    2.301351   -1.960631
 O    1.070206    3.900695   -0.489327
 O    3.398843    0.813240    1.278329
 O   -1.602755   -3.149267   -0.864646
 O   -4.363317   -1.179384    0.024551
 H   -3.714860   -0.044533    2.186814
 H   -0.405512   -1.879274    1.336914
 H   -1.472731   -3.260926    1.633755
 H   -3.579615   -2.949411   -1.493903
 H   -3.252962   -3.946547   -0.064632
 H    1.190763    0.813353   -2.855568
 H    2.290259   -1.157036   -1.754084
 H   -2.658007   -0.939898   -2.142617
 H   -1.285807    0.881215   -3.047649
 H    4.932243   -3.488522   -1.279182
 H    3.445853   -3.621867    0.711353
 H    2.753113   -1.545390    1.885862
 H    5.034010    0.786087   -0.907744
 H    5.711292   -1.268214   -2.071025
 H    3.017044    3.007808    2.626260
 H    2.896673    4.078771    1.213604
 H    4.684467    2.387634    0.856860
 H    3.338518    2.161764   -0.295812
 H   -2.175724   -2.375474    3.786237
 H   -0.452661   -1.959903    3.786646
 H   -2.329936    0.023106    4.112521
 H   -0.898083    0.317121    3.118527
 H   -3.919402    0.717224   -0.070921
 H    0.968608    1.946786    1.960749
 H   -0.253205    3.998329   -1.582102
