63 
5wa7_ligand_xtb.xyz
 C   -0.140090   -3.091425   -0.273242
 C    0.126744    2.534775   -0.817677
 C   -0.595552    1.478501   -1.340083
 C   -1.976368    1.442336   -1.235070
 C   -0.410686   -1.479754    1.522033
 C    0.265946   -0.850847    2.719437
 C    2.555211   -0.513233    1.958479
 C    3.672281    0.442390    1.601849
 C    4.516629   -0.149549    0.463319
 C    3.692587   -0.276601   -0.786525
 C    3.147073   -1.500172   -1.156866
 C   -1.517592   -2.714719   -0.640894
 C    2.357356   -1.628250   -2.285631
 C    2.102329   -0.521341   -3.076856
 C    2.635863    0.709545   -2.734801
 C    3.415064    0.820423   -1.595900
 C    1.015874    1.420773    2.408629
 C   -0.471214    1.411683    2.759902
 C   -0.649318    0.088320    3.498299
 C   -2.163208   -1.749225    0.095206
 C   -3.510176   -1.288457   -0.304144
 C   -5.168655    0.462771    0.092231
 C   -4.877115    1.584673   -0.922263
 C   -2.651257    2.468173   -0.582342
 C   -1.916073    3.528367   -0.046879
 C   -0.542975    3.562634   -0.170850
 N   -3.988033   -0.281045    0.444955
 N   -1.599453   -1.130060    1.178289
 N    1.361962    0.016167    2.284315
 N    0.307981   -2.414699    0.850893
 O    0.561381   -3.886545   -0.854019
 O   -2.053820   -3.322473   -1.691221
 O   -4.002027    2.564380   -0.407175
 O   -4.119703   -1.781560   -1.254724
 O    2.719278   -1.727449    1.956256
Cl    4.060820    2.386511   -1.192732
 H    1.199472    2.563594   -0.927280
 H   -0.083200    0.670064   -1.841005
 H   -2.503370    0.611298   -1.675341
 H    0.680591   -1.658454    3.335337
 H    4.298180    0.572606    2.488472
 H    3.282903    1.414574    1.308865
 H    5.375781    0.498747    0.283935
 H    4.870879   -1.135329    0.765022
 H    3.343582   -2.365789   -0.543092
 H    1.939884   -2.591013   -2.535806
 H    1.491848   -0.610511   -3.962830
 H    2.446067    1.580855   -3.343066
 H    1.195494    1.956519    1.474587
 H    1.608642    1.881508    3.207527
 H   -0.754271    2.273529    3.359483
 H   -1.062244    1.406394    1.845165
 H   -1.676751   -0.263235    3.491861
 H   -0.301141    0.173649    4.527841
 H   -5.594891    0.893472    0.999931
 H   -5.881838   -0.230227   -0.361165
 H   -5.811829    2.112971   -1.132315
 H   -4.501392    1.157864   -1.856295
 H   -2.452584    4.320432    0.451306
 H    0.008172    4.396957    0.237361
 H   -3.351914    0.083287    1.140685
 H    1.272325   -2.584499    1.160743
 H   -2.966466   -2.954068   -1.821738
