50 
5wa8_ligand_dft.xyz
 O    1.571368   -2.299153   -2.792155
 P    1.061867   -1.935228   -1.458701
 O   -0.396377   -2.384382   -0.995625
 O    0.938740   -0.321760   -1.250766
 C    1.864902    0.518261   -1.948028
 C    1.520941    1.977907   -1.691365
 C    1.649202    2.452434   -0.245424
 O    1.821697    3.850400   -0.252144
 C    0.278950    2.097760    0.322627
 O   -0.040189    2.925007    1.408560
 C   -0.636781    2.310369   -0.909121
 O    0.157151    2.251730   -2.053018
 N   -1.651545    1.254776   -0.971089
 C   -2.378506    0.801491    0.099338
 C   -3.000583   -0.357184   -0.342273
 N   -2.654929   -0.632468   -1.654006
 C   -1.854599    0.358010   -1.979689
 N   -2.448449    1.329770    1.332612
 C   -3.229525    0.599622    2.129122
 N   -3.895615   -0.521257    1.842966
 C   -3.793878   -1.031930    0.604839
 N   -4.454502   -2.166736    0.314419
 N    1.964062   -2.551953   -0.211193
 C    1.703546   -2.193531    1.168800
 C    2.288502   -0.828200    1.528166
 C    2.268849   -3.256570    2.116560
 O    3.194877   -0.287866    0.935426
 O    1.691178   -0.340116    2.618826
 C    2.177270    0.900779    3.147223
 H   -1.130904   -1.912722   -1.439549
 H    1.801825    0.303454   -3.018061
 H    2.884735    0.319141   -1.599846
 H    2.155115    2.595487   -2.333844
 H    2.465016    1.941839    0.280515
 H    1.389915    4.179833    0.549839
 H    0.259054    1.040041    0.604015
 H   -0.919502    2.623203    1.713989
 H   -1.142573    3.279494   -0.851950
 H   -1.356326    0.472498   -2.930442
 H   -3.339037    0.961326    3.148220
 H   -4.352264   -2.599641   -0.588766
 H   -4.956265   -2.641475    1.047289
 H    2.944383   -2.658866   -0.443262
 H    0.620268   -2.140068    1.305248
 H    2.052519   -3.001693    3.157141
 H    3.354915   -3.339430    1.997605
 H    1.819145   -4.224004    1.882401
 H    3.235673    1.026684    2.914303
 H    1.594445    1.724226    2.727265
 H    2.021416    0.847981    4.224964
