50 
5wa9_ligand_xtb.xyz
 O    2.012659   -0.953494   -1.146972
 P    1.429137   -0.785256    0.186585
 O    0.258271   -1.798013    0.562143
 O    0.694583    0.632507    0.406589
 C    1.231253    1.779734   -0.234870
 C    0.118235    2.776067   -0.566398
 C   -0.728402    3.180279    0.650166
 O   -1.233500    4.473674    0.479856
 C   -1.845337    2.126650    0.630353
 O   -3.035661    2.626233    1.156834
 C   -1.946525    1.775884   -0.878412
 O   -0.799950    2.237054   -1.514079
 N   -2.100595    0.345268   -1.024913
 C   -3.000605   -0.395105   -0.316449
 C   -2.753589   -1.731536   -0.661752
 N   -1.708495   -1.784857   -1.553893
 C   -1.360485   -0.542204   -1.742060
 N   -3.935282    0.018484    0.546444
 C   -4.634041   -0.983827    1.051973
 N   -4.509798   -2.275225    0.807791
 C   -3.571055   -2.696246   -0.045751
 N   -3.441418   -4.013390   -0.265160
 N    2.451737   -0.975516    1.490002
 C    3.829587   -1.315997    1.205988
 C    4.255469   -0.356011    0.106367
 C    4.696048   -1.090882    2.443085
 O    3.947046    0.807401    0.092554
 O    5.033491   -0.942329   -0.787608
 C    5.404885   -0.146239   -1.908396
 H   -0.256761   -2.026317   -0.225057
 H    1.726078    1.468644   -1.158976
 H    1.972705    2.248150    0.415564
 H    0.564843    3.661466   -1.027914
 H   -0.142188    3.119384    1.576534
 H   -2.127175    4.479515    0.853121
 H   -1.505704    1.237337    1.177243
 H   -3.678736    1.891014    1.138900
 H   -2.831595    2.262624   -1.322078
 H   -0.568839   -0.226204   -2.391347
 H   -5.406830   -0.711546    1.758080
 H   -2.775095   -4.337652   -0.942001
 H   -4.083660   -4.646388    0.176249
 H    2.041302   -1.468338    2.267845
 H    3.953685   -2.343015    0.835735
 H    4.376706   -1.750054    3.246942
 H    5.737493   -1.297497    2.211137
 H    4.598294   -0.059139    2.770891
 H    4.519028    0.062789   -2.510007
 H    6.124104   -0.733042   -2.473492
 H    5.844115    0.796068   -1.575644
