35 
5wae_ligand_xtb.xyz
 C    3.413591   -1.611773   -0.958906
 C    2.235142   -1.483228   -1.674423
 C    1.488690   -0.321293   -1.592268
 C    1.924080    0.737256   -0.798985
 C    3.107011    0.610628   -0.087347
 C    3.853948   -0.561433   -0.158140
 C    5.132301   -0.619036    0.615476
 O    5.528785   -1.839295    1.016029
 O    5.779222    0.356209    0.874527
 C    1.075797    1.950527   -0.662362
 S   -0.221462    1.553386    0.554436
 O    0.233660    1.854716    1.872560
 O   -0.661891    0.188405    0.318762
 N   -1.427880    2.628142    0.156280
 C   -2.203473    2.224182   -1.020331
 B   -2.542758    0.645045   -1.013685
 O   -3.384723    0.211881   -0.025314
 O   -2.134742   -0.112036   -2.036597
 P   -3.608971   -1.229336    0.609826
 O   -3.336508   -2.228184   -0.648225
 O   -4.910991   -1.442482    1.214058
 O   -2.376046   -1.434625    1.567712
 H    3.997533   -2.516807   -1.061999
 H    1.898540   -2.295399   -2.300429
 H    0.561079   -0.231679   -2.136652
 H    3.468540    1.415130    0.534740
 H    4.887151   -2.528173    0.797547
 H    0.552536    2.197238   -1.579691
 H    1.608428    2.807635   -0.264090
 H   -2.008927    2.782807    0.967619
 H   -1.623932    2.502650   -1.903126
 H   -3.114327    2.822600   -1.035016
 H   -2.381095   -1.040010   -1.955359
 H   -3.925912   -2.974672   -0.547794
 H   -1.589341   -0.969368    1.235976
