61 
5wap_ligand_xtb.xyz
 C   -0.147114    3.763551   -0.037493
 C   -3.955753   -4.089294   -0.680767
 C   -4.505104   -3.042560   -1.409952
 C   -4.947068   -1.924473   -0.734249
 C   -5.548471   -0.660509   -1.278878
 C   -0.127517    1.357793   -0.387254
 C    0.741371    0.134915   -0.577100
 C    2.507379    0.424361    1.069389
 C    3.248382   -0.136507    2.259119
 C    5.025790   -0.853042    0.340310
 C    6.043509    0.051067    0.599313
 C   -1.616175    3.617615   -0.032383
 C    6.679498    0.702205   -0.440730
 C    6.306242    0.443251   -1.748778
 C    5.303584   -0.470360   -2.019601
 C    4.664472   -1.117306   -0.974303
 C    0.810697   -1.402111    1.284508
 C   -0.446755   -1.656131    0.455161
 C   -0.063780   -1.116333   -0.919809
 C   -2.161227    2.365870   -0.184057
 C   -3.628930    2.166830   -0.124075
 C   -5.312331    0.339350   -0.132580
 C   -5.381130   -0.531630    1.138688
 C   -4.848998   -1.849224    0.655167
 C   -4.305257   -2.889511    1.379122
 C   -3.856012   -4.013279    0.697656
 N   -3.984206    0.884436   -0.259404
 N   -1.406933    1.238730   -0.364630
 N    1.399674   -0.221079    0.679337
 N    0.503754    2.549389   -0.233397
 O    0.471836    4.789609    0.113159
 O   -2.342134    4.714334    0.141279
 O   -4.413395    3.100948    0.040733
 O    2.935174    1.400561    0.465840
 S    4.167473   -1.621363    1.703924
Cl    3.412274   -2.247994   -1.327123
 H   -3.600399   -4.969620   -1.195444
 H   -4.578895   -3.103221   -2.485730
 H   -5.086801   -0.330399   -2.209122
 H   -6.618222   -0.794004   -1.455042
 H    1.512060    0.371090   -1.320751
 H    2.594289   -0.466171    3.062238
 H    3.961688    0.602429    2.622200
 H    6.327305    0.243330    1.622901
 H    7.462814    1.412965   -0.228600
 H    6.794215    0.954158   -2.564335
 H    5.005202   -0.678772   -3.035407
 H    1.508613   -2.243625    1.213264
 H    0.578940   -1.226426    2.337859
 H   -1.282817   -1.082534    0.853658
 H   -0.720553   -2.708216    0.433734
 H   -0.927399   -0.880455   -1.534248
 H    0.572671   -1.829230   -1.442871
 H   -6.010327    1.178416   -0.122620
 H   -6.415657   -0.638276    1.472866
 H   -4.800514   -0.104699    1.956247
 H   -4.225290   -2.831830    2.454763
 H   -3.423387   -4.834755    1.249463
 H   -3.218270    0.231019   -0.365614
 H    1.527119    2.550228   -0.187012
 H   -3.298312    4.445112    0.145959
