69 
5wb3_ligand_dft.xyz
 C   -3.395117    1.571437    1.356302
 C    5.688237   -1.279102    2.050966
 C    3.716600   -0.948874   -0.985124
 C    2.963821   -2.721667   -2.359739
 C    3.047714    0.012857   -1.735215
 C    3.038982    1.336994   -1.298211
 C    2.295188    2.526620   -1.862285
 C   -1.346778    0.371640    1.940166
 C   -0.781774   -0.906244    2.539924
 C   -1.999922   -2.621203    1.293772
 C   -2.000772   -3.738335    0.264506
 C   -2.484557    2.557555    0.747303
 C   -2.639978   -1.643649   -1.486016
 C   -4.028883   -1.668807   -1.318522
 C   -4.778151   -0.501846   -1.361874
 C   -4.153297    0.715561   -1.615154
 C   -2.777572    0.764110   -1.798143
 C   -2.027209   -0.405168   -1.708380
 C    0.505471   -2.397746    1.087668
 C    1.411968   -1.281942    1.602525
 C    0.710449   -0.814132    2.881052
 C   -1.133925    2.353696    0.822467
 C   -0.204020    3.243262    0.074365
 C    2.171459    3.426250   -0.608039
 C    3.497472    3.173875    0.138832
 C    3.723280    1.704637   -0.148591
 C    4.427820    0.758141    0.594601
 C    4.420647   -0.570135    0.183944
 N    1.094736    2.946508    0.242571
 N   -0.562732    1.274044    1.461205
 N   -0.830190   -1.994995    1.550020
 N   -2.707900    0.489609    1.901484
 O   -4.607591    1.638130    1.356620
 O   -3.069053    3.554860    0.092128
 O    5.004440   -1.592964    0.860966
 O    3.726535   -2.275901   -1.259828
 O   -0.626607    4.154899   -0.655009
 O   -3.054414   -2.297238    1.840318
 S   -1.706805   -3.162673   -1.453800
Cl   -0.291407   -0.257884   -1.856482
 H    6.086372   -2.222123    2.427426
 H    6.517646   -0.583130    1.870045
 H    5.012334   -0.846225    2.801228
 H    3.090109   -3.804514   -2.390563
 H    1.899242   -2.481776   -2.236987
 H    3.325458   -2.291294   -3.302460
 H    2.506821   -0.265347   -2.632923
 H    2.883774    3.036159   -2.637440
 H    1.317739    2.284395   -2.288177
 H   -1.390687   -1.188081    3.404934
 H   -1.210115   -4.471416    0.454735
 H   -2.968767   -4.233795    0.341632
 H   -4.516698   -2.621816   -1.142059
 H   -5.849023   -0.540992   -1.195381
 H   -4.723258    1.637670   -1.628693
 H   -2.278012    1.710681   -1.974081
 H    0.530538   -2.489019    0.000394
 H    0.776239   -3.365013    1.531733
 H    2.430758   -1.639048    1.767284
 H    1.446221   -0.467719    0.873346
 H    0.924834   -1.499662    3.708059
 H    0.996963    0.194803    3.180137
 H    1.982409    4.474022   -0.844968
 H    3.421879    3.415995    1.203465
 H    4.296697    3.791853   -0.290470
 H    4.944581    1.054595    1.500850
 H    1.257085    2.092334    0.766120
 H   -3.262024   -0.328266    2.156857
 H   -2.333083    4.066368   -0.330164
