12 
5wbf_ligand_xtb.xyz
 C    0.763247   -0.143782    0.030657
 C   -0.680078    0.114237    0.426076
 C   -1.240473    1.204772   -0.502008
 O    1.111127   -1.130261   -0.564990
 O   -1.414308   -1.074815    0.343510
 O    1.587838    0.843010    0.371026
 H   -0.717442    0.462235    1.464506
 H   -2.287574    1.366588   -0.263378
 H   -1.163963    0.887130   -1.539835
 H   -0.688933    2.130027   -0.364573
 H   -0.967579   -1.653607   -0.293148
 H    2.492061    0.652793    0.071713
