31 
5wbo_ligand_dft.xyz
 N   -1.126893    0.219590   -0.010129
 C    2.148379    1.590061    0.062990
 N    0.038328   -3.250261   -0.474835
 C    0.472971   -2.192603   -0.273080
 C    1.047393   -0.904830   -0.042080
 C   -3.251635   -0.913266    0.352181
 C   -1.858630   -0.656255    0.908490
 C    3.314238   -2.019650   -0.030238
 C    2.444235   -0.794505    0.020583
 C    2.991383    0.481876    0.092133
 N    0.816798    1.482278    0.041585
 C    0.254308    0.272590    0.018331
 O   -3.950478    0.295420    0.146799
 C   -3.248744    1.134258   -0.745122
 C   -1.851504    1.467065   -0.234827
 C    2.691643    2.992323    0.067584
 H   -3.840302   -1.500117    1.061478
 H   -3.164827   -1.475422   -0.591094
 H   -1.944579   -0.165517    1.891312
 H   -1.343148   -1.605913    1.042627
 H    3.059896   -2.715279    0.776113
 H    3.170173   -2.558715   -0.972799
 H    4.370218   -1.754090    0.058372
 H    4.067474    0.613381    0.138694
 H   -3.840185    2.048044   -0.845323
 H   -3.168542    0.653646   -1.733698
 H   -1.313914    2.067096   -0.970179
 H   -1.918056    2.055136    0.693066
 H    3.782948    3.005711    0.125744
 H    2.380993    3.515036   -0.842864
 H    2.283815    3.550015    0.916151
