19 
5wcm_ligand_dft.xyz
 S   -2.514892    0.000059   -0.130028
 C    2.000810   -0.000034   -0.005876
 N   -2.925187   -0.000502    1.490051
 O   -2.933994    1.275515   -0.685228
 C    1.336367    1.218660   -0.031895
 O   -2.934006   -1.275050   -0.686066
 C   -0.051591    1.216284   -0.076385
 C   -0.727489    0.000039   -0.089369
 C   -0.051660   -1.216244   -0.076464
 C    1.336303   -1.218698   -0.031955
 N    3.472730   -0.000022    0.042984
 O    4.035475    1.082301    0.062598
 O    4.035573   -1.082297    0.062713
 H   -3.434278    0.842902    1.734175
 H   -3.434604   -0.843922    1.733439
 H    1.903168    2.141102   -0.022575
 H   -0.606313    2.146988   -0.116743
 H   -0.606363   -2.146954   -0.116877
 H    1.903029   -2.141180   -0.022689
