19 
5wcm_ligand_xtb.xyz
 S   -2.511039   -0.001816    0.128172
 C    2.005083    0.000319    0.020255
 N   -2.795706    0.017928   -1.526003
 O   -2.975391   -1.249114    0.653268
 C    1.329739    1.215329    0.051241
 O   -2.979522    1.231483    0.681635
 C   -0.052828    1.209402    0.101395
 C   -0.721301    0.000076    0.119906
 C   -0.052590   -1.209010    0.098944
 C    1.329917   -1.214838    0.049046
 N    3.454124    0.000254   -0.041728
 O    4.011206    1.073747   -0.067491
 O    4.010952   -1.073488   -0.067088
 H   -3.258794   -0.817041   -1.845375
 H   -3.280785    0.849020   -1.822071
 H    1.895033    2.134895    0.035876
 H   -0.624359    2.122465    0.139747
 H   -0.624632   -2.121866    0.135526
 H    1.895173   -2.134380    0.032365
