60 
5wdc_ligand_dft.xyz
 C    2.850916    2.245920   -0.551048
 C   -4.349728   -2.230007   -0.809874
 C   -3.262285   -1.936038    0.005958
 C   -3.113051   -0.659245    0.543616
 C    1.442257    0.681232   -1.790737
 C    1.463834   -0.628291   -2.562783
 C    0.145325   -0.958900   -3.264072
 C   -0.659740   -1.706649   -2.197896
 C    0.391245   -2.527907   -1.449798
 C    2.822558   -1.956745   -1.024108
 C    2.894677   -2.947673    0.142476
 C    1.578271    2.861432   -0.140262
 C    1.683429   -1.566260    1.671121
 C    2.591616   -0.508551    1.611975
 C    2.281676    0.714390    2.203311
 C    1.066031    0.901478    2.848835
 C    0.164893   -0.155626    2.935370
 C    0.476309   -1.378894    2.357739
 C    0.401608    2.332770   -0.603713
 C   -0.885492    2.899309   -0.126483
 C   -3.324712    2.709226   -0.205471
 C   -3.890343    1.733089    0.837388
 C   -4.056399    0.337257    0.286764
 C   -5.146414    0.028663   -0.533434
 C   -5.293485   -1.241225   -1.079987
 N   -1.995057    2.341629   -0.642231
 N    0.333791    1.237675   -1.440793
 N    1.618991   -1.727769   -1.591501
 N    2.661902    1.173051   -1.414866
 O    3.954256    2.581429   -0.168074
 O    1.683810    3.868908    0.714128
 O   -0.911538    3.828970    0.697071
 O    1.873242   -2.790010    1.104973
 O    3.844858   -1.366762   -1.374671
Cl   -0.645726   -2.709785    2.500203
 H   -4.467493   -3.225520   -1.227795
 H   -2.522822   -2.698637    0.231295
 H   -2.254054   -0.437436    1.172645
 H    2.315463   -0.631123   -3.248884
 H   -0.358196   -0.060326   -3.623197
 H    0.353500   -1.609186   -4.120227
 H   -1.448693   -2.336274   -2.615311
 H   -1.122908   -0.991409   -1.515545
 H    0.138977   -2.684372   -0.401305
 H    0.542278   -3.508348   -1.919606
 H    3.889606   -2.835699    0.584716
 H    2.785832   -3.974427   -0.218038
 H    3.537828   -0.621088    1.094520
 H    2.993810    1.530219    2.129871
 H    0.817739    1.864196    3.282042
 H   -0.782610   -0.041617    3.451915
 H   -3.981600    2.747126   -1.081266
 H   -3.257081    3.712933    0.218668
 H   -3.218510    1.726920    1.702533
 H   -4.857436    2.120673    1.179713
 H   -5.892809    0.793144   -0.739197
 H   -6.149849   -1.463000   -1.710290
 H   -1.855085    1.538728   -1.241874
 H    3.485599    0.604320   -1.608097
 H    0.753461    4.137649    0.928274
