62 
5wdw_ligand_dft.xyz
 C   -3.140065    2.196350    0.423452
 C    5.427978   -2.076250   -1.495942
 C    5.842674   -0.764019   -1.252026
 C    5.143648   -0.002022   -0.331384
 C    5.334935    1.404878    0.179669
 C   -1.753160    0.652497    1.714761
 C   -1.755457   -0.612321    2.558294
 C   -2.831284   -2.188966    1.032545
 C   -2.733728   -3.395247    0.114041
 C   -2.045560   -1.441302   -1.777858
 C   -3.362581   -1.076111   -2.078542
 C   -1.867358    2.877985    0.125277
 C   -3.681994    0.224447   -2.440179
 C   -2.676948    1.180598   -2.546072
 C   -1.361423    0.839972   -2.258361
 C   -1.051918   -0.457258   -1.856679
 C   -0.445690   -2.529194    1.783942
 C    0.466439   -1.562054    2.537846
 C   -0.499887   -0.769129    3.424009
 C   -0.703373    2.369164    0.634727
 C    0.600137    2.893741    0.154872
 C    2.985166    2.363399    0.035721
 C    3.998717    1.636074    0.913163
 C    4.051396   -0.551926    0.333107
 C    3.620287   -1.849258    0.113708
 C    4.331859   -2.606965   -0.819106
 N    1.675757    2.244991    0.629678
 N   -0.652222    1.273239    1.468903
 N   -1.716870   -1.800104    1.691678
 N   -2.957564    1.070330    1.221920
 O   -4.229256    2.521844   -0.002873
 O   -1.947528    3.904572   -0.712587
 O    3.475127    0.319797    1.212544
 O    0.666613    3.823050   -0.666414
 O   -3.897562   -1.582468    1.131608
 S   -1.662711   -3.130128   -1.353506
Cl    0.615848   -0.802483   -1.453594
 H    5.961356   -2.684502   -2.219262
 H    6.697984   -0.349638   -1.778158
 H    6.186246    1.466752    0.866802
 H    5.490114    2.141964   -0.614863
 H   -2.674715   -0.635941    3.152043
 H   -3.751843   -3.641042   -0.188528
 H   -2.298170   -4.260644    0.624355
 H   -4.142464   -1.827516   -2.014623
 H   -4.714195    0.494209   -2.633624
 H   -2.916918    2.205858   -2.805032
 H   -0.575752    1.586057   -2.315625
 H   -0.066960   -2.772794    0.789268
 H   -0.591462   -3.461130    2.346768
 H    0.961391   -0.889677    1.832574
 H    1.235256   -2.086447    3.110625
 H   -0.095325    0.194814    3.733814
 H   -0.758089   -1.345222    4.319004
 H    2.989889    1.922885   -0.971948
 H    3.255436    3.418887   -0.061132
 H    4.107464    2.144982    1.873065
 H    2.760294   -2.250127    0.639363
 H    4.017027   -3.625929   -1.022363
 H    1.480270    1.405316    1.162748
 H   -3.749632    0.433804    1.308717
 H   -1.012968    4.183299   -0.888179
