62 
5wdw_ligand_xtb.xyz
 C   -2.700555    2.044350    1.509242
 C    7.349630   -1.692305   -0.710244
 C    7.183806   -0.319553   -0.850119
 C    6.048306    0.262397   -0.333347
 C    5.588414    1.691247   -0.305369
 C   -1.326238    0.050453    1.701858
 C   -1.281017   -1.388903    2.164377
 C   -3.171160   -2.261425    0.910145
 C   -3.673519   -3.120622   -0.226538
 C   -3.303217   -0.717448   -1.600758
 C   -4.535770   -0.206568   -1.218689
 C   -1.501606    2.650693    0.903448
 C   -4.721943    1.158904   -1.111962
 C   -3.689426    2.028582   -1.421375
 C   -2.455051    1.530734   -1.801068
 C   -2.258269    0.161018   -1.870317
 C   -0.835275   -3.059896    0.475352
 C    0.480011   -2.443160    0.940050
 C    0.144020   -1.913328    2.331472
 C   -0.377270    1.878586    0.733043
 C    0.807854    2.427875    0.036715
 C    3.071119    1.831853   -0.716395
 C    4.180619    1.560305    0.311980
 C    5.091417   -0.515437    0.316009
 C    5.246132   -1.879763    0.462950
 C    6.394511   -2.456557   -0.061870
 N    1.787064    1.535623   -0.145655
 N   -0.291867    0.582384    1.156624
 N   -1.848410   -2.248081    1.124944
 N   -2.495455    0.720594    1.873751
 O   -3.768957    2.584307    1.676928
 O   -1.589584    3.914845    0.508678
 O    4.037149    0.211155    0.775655
 O    0.848695    3.592831   -0.365139
 O   -3.944899   -1.590505    1.579249
 S   -3.067683   -2.466462   -1.826900
Cl   -0.696051   -0.439429   -2.292915
 H    8.233112   -2.165590   -1.110291
 H    7.929064    0.278241   -1.352541
 H    6.246693    2.304907    0.312384
 H    5.546310    2.133771   -1.301249
 H   -1.884854   -1.480942    3.074694
 H   -4.762839   -3.123101   -0.220298
 H   -3.297723   -4.141296   -0.174194
 H   -5.348646   -0.882497   -1.004976
 H   -5.676619    1.545532   -0.794087
 H   -3.836518    3.094157   -1.349371
 H   -1.640626    2.196153   -2.043332
 H   -0.940382   -3.028896   -0.609986
 H   -0.926096   -4.100006    0.812923
 H    0.744722   -1.613103    0.287391
 H    1.292186   -3.166039    0.947638
 H    0.822191   -1.127531    2.651510
 H    0.156343   -2.721931    3.062782
 H    3.235887    1.197636   -1.595479
 H    3.072816    2.882502   -1.014960
 H    4.035139    2.212897    1.179349
 H    4.498628   -2.467003    0.971332
 H    6.541492   -3.521356    0.038702
 H    1.657238    0.628723    0.283592
 H   -3.314816    0.193075    2.182154
 H   -0.718605    4.158503    0.094118
