56 
5we9_ligand_dft.xyz
 C    5.338664   -1.156490   -0.485854
 C   -5.102947   -1.401198    0.052323
 C   -4.298790   -1.324279   -1.088344
 C   -3.686463   -2.461938   -1.608129
 C   -3.863581   -3.696335   -0.989179
 C   -4.661086   -3.785386    0.149063
 C   -5.273291   -2.646532    0.663025
 C   -1.278420    3.107465   -0.392954
 C    0.014706    3.103833   -1.107744
 C   -0.065981   -1.859300   -0.526197
 C    0.370850   -1.992569    0.935891
 C    4.329491   -0.371733    0.062194
 C    1.850289   -1.592836    0.912567
 C    4.590516    0.214718    1.295103
 C    5.787988    0.042279    1.969421
 C    6.767925   -0.752582    1.382605
 C    6.551335   -1.364243    0.151530
 C    3.064185   -0.098435   -0.704020
 C    0.689483   -0.619496   -1.008714
 C   -0.051198    0.683282   -0.755275
 C   -1.788581    1.922139    0.067780
 C   -3.087725    1.908973    0.787601
 C   -4.792111    0.430661    1.756720
 C   -5.701091   -0.155299    0.660585
 F    5.108926   -1.750051   -1.661863
 F    3.628658    0.967332    1.850299
 N    1.939444   -0.679634   -0.235501
 N   -1.172097    0.700470   -0.120911
 N   -3.462126    0.704213    1.260146
 N    0.538105    1.817934   -1.239025
 O    3.079859    0.614990   -1.703508
 O   -3.757727    2.942853    0.932375
 O   -1.851013    4.292425   -0.249985
 O    0.580515    4.082667   -1.544828
 H   -4.150293   -0.362398   -1.572461
 H   -3.073151   -2.382601   -2.501356
 H   -3.389946   -4.584835   -1.395933
 H   -4.810411   -4.745031    0.635290
 H   -5.896161   -2.723819    1.551611
 H    0.271417   -2.724518   -1.106734
 H   -1.145451   -1.757738   -0.641868
 H   -0.199754   -1.292097    1.552302
 H    0.227169   -2.998904    1.335623
 H    2.501646   -2.459560    0.750402
 H    2.161537   -1.089801    1.830346
 H    5.938391    0.528515    2.925964
 H    7.714262   -0.898636    1.892570
 H    7.300958   -1.989968   -0.318244
 H    0.943094   -0.667941   -2.072891
 H   -5.204483    1.369204    2.132309
 H   -4.713561   -0.272342    2.592966
 H   -5.850997    0.609844   -0.108842
 H   -6.680949   -0.373819    1.100515
 H   -2.871547   -0.069254    0.979418
 H    1.454545    1.731122   -1.684086
 H   -2.705932    4.126481    0.221788
