78 
5wf7_ligand_xtb.xyz
 C   -0.671967   -0.352613   -0.552920
 C   -1.594521    0.633609   -0.155216
 C   -3.006809    0.289195   -0.054843
 C   -5.190357    0.527216    0.981246
 C   -3.870755    0.871159    0.905745
 C    8.723757   -1.219821    1.579249
 C    7.403540   -1.610774    1.006212
 C    4.993653   -1.321010    1.202866
 C    7.236366   -2.463339   -0.040698
 C    5.807989   -3.754286   -1.638495
 C    5.938134   -2.787139   -0.504447
 C    1.569522   -1.221544   -1.086526
 C    0.670851   -0.086783   -0.689090
 C    4.836255   -2.226975    0.092582
 C    3.437083   -2.597229   -0.333885
 C   -0.567324    5.130233   -1.870608
 C    0.299549    5.640306   -0.725836
 C    0.306511    4.675557    0.468319
 C    1.077261    5.254346    1.655102
 C    2.162157    3.180328   -0.266630
 C    2.377466    1.874794   -0.614633
 C    3.666943    1.285874   -1.069124
 C    1.123549    1.221905   -0.473171
 C   -5.737537   -0.435377    0.100431
 C   -7.847026   -0.768160    1.293231
 C   -8.321820   -2.215098    1.571377
 C   -7.511846   -3.103564   -0.502440
 C   -7.614695   -1.625914   -0.934209
 C   -3.580990   -0.628814   -0.905983
 C   -1.155892    1.924240    0.120209
 C    0.187707    2.215477   -0.052304
 N    0.859363    3.394764    0.082650
 N    2.488813   -1.523553   -0.159459
 N    6.299624   -1.073787    1.580385
 N   -7.037751   -0.771165    0.085143
 N   -7.369479   -3.112320    0.943717
 N   -4.884679   -0.968716   -0.802602
 O    1.413943   -1.836371   -2.127321
 O    4.093293   -0.753567    1.824112
 H   -1.011191   -1.363795   -0.717672
 H   -5.829814    1.011069    1.699662
 H   -3.472654    1.598888    1.595135
 H    8.860064   -0.140537    1.517865
 H    8.780713   -1.506519    2.628951
 H    9.532206   -1.704597    1.041478
 H    8.095712   -2.904543   -0.516688
 H    5.226290   -4.622765   -1.334627
 H    5.297279   -3.290824   -2.481394
 H    6.786095   -4.089995   -1.970788
 H    3.113783   -3.468855    0.257073
 H    3.405302   -2.878425   -1.389472
 H   -1.600892    5.016266   -1.549366
 H   -0.544038    5.831381   -2.700333
 H   -0.209177    4.166817   -2.227289
 H    1.322281    5.781131   -1.078858
 H   -0.072958    6.607651   -0.385804
 H   -0.727758    4.495469    0.778838
 H    2.082763    5.543816    1.362762
 H    0.566496    6.134792    2.035069
 H    1.146728    4.519904    2.454247
 H    2.874260    3.982339   -0.251817
 H    4.336425    2.069983   -1.414959
 H    4.152484    0.756709   -0.250993
 H    3.499157    0.579575   -1.879326
 H   -7.247780   -0.418668    2.129877
 H   -8.702224   -0.099142    1.161893
 H   -9.346702   -2.360788    1.195678
 H   -8.327116   -2.395580    2.645491
 H   -6.630684   -3.593329   -0.926984
 H   -8.403131   -3.643077   -0.858408
 H   -8.666079   -1.337120   -1.011729
 H   -7.163519   -1.444322   -1.910596
 H   -3.020662   -1.104285   -1.694645
 H   -1.861521    2.691196    0.401899
 H    2.611390   -0.976211    0.687904
 H    6.404858   -0.447524    2.371150
 H   -5.237583   -1.674413   -1.437322
 H   -7.448454   -4.053528    1.307864
