78 
5wg6_ligand_dft.xyz
 C   -0.713919   -0.331418    0.161273
 C   -1.647504    0.718223    0.254383
 C   -3.090677    0.410685    0.312959
 C   -5.333328    0.799540    1.134991
 C   -3.983246    1.125849    1.119594
 C    8.654476   -1.261151   -0.869839
 C    7.266579   -1.653078   -0.462997
 C    5.524535   -1.329240    1.226418
 C    6.468015   -2.511526   -1.153947
 C    4.312747   -3.793400   -1.474272
 C    5.160965   -2.836593   -0.674430
 C    1.513388   -1.336442    0.078543
 C    0.650136   -0.102402    0.118064
 C    4.714437   -2.280619    0.496867
 C    3.373069   -2.550014    1.126517
 C   -0.230683    4.485169   -2.408892
 C    0.368707    5.386239   -1.332592
 C    0.243769    4.809514    0.083998
 C    0.842229    5.730533    1.146015
 C    2.171214    3.196665   -0.007292
 C    2.409322    1.850750   -0.040201
 C    3.757764    1.223884   -0.228639
 C    1.121289    1.227012    0.110519
 C   -5.768472   -0.265682    0.358959
 C   -7.477439   -1.761806    1.240759
 C   -6.930240   -3.107616    0.694560
 C   -7.790453   -2.227127   -1.463943
 C   -7.793864   -0.769525   -0.934396
 C   -3.632908   -0.633016   -0.443878
 C   -1.207922    2.037201    0.286953
 C    0.162546    2.277205    0.208050
 N    0.834125    3.473955    0.158866
 N    2.468899   -1.413626    1.031467
 N    6.783781   -1.095505    0.687855
 N   -7.147992   -0.643461    0.370269
 N   -6.681462   -2.953433   -0.776840
 N   -4.924349   -0.970125   -0.408332
 O    1.276955   -2.240972   -0.717083
 O    5.162982   -0.724997    2.239656
 H   -1.053525   -1.362530    0.158824
 H   -6.047571    1.349646    1.736658
 H   -3.614567    1.933426    1.744606
 H    8.732063   -0.177490   -1.013526
 H    9.382490   -1.551218   -0.103972
 H    8.930962   -1.750147   -1.805550
 H    6.834566   -2.956025   -2.072055
 H    4.278318   -4.775443   -0.988092
 H    3.284340   -3.430138   -1.563658
 H    4.724854   -3.935810   -2.476629
 H    3.516637   -2.765375    2.189029
 H    2.872574   -3.399298    0.662799
 H   -1.292139    4.290130   -2.215665
 H   -0.150141    4.953165   -3.394179
 H    0.285798    3.520891   -2.450634
 H    1.429091    5.570945   -1.547856
 H   -0.123984    6.365756   -1.341231
 H   -0.819878    4.679562    0.307417
 H    1.904627    5.917755    0.958706
 H    0.328596    6.696409    1.135460
 H    0.741623    5.291140    2.142248
 H    2.887820    4.001756   -0.100458
 H    4.454912    1.956240   -0.647855
 H    4.183216    0.866328    0.714400
 H    3.716037    0.372495   -0.915391
 H   -7.075056   -1.584208    2.239899
 H   -8.567435   -1.809254    1.331028
 H   -7.635626   -3.928521    0.842880
 H   -5.972235   -3.374028    1.144831
 H   -7.613401   -2.272862   -2.539559
 H   -8.720993   -2.754543   -1.239619
 H   -8.831390   -0.428687   -0.854540
 H   -7.281491   -0.111246   -1.637558
 H   -3.001167   -1.217911   -1.105866
 H   -1.921565    2.854689    0.321675
 H    2.657324   -0.626634    1.635617
 H    7.349446   -0.438355    1.211035
 H   -5.806647   -2.333257   -0.862680
 H   -6.504175   -3.861135   -1.208736
