25 
5wg8_ligand_xtb.xyz
 C   -0.104758    0.794801   -0.321674
 C   -1.270957   -1.466994    0.355352
 C   -0.142689   -0.759273   -0.393916
 C    1.213150   -1.095056    0.269673
 C    1.228217    1.010495    0.435205
 C    2.354189   -0.733880   -0.701786
 C    2.392692    0.796739   -0.548870
 C   -1.270814    1.499621    0.380955
 O    1.317087   -0.117829    1.283903
 O   -2.494898   -1.284454   -0.334466
 O   -2.452645    1.494012   -0.371248
 H   -0.048944    1.211622   -1.329801
 H   -1.031272   -2.539524    0.394671
 H   -1.337718   -1.096949    1.384924
 H   -0.181592   -1.099011   -1.430288
 H    1.275859   -2.094047    0.697516
 H    1.277472    1.927337    1.018488
 H    2.139914   -1.056470   -1.717986
 H    3.287232   -1.191461   -0.377611
 H    3.328957    1.127171   -0.101682
 H    2.243661    1.327720   -1.485673
 H   -1.430801    1.074213    1.381891
 H   -1.007138    2.554515    0.507489
 H   -3.200134   -1.724026    0.151459
 H   -2.666019    0.566352   -0.568544
