32 
5wi0_ligand_xtb.xyz
 N   -1.392778   -0.693611   -0.512415
 C   -2.668128    1.271004   -0.440351
 C   -1.453184    2.046821   -0.169978
 C   -0.259182    0.047425   -0.269929
 C    2.193928   -0.234638   -0.011533
 C    2.553322    1.093653    0.193771
 C    4.873566    0.460877    0.373564
 F    2.862298   -2.494673   -0.216950
 C    3.211075   -1.191165   -0.016035
 C    4.536021   -0.867615    0.171867
 C    3.882528    1.428133    0.383232
 N    0.890727   -0.679929   -0.215112
 N   -0.272773    1.318671   -0.106475
 O   -1.449270    3.247979   -0.005170
 C   -2.615150   -0.062248   -0.601539
 C   -3.795818   -0.952448   -0.840008
 C   -4.196592   -1.710334    0.434671
 C   -4.710101   -0.770048    1.516939
 H   -1.349743   -1.694896   -0.638562
 H   -3.599396    1.808412   -0.500163
 H    1.776071    1.839271    0.199763
 H    5.906729    0.732973    0.521773
 H    5.279742   -1.648305    0.158372
 H    4.143962    2.462959    0.540297
 H    0.811871   -1.679103   -0.352360
 H   -3.554698   -1.671659   -1.628203
 H   -4.637068   -0.346803   -1.176334
 H   -3.338532   -2.269557    0.816672
 H   -4.975222   -2.432074    0.180097
 H   -3.948605   -0.042563    1.788125
 H   -5.587765   -0.231727    1.167433
 H   -4.983827   -1.331130    2.406992
