39 
5win_ligand_xtb.xyz
 S    5.161984    0.618308   -0.183703
 C   -3.196055   -2.463942    0.021648
 F   -2.118956    0.769074    2.196629
 N   -4.444237   -2.919052    0.077563
 O    6.211197   -0.122087   -0.823030
 C   -1.107060   -2.181017   -0.082932
 F   -4.045301    1.882201   -1.948955
 N   -2.083338   -3.145333   -0.039457
 O    4.891934    1.963464   -0.603811
 C    1.325119   -1.802597   -0.164839
 N    0.185024   -2.578185   -0.149671
 O   -4.994745   -0.224519    0.120577
 C    1.272597   -0.406792   -0.117663
 N    5.500112    0.654863    1.471434
 C    2.444700    0.323301   -0.132854
 N   -1.551848   -0.949233   -0.057280
 C    3.660670   -0.328415   -0.198553
 N   -2.913324   -1.099554    0.019085
 C    3.730924   -1.707261   -0.249962
 C    2.565845   -2.446482   -0.232950
 C   -3.795262   -0.056464    0.088138
 C   -3.106567    1.269052    0.118975
 C   -2.266064    1.621757    1.170461
 C   -1.601225    2.832639    1.204501
 C   -1.772796    3.723994    0.158792
 C   -2.604599    3.411943   -0.901956
 C   -3.260612    2.193807   -0.907473
 H   -4.606819   -3.908363    0.093260
 H   -5.194537   -2.243846    0.119919
 H    0.298004   -3.582071   -0.171121
 H    0.310900    0.075879   -0.071916
 H    6.379400    0.209619    1.678101
 H    5.473336    1.594508    1.832693
 H    2.435189    1.401010   -0.108775
 H    4.698412   -2.177862   -0.316055
 H    2.605401   -3.525133   -0.274763
 H   -0.960431    3.059609    2.040931
 H   -1.253771    4.669196    0.171413
 H   -2.750014    4.092501   -1.725107
