22 
5wio_ligand_xtb.xyz
 O    4.104069   -0.247816    0.041580
 C    2.945214   -0.898330    0.086496
 O    2.852713   -2.091634    0.179141
 C    1.756021    0.018389    0.007098
 C    0.465119   -0.478205    0.042615
 N    2.050791    1.314455   -0.091873
 C    1.045141    2.167501   -0.161102
 C   -0.284106    1.783434   -0.139067
 C   -0.599290    0.424588   -0.033848
 N   -1.912172   -0.010176   -0.008135
 C   -2.352287   -1.261616   -0.362838
 C   -3.703832   -1.307061   -0.213952
 C   -4.116442   -0.040712    0.268097
 C   -3.002187    0.732530    0.373837
 H    3.912188    0.709941   -0.034795
 H    0.319924   -1.540832    0.145853
 H    1.319870    3.210254   -0.245130
 H   -1.059192    2.527320   -0.221093
 H   -1.679729   -2.009054   -0.731285
 H   -4.338432   -2.145182   -0.421781
 H   -5.119312    0.253554    0.505534
 H   -2.900015    1.736538    0.732981
