53 
5wjj_ligand_dft.xyz
 C   -4.044214   -0.467978    0.364106
 C   -3.381985   -1.622754    0.787810
 C   -4.083749   -2.810024    0.958486
 C   -5.445683   -2.822134    0.711037
 C   -2.038426    5.063288    0.065113
 C   -2.033628    1.028734   -0.258565
 C   -0.354992   -1.753719   -2.112565
 C    1.254007   -0.641931   -0.945392
 C    3.330739    0.263937    0.120481
 C    4.795363   -0.025594    0.244609
 C    6.981281    0.816822    0.774394
 C   -7.636588   -1.770671    0.063940
 C   -6.153406   -1.693153    0.304778
 C   -5.424118   -0.519372    0.139718
 F   -6.123627   -3.972817    0.876091
 C   -3.338725    0.813389    0.183129
 N   -3.965431    1.983015    0.488299
 C   -3.074806    2.931812    0.259177
 C   -3.145335    4.334228    0.392820
 C   -0.878667    4.383207   -0.398857
 N   -0.775561    3.087304   -0.535072
 N   -1.872617    2.394311   -0.189904
 C   -1.002311    0.122642   -0.776249
 C   -1.353944   -0.911609   -1.652306
 N    0.930080   -1.634558   -1.775473
 N    2.626701   -0.618638   -0.656380
 O    2.834717    1.231851    0.674465
 C    5.630091    1.021421    0.637247
 N    7.546178   -0.408001    0.547568
 O    8.795637   -0.570131    0.679318
 C    6.747168   -1.467807    0.184683
 C    7.456977   -2.763805   -0.009519
 C    5.385140   -1.271521    0.034196
 C    0.336413    0.265528   -0.412702
 H   -2.318294   -1.596161    0.999450
 H   -3.592512   -3.717969    1.290370
 H   -2.025438    6.143705    0.147821
 H   -0.591465   -2.566522   -2.794901
 H    7.696753    1.573875    1.063972
 H   -7.872951   -2.500257   -0.717730
 H   -8.167006   -2.085228    0.968698
 H   -8.029835   -0.798371   -0.243315
 H   -5.934869    0.389162   -0.165555
 H   -4.067737    4.779619    0.746684
 H    0.015072    4.933216   -0.674035
 H   -2.382179   -1.050667   -1.965276
 H    3.128267   -1.326739   -1.173735
 H    5.207440    1.999349    0.836125
 H    8.220949   -2.666040   -0.787327
 H    7.983761   -3.049898    0.906365
 H    6.750566   -3.549342   -0.286756
 H    4.792677   -2.145007   -0.221633
 H    0.671556    1.053227    0.245029
