63 
5wkl_ligand_xtb.xyz
 C    1.995361   -1.984638    0.735298
 C    3.461946   -2.172390    0.340261
 C    3.795369   -1.581817   -1.044764
 C    4.414315   -0.198652   -0.865468
 C   -4.062332    0.015903   -2.164930
 C   -4.617972   -0.806683   -1.036490
 C    6.168792   -1.576404   -1.595339
 C   -1.835548    1.620825   -0.830896
 C    0.231109    1.370140    0.412831
 C    0.958635    2.240863    1.440990
 C    0.845787    3.740593    1.144193
 C    1.487658    4.088973   -0.196479
 C    1.511274    4.529284    2.270518
 C    0.382656   -0.116853    0.753894
 C    4.866129   -2.353081   -1.829509
 C    1.736454   -2.493753    2.172683
 C   -3.986659    1.496792   -1.768440
 C   -3.782318   -1.313729   -0.049550
 C   -4.304224   -2.028737    1.014163
 C   -5.667827   -2.249473    1.102121
 C   -6.508224   -1.749470    0.122033
 C   -5.985639   -1.029707   -0.937618
 N   -1.171403    1.707609    0.346798
 N    1.624541   -0.583770    0.594613
 N    5.702008   -0.263732   -1.220509
 O   -1.311687    1.554716   -1.917340
 O    3.851893    0.788897   -0.429794
 O    0.450854   -3.006508    2.339393
 O   -0.568445   -0.786755    1.130522
 O   -3.168605    1.686635   -0.621935
 H    1.357482   -2.580537    0.065408
 H    4.094771   -1.713717    1.104231
 H    3.668917   -3.243242    0.335378
 H    2.872048   -1.499954   -1.621841
 H   -3.055823   -0.319208   -2.421154
 H   -4.695607   -0.065559   -3.049866
 H    6.791297   -1.526441   -2.491310
 H    6.762850   -2.015716   -0.784687
 H    0.641737    1.536094   -0.587609
 H    0.538956    2.036147    2.429431
 H    2.013364    1.961524    1.452732
 H   -0.215128    4.008236    1.106221
 H    1.534299    5.168466   -0.320993
 H    2.498541    3.689922   -0.247585
 H    0.911130    3.681689   -1.022315
 H    1.064067    4.285253    3.231700
 H    2.573260    4.297177    2.316171
 H    1.401078    5.598257    2.104718
 H    4.620057   -2.344941   -2.890955
 H    4.951696   -3.388797   -1.508712
 H    1.934325   -1.669784    2.876902
 H    2.421503   -3.315014    2.402616
 H   -3.586447    2.085136   -2.601477
 H   -4.970165    1.872496   -1.479191
 H   -2.716193   -1.149348   -0.102951
 H   -3.639314   -2.413215    1.773188
 H   -6.075648   -2.810060    1.930806
 H   -7.573838   -1.919463    0.183227
 H   -6.645671   -0.639338   -1.700333
 H   -1.717968    1.537932    1.178768
 H    2.342905    0.061915    0.269559
 H    6.325350    0.521612   -1.123418
 H   -0.174374   -2.332065    2.003268
