55 
5wmg_ligand_dft.xyz
 C   -3.447455    3.549067    0.417743
 C   -1.792102   -2.818982   -1.238473
 C   -1.063822   -2.757613    1.190562
 C   -0.615860    2.234233   -0.120109
 C    1.198815   -1.732496    0.744489
 C   -2.707123    4.634617    1.115502
 O    8.228181   -0.274402   -0.105805
 O    7.630265    1.641990   -1.096148
 N   -3.388530   -3.109720    0.524783
 C   -4.340603   -3.246757   -0.403659
 C   -4.097739   -3.177278   -1.769244
 C   -2.789354   -2.957043   -2.192401
 C   -2.138384   -2.903352    0.112786
 N   -0.167995   -1.656603    0.853039
 N    0.583288    1.676305   -0.058544
 O   -4.719979    3.803613    0.083466
 N   -5.270598    2.697877   -0.538624
 C   -4.578979    0.453910   -1.177732
 C   -4.325614    1.793700   -0.564060
 C   -3.117701    2.281808    0.034046
 C   -1.836023    1.577688    0.164133
 C   -1.795838    0.236922    0.530191
 C   -0.543746   -0.362828    0.577988
 C    0.623646    0.378759    0.282943
 C    1.748363   -0.519573    0.405130
 C    4.936555    1.183721   -0.668709
 C    3.588766    0.933390   -0.452200
 C    3.174093   -0.238315    0.196987
 C    4.155874   -1.141289    0.634547
 C    5.499766   -0.895899    0.412648
 C    5.902211    0.269226   -0.244247
 C    7.352905    0.486427   -0.456258
 C   -1.620203   -2.615824    2.605144
 H   -0.762243   -2.632115   -1.526509
 H   -0.439904   -3.659332    1.153112
 H   -0.641252    3.275640   -0.435808
 H    1.686946   -2.684474    0.905584
 H   -1.814459    4.229251    1.597636
 H   -3.342838    5.098716    1.874681
 H   -2.395879    5.415182    0.412987
 H    8.596321    1.672162   -1.175235
 H   -5.347344   -3.413530   -0.027427
 H   -4.910156   -3.286922   -2.479483
 H   -2.552493   -2.889606   -3.249813
 H   -3.714396    0.125277   -1.762533
 H   -5.456971    0.500080   -1.825837
 H   -4.762015   -0.306480   -0.410683
 H   -2.703954   -0.308928    0.762287
 H    5.242629    2.094066   -1.172398
 H    2.841906    1.650014   -0.774094
 H    3.867558   -2.041294    1.169818
 H    6.256776   -1.596166    0.749834
 H   -2.244402   -1.723774    2.698356
 H   -2.236444   -3.480173    2.858379
 H   -0.790970   -2.539545    3.313977
