46 
5wmt_ligand_xtb.xyz
 C    0.231503    4.039917   -0.730145
 C    3.401317    2.224859    2.134727
 C    3.149091    0.880271    2.337506
 C    3.499743    2.716135    0.842559
 C    2.869281   -3.836628   -0.392883
 C    2.991143    0.028087    1.256632
 C    3.339940    1.866489   -0.236196
 C    3.553527   -2.690453   -0.667629
 C   -4.258165    0.769771   -0.001788
 C    0.090588   -1.668908   -1.001864
 C   -0.297590   -0.882634    0.266429
 C    2.886139   -0.364481   -1.253392
 C   -0.706799    1.880648   -0.654871
 C    3.080803    0.515098   -0.038736
 C   -4.080215   -0.558915    0.341942
 C   -3.170764    1.590430   -0.272673
 C   -2.773760   -1.059772    0.418389
 C    1.398738   -2.348914   -0.819150
 C   -1.664689   -0.280978    0.135784
 C   -1.862102    1.064799   -0.236697
 N    1.533879   -3.609337   -0.489214
 N    2.609448   -1.738021   -0.944282
 O    0.272833    1.478231   -1.233289
 O   -5.148121   -1.322788    0.604773
 O   -3.458181    2.862615   -0.596465
 O   -0.849194    3.196922   -0.353231
Cl   -2.598747   -2.731035    0.897695
 H    1.151299    3.705147   -0.247216
 H    0.370053    4.016120   -1.812898
 H   -0.036134    5.039528   -0.398148
 H    3.522799    2.888640    2.977823
 H    3.073194    0.488645    3.341120
 H    3.704329    3.764811    0.677312
 H    3.245987   -4.805817   -0.134824
 H    2.795699   -1.020098    1.430396
 H    3.408978    2.249260   -1.244288
 H    4.601489   -2.471552   -0.693996
 H   -5.252029    1.180661   -0.053265
 H    0.121968   -0.981372   -1.848117
 H   -0.656451   -2.437567   -1.199615
 H    0.444167   -0.107195    0.447428
 H   -0.285315   -1.570819    1.114026
 H    3.789657   -0.322512   -1.873285
 H    2.054990    0.046359   -1.833647
 H   -4.842538   -2.216514    0.838515
 H   -2.641782    3.384593   -0.655636
