44 
5wo4_ligand_xtb.xyz
 C   -1.442612    3.866750   -0.269788
 C   -2.646083    1.576184   -0.479337
 C   -2.935709   -0.906048   -0.506419
 C   -2.965214   -1.550102    0.901004
 C   -3.681616   -0.680380    1.803061
 C   -0.439109    1.521030   -0.228038
 C    1.999906    1.229584    0.021804
 C    2.006951   -0.162081   -0.069337
 C    3.195119   -0.871302    0.018738
 C    2.116189   -2.966316   -0.261814
 C    4.389099   -0.164879    0.206969
 C    4.386094    1.214181    0.299755
 C    3.199770    1.915202    0.206827
Cl    5.872197   -1.043011    0.320484
 O    3.292811   -2.224931   -0.065387
 N    0.831675    1.955876   -0.070331
 C   -1.555778    2.413943   -0.331464
 N   -2.602272    4.563210   -0.341776
 O   -0.362780    4.434431   -0.171191
 N   -0.848603    0.261876   -0.304873
 N   -2.186574    0.316948   -0.470491
 N   -4.273148    0.026650    2.478552
 C   -3.628242   -2.931677    0.820613
 C   -2.919750   -3.765979   -0.247006
 O   -2.954921   -3.131051   -1.505045
 C   -2.287970   -1.898113   -1.489906
 H   -3.692515    1.779244   -0.590845
 H   -3.958884   -0.681219   -0.827636
 H   -1.930087   -1.642912    1.253026
 H    1.064085   -0.658607   -0.213804
 H    1.415934   -2.830728    0.569441
 H    1.623659   -2.695924   -1.201854
 H    2.429360   -4.008551   -0.304515
 H    5.318917    1.735127    0.444409
 H    3.197211    2.991752    0.276693
 H    0.892722    2.973873   -0.034443
 H   -2.558999    5.564771   -0.255093
 H   -3.498789    4.114503   -0.329494
 H   -4.679180   -2.814667    0.547294
 H   -3.574524   -3.434389    1.786705
 H   -3.422843   -4.724477   -0.383877
 H   -1.875501   -3.947164    0.052252
 H   -1.232479   -2.023104   -1.207616
 H   -2.340139   -1.505844   -2.507441
