127 
5wou_ligand_dft.xyz
 N   -1.806698   -0.951395   -0.747612
 C   -2.838627    0.114619   -0.966489
 C   -4.103757   -0.613072   -1.449723
 O   -4.054272   -1.217764   -2.510264
 C   -2.327376    1.107193   -2.017557
 C   -2.986366    2.495506   -1.987887
 C   -2.652235    3.286196   -0.718668
 C   -4.497818    2.452794   -2.231052
 N   -5.222620   -0.553598   -0.684545
 C   -5.276153   -0.091555    0.692549
 C   -4.251541   -0.856074    1.549485
 O   -3.704004   -1.867250    1.127166
 C   -6.731277   -0.384989    1.109894
 C   -7.084989   -1.622032    0.278966
 C   -6.399331   -1.350242   -1.059136
 N   -4.010889   -0.315852    2.772570
 C   -2.747508   -0.489160    3.487845
 C   -1.843362    0.705361    3.082020
 O   -2.373114    1.784519    2.843934
 C   -2.157525   -1.899645    3.343967
 O   -1.048735   -2.070892    4.226857
 N   -0.510770    0.507238    3.095320
 C    0.405051    1.536109    2.663823
 C    0.315133    1.716109    1.142584
 O   -0.431132    1.035943    0.452489
 C    1.836500    1.145535    3.106255
 C    2.817708    2.296370    3.123407
 C    3.874727    2.362482    2.210464
 C    2.665499    3.331565    4.051404
 C    4.754107    3.444119    2.221885
 C    3.544080    4.409129    4.066397
 C    4.590783    4.469233    3.148744
 N    1.101483    2.675908    0.593865
 C    1.319785    2.663163   -0.831698
 C    2.130154    1.428996   -1.262968
 O    2.658051    0.683163   -0.440432
 C    1.927302    3.991081   -1.321192
 C    0.850763    4.975631   -1.763725
 C    0.117281    4.490258   -2.992394
 O   -0.858409    5.322657   -3.357552
 O    0.359124    3.465844   -3.601970
 N    2.194657    1.263231   -2.605765
 C    2.487130   -0.009318   -3.242447
 C    1.319326   -0.980446   -2.969970
 O    0.284237   -0.577362   -2.452249
 C    3.863703   -0.634197   -2.885749
 O    3.822784   -1.374002   -1.681636
 C    4.983448    0.397964   -2.879062
 N    1.472130   -2.273424   -3.322852
 C    0.500708   -3.259896   -2.874706
 C    0.481650   -3.414496   -1.342612
 O   -0.531921   -3.798994   -0.771307
 C    0.792561   -4.616752   -3.512201
 N    1.658163   -3.205817   -0.712431
 C    1.846791   -3.573223    0.670306
 C    0.905121   -2.840895    1.613885
 O    0.731705   -3.529773    2.731536
 C    3.291380   -3.271557    1.104302
 C    4.380604   -4.026762    0.327041
 C    5.754870   -3.535234    0.786834
 C    4.250818   -5.542601    0.486124
 O    0.425181   -1.738580    1.413764
 H   -1.347927   -1.212190   -1.628696
 H   -1.057086   -0.571622   -0.144751
 H   -2.204090   -1.783313   -0.297242
 H   -2.950639    0.611437   -0.003011
 H   -2.466230    0.645669   -3.001148
 H   -1.252915    1.221641   -1.867319
 H   -2.537023    3.034429   -2.833166
 H   -3.072402    4.295774   -0.778084
 H   -3.050786    2.816440    0.188085
 H   -1.571136    3.376447   -0.571628
 H   -4.894042    3.462236   -2.381796
 H   -5.030711    2.021442   -1.375716
 H   -4.745813    1.852185   -3.112767
 H   -5.056984    0.981376    0.763963
 H   -6.831253   -0.535876    2.187479
 H   -7.361270    0.463514    0.824625
 H   -8.162228   -1.765646    0.175125
 H   -6.660823   -2.519935    0.739257
 H   -6.076963   -2.251983   -1.581685
 H   -7.034635   -0.769199   -1.737011
 H   -4.367175    0.624794    2.902642
 H   -2.966891   -0.334454    4.552932
 H   -2.930613   -2.649978    3.529525
 H   -1.761879   -2.064797    2.346333
 H   -1.355038   -2.238861    5.126286
 H   -0.170842   -0.445008    3.027680
 H    0.106758    2.477702    3.136669
 H    1.748289    0.732228    4.117083
 H    2.196959    0.343513    2.453286
 H    3.990371    1.572106    1.474218
 H    1.855437    3.289080    4.776199
 H    5.572195    3.479259    1.508538
 H    3.415510    5.200380    4.798442
 H    5.279565    5.308131    3.161427
 H    1.836549    3.065152    1.171948
 H    0.342569    2.523986   -1.298105
 H    2.529610    4.435207   -0.521598
 H    2.609196    3.804939   -2.155266
 H    0.112524    5.146709   -0.971386
 H    1.279704    5.956497   -1.996473
 H   -1.271878    4.958129   -4.157843
 H    1.598669    1.894523   -3.138449
 H    2.502273    0.193313   -4.319399
 H    4.085314   -1.368837   -3.669438
 H    3.532714   -0.730941   -0.998891
 H    5.026892    0.941969   -3.827929
 H    5.938332   -0.108370   -2.719652
 H    4.836691    1.122073   -2.072675
 H    2.370340   -2.603193   -3.644566
 H   -0.497195   -2.927329   -3.170475
 H    0.737767   -4.546875   -4.602189
 H    0.053058   -5.344441   -3.171770
 H    1.785989   -4.979841   -3.225000
 H    2.414242   -2.717364   -1.186790
 H    1.634133   -4.639866    0.794204
 H    0.155039   -3.024858    3.353161
 H    3.380642   -3.515721    2.169512
 H    3.455564   -2.189597    1.009882
 H    4.287302   -3.779057   -0.737266
 H    5.865352   -2.459658    0.611015
 H    5.903496   -3.724752    1.856926
 H    6.555043   -4.048158    0.243531
 H    3.313846   -5.923699    0.065561
 H    5.071244   -6.054935   -0.026761
 H    4.288456   -5.829651    1.544182
