38 
5wpb_ligand_xtb.xyz
 C   -2.540484   -1.313089    0.194177
 C   -1.251930    0.776416   -0.937385
 N   -2.549734    0.841218   -0.878691
 C   -4.632651   -2.295668    0.828425
 C   -3.266933   -2.371727    0.764226
 O    0.171035    4.038659    1.396711
 C    0.263268    3.151074    0.595561
 O    1.094140    2.128172    0.813503
 C   -0.527999    3.174890   -0.704480
 C   -0.512313    1.916278   -1.579378
 C   -3.230745   -0.181004   -0.311179
 C   -4.633427   -0.130426   -0.229518
 C   -5.316580   -1.174974    0.332614
 N   -1.188659   -1.372529    0.131958
 C   -0.564480   -0.363419   -0.404212
 O    0.781476   -0.357141   -0.464422
 C    1.436986   -1.503640    0.080188
 C    2.919952   -1.255075    0.080903
 N    3.652074   -2.107436   -0.621918
 C    4.961865   -1.937967   -0.654141
 C    5.612921   -0.904928    0.002589
 C    4.846578   -0.011798    0.735272
 C    3.473682   -0.188752    0.783206
 H   -5.197138   -3.105594    1.266353
 H   -2.723618   -3.223683    1.141837
 H    1.060879    1.426065    0.138128
 H   -0.137312    4.020398   -1.277427
 H   -1.559836    3.418530   -0.442441
 H   -1.033973    2.162850   -2.506638
 H    0.506215    1.614300   -1.833519
 H   -5.137548    0.740797   -0.617142
 H   -6.393943   -1.143596    0.398594
 H    1.207001   -2.381733   -0.529853
 H    1.062458   -1.673400    1.096437
 H    5.508812   -2.666026   -1.238819
 H    6.685131   -0.803609   -0.057097
 H    5.309015    0.808046    1.264892
 H    2.848613    0.483216    1.349723
