67 
5wqa_ligand_dft.xyz
 O   -0.272031   -2.424310    5.422134
 C    0.014423   -1.983904    4.328326
 C   -0.965256   -1.367442    3.405429
 C   -0.559802   -0.875894    2.143062
 C    0.811080   -0.885281    1.743792
 C    1.957956   -0.782619    1.370521
 C    3.261056   -0.568428    0.831075
 C    3.457970    0.476606   -0.088274
 C    4.707174    0.711452   -0.635781
 C    5.787383   -0.096097   -0.272315
 O    6.989407    0.178987   -0.839064
 C    5.606002   -1.136967    0.640941
 C    4.351501   -1.369251    1.187793
 C   -1.529361   -0.310288    1.307983
 C   -2.856068   -0.203137    1.745284
 C   -3.251501   -0.684137    2.991770
 C   -2.299363   -1.273667    3.807952
 C   -1.384312    0.210305   -0.130691
 C   -2.806799    0.721160   -0.389005
 C   -3.292933    1.343244   -1.523324
 C   -4.640184    1.710378   -1.557266
 O   -5.083768    2.321717   -2.686402
 C   -5.481535    1.451173   -0.469180
 C   -4.982682    0.822684    0.665960
 C   -3.641804    0.458403    0.703288
 C   -0.402599    1.375058   -0.287132
 C    0.011697    2.135637    0.801547
 C    0.860397    3.231708    0.653514
 C    1.305463    3.595700   -0.616421
 O    2.143737    4.630546   -0.878075
 C    2.635796    5.371439    0.215875
 C    0.880985    2.856785   -1.725287
 C    0.041434    1.768390   -1.556982
 C   -1.067770   -0.995097   -1.040403
 C    0.226989   -1.299491   -1.449704
 C    0.511005   -2.435735   -2.205820
 C   -0.518250   -3.304035   -2.561640
 O   -0.359310   -4.436443   -3.293977
 C    0.943635   -4.769976   -3.713420
 C   -1.824499   -3.017579   -2.153467
 C   -2.087914   -1.883848   -1.406091
 H    1.056073   -2.024365    3.956092
 H    2.618098    1.107179   -0.363134
 H    4.864870    1.517600   -1.344193
 H    7.649435   -0.441094   -0.506454
 H    6.446172   -1.766569    0.925558
 H    4.211806   -2.178725    1.897010
 H   -4.283949   -0.600815    3.317952
 H   -2.560745   -1.667290    4.785138
 H   -2.665466    1.557178   -2.381566
 H   -6.021326    2.527372   -2.591229
 H   -6.528141    1.744235   -0.512764
 H   -5.640395    0.624408    1.507421
 H   -0.319259    1.871792    1.800722
 H    1.166291    3.780824    1.536340
 H    1.824953    5.866907    0.765202
 H    3.205254    4.736398    0.906841
 H    3.297686    6.128435   -0.206401
 H    1.227663    3.149944   -2.710768
 H   -0.257752    1.199096   -2.431761
 H    1.048042   -0.644946   -1.184466
 H    1.537397   -2.623800   -2.499146
 H    1.366931   -3.997268   -4.368493
 H    1.615267   -4.924176   -2.858874
 H    0.851639   -5.702728   -4.271377
 H   -2.619720   -3.699729   -2.435463
 H   -3.111000   -1.687331   -1.100575
