58 
5wqc_ligand_xtb.xyz
 C    3.805361   -1.079949   -0.651932
 C   -1.115004   -1.515982    0.724355
 C    0.004755    0.493172   -0.154548
 C    0.380132    0.994914    1.097811
 C    3.377630    3.832421   -1.195474
 C   -3.548058    0.331560   -0.164818
 C   -5.457279   -0.192156    1.187827
 C   -2.529779    2.651074   -0.176458
 C   -3.540006    1.648006    0.278426
 C   -4.524918    2.019206    1.192527
 C   -5.467982    1.115633    1.646516
 C   -4.490149   -0.579622    0.278491
 S   -2.305588   -0.320961   -1.285774
 O   -2.697247   -1.648131   -1.668362
 O   -1.988932    0.603134   -2.331331
 N   -0.952959   -0.519203   -0.311338
 C    0.646913    1.006435   -1.274096
 N    1.566097    1.956042   -1.212455
 C    1.342847    1.975141    1.167112
 C    1.908060    2.436637   -0.027667
 O    2.835765    3.404951    0.039342
 C    0.255394   -2.027325    1.172714
 O    0.598512   -1.924378    2.336533
 N    1.060349   -2.532799    0.220436
 C    0.660816   -2.892125   -1.125855
 C    0.302691   -4.375083   -1.218940
 C    2.442791   -2.805067    0.602969
 C    3.247405   -1.532950    0.537124
 C    4.506703    0.114270   -0.658660
 C    4.625098    0.812871    0.532693
 N    4.090488    0.397975    1.667916
 C    3.417258   -0.736831    1.667259
 H    3.706232   -1.657074   -1.561181
 H   -1.721413   -2.316972    0.297353
 H   -1.627846   -1.122642    1.612691
 H   -0.062800    0.610932    2.003053
 H    3.864829    3.002074   -1.710453
 H    2.593930    4.230705   -1.843434
 H    4.100814    4.607936   -0.951776
 H   -6.193433   -0.901090    1.533238
 H   -1.692177    2.683466    0.521315
 H   -2.144486    2.395666   -1.158804
 H   -2.975109    3.643217   -0.208320
 H   -4.543668    3.038420    1.549720
 H   -6.216293    1.433228    2.357085
 H   -4.452555   -1.583185   -0.114099
 H    0.400200    0.652696   -2.263508
 H    1.678611    2.381157    2.106184
 H    1.493311   -2.664678   -1.796623
 H   -0.191217   -2.293145   -1.442471
 H    1.144220   -5.002597   -0.933016
 H   -0.533679   -4.601664   -0.562811
 H    0.016491   -4.617466   -2.238229
 H    2.851884   -3.558743   -0.071006
 H    2.444549   -3.187662    1.627021
 H    4.955472    0.485985   -1.567139
 H    5.170298    1.745597    0.588000
 H    2.986543   -1.033006    2.613961
