58 
5ws3_ligand_xtb.xyz
 C    3.783126   -1.107446   -0.676773
 C   -1.116728   -1.497322    0.734124
 C    0.013263    0.507531   -0.142168
 C    0.384632    1.009402    1.111381
 C    3.398610    3.838080   -1.171206
 C   -3.540801    0.340864   -0.172590
 C   -5.450059   -0.190089    1.176591
 C   -2.526826    2.661526   -0.179582
 C   -3.536433    1.656705    0.272588
 C   -4.523739    2.024015    1.185580
 C   -5.464709    1.116957    1.637087
 C   -4.480881   -0.573641    0.267838
 S   -2.291104   -0.307036   -1.287605
 O   -2.677777   -1.634505   -1.674161
 O   -1.969128    0.618299   -2.330357
 N   -0.946054   -0.502857   -0.302355
 C    0.660948    1.018993   -1.259350
 N    1.581832    1.966824   -1.194588
 C    1.349203    1.987497    1.183907
 C    1.920491    2.446997   -0.008659
 O    2.850697    3.412698    0.061678
 C    0.250909   -2.021488    1.175951
 O    0.605729   -1.913414    2.335704
 N    1.041014   -2.542260    0.219552
 C    0.619811   -2.911329   -1.117632
 C    0.211005   -4.382724   -1.182241
 C    2.424084   -2.826159    0.590784
 C    3.237315   -1.559726    0.518129
 C    4.492516    0.081986   -0.689424
 C    4.630442    0.776840    0.502015
 N    4.107113    0.362838    1.642796
 C    3.426469   -0.767528    1.647936
 H    3.667830   -1.681163   -1.586256
 H   -1.732336   -2.291822    0.308713
 H   -1.622692   -1.098383    1.623775
 H   -0.062918    0.627486    2.015312
 H    3.879486    3.004616   -1.687049
 H    2.619600    4.244722   -1.819735
 H    4.128106    4.606672   -0.924395
 H   -6.184490   -0.901566    1.520389
 H   -1.685378    2.686627    0.513828
 H   -2.146665    2.412301   -1.165555
 H   -2.969841    3.654911   -0.201924
 H   -4.545883    3.042542    1.544536
 H   -6.214378    1.431356    2.347630
 H   -4.439719   -1.576458   -0.126242
 H    0.417498    0.665567   -2.249639
 H    1.681305    2.394195    2.124074
 H    1.454944   -2.725061   -1.797432
 H   -0.213318   -2.289077   -1.440047
 H    1.034928   -5.033265   -0.896371
 H   -0.624235   -4.571003   -0.512622
 H   -0.096555   -4.631065   -2.193863
 H    2.821063   -3.583221   -0.086639
 H    2.431661   -3.208544    1.614945
 H    4.932149    0.453182   -1.602494
 H    5.183033    1.705456    0.553117
 H    3.005068   -1.062496    2.599169
