44 
5wuu_ligand_xtb.xyz
 C   -4.022338    0.479940   -0.784674
 C   -4.155470   -0.157383   -1.997164
 C   -3.291640   -1.193016   -2.334579
 C   -2.304613   -1.585973   -1.458963
 C   -2.142383   -0.957189   -0.219837
 C   -3.019705    0.089482    0.104891
 O   -2.941484    0.778841    1.259792
 C   -1.979758    0.492107    2.208280
 C   -1.085903   -0.586642    1.923009
 C   -1.121694   -1.303064    0.759417
 O   -1.951406    1.190709    3.195751
 N   -0.286391   -2.338192    0.496986
 C    0.878175   -2.660009    1.283897
 C    2.013549   -1.640069    1.131608
 C    2.505336   -1.545078   -0.317026
 N    3.529302   -0.539044   -0.475904
 C    3.302467    0.795137   -0.420105
 C    1.902403    1.297805   -0.351078
 S    0.582052    0.776617   -1.420405
 C   -0.410183    2.252523   -0.993550
 C    0.137791    2.792569    0.325235
 C    1.549553    2.315928    0.432997
 O    4.211015    1.608381   -0.413628
 C    4.898829   -1.002827   -0.483974
 H   -4.674977    1.287513   -0.493124
 H   -4.928782    0.148718   -2.684547
 H   -3.393766   -1.691133   -3.286342
 H   -1.652885   -2.395758   -1.750254
 H   -0.363368   -0.782643    2.696250
 H   -0.271782   -2.666382   -0.453961
 H    1.223618   -3.647294    0.967381
 H    0.586567   -2.725961    2.335166
 H    2.839193   -1.928319    1.783919
 H    1.661328   -0.656519    1.444844
 H    1.665718   -1.310754   -0.976178
 H    2.929786   -2.502246   -0.631244
 H   -1.455008    1.955104   -0.946415
 H   -0.275915    2.966253   -1.807927
 H   -0.440502    2.425717    1.179722
 H    0.090291    3.882472    0.343632
 H    2.230473    2.762572    1.136888
 H    5.127314   -1.552334    0.431760
 H    5.069638   -1.650760   -1.345691
 H    5.548360   -0.132354   -0.550605
