44 
5wuu_ligand_dft.xyz
 C   -3.779319    1.410372    0.164471
 C   -3.739458    2.103134   -1.031964
 C   -2.995403    1.608270   -2.107315
 C   -2.287313    0.427621   -1.967132
 C   -2.293506   -0.285077   -0.758060
 C   -3.062644    0.219860    0.298232
 O   -3.148951   -0.394260    1.499460
 C   -2.487516   -1.589331    1.765338
 C   -1.647797   -2.107966    0.714377
 C   -1.522923   -1.505670   -0.505411
 O   -2.652252   -2.077433    2.854352
 N   -0.726468   -1.987856   -1.499849
 C    0.266313   -3.029216   -1.296752
 C    1.453498   -2.600883   -0.427089
 C    2.211733   -1.413918   -1.025648
 N    3.279973   -0.929551   -0.172248
 C    3.341624    0.318047    0.398891
 C    2.116119    1.187526    0.364018
 S    2.333136    2.890486   -0.094792
 C    0.726099    3.315197    0.683161
 C   -0.105702    2.026091    0.703925
 C    0.878949    0.886454    0.772177
 O    4.348468    0.734381    0.949867
 C    4.452154   -1.781353   -0.067938
 H   -4.353565    1.763804    1.013672
 H   -4.294574    3.030051   -1.135043
 H   -2.973644    2.143516   -3.050525
 H   -1.732887    0.058901   -2.824852
 H   -1.117198   -3.014870    0.970691
 H   -0.558064   -1.374291   -2.279170
 H    0.616433   -3.330389   -2.289697
 H   -0.225480   -3.905931   -0.863087
 H    2.121127   -3.462649   -0.313255
 H    1.108215   -2.332317    0.576652
 H    1.521428   -0.590753   -1.213584
 H    2.646820   -1.706971   -1.993692
 H    0.249144    4.117154    0.116946
 H    0.925861    3.668274    1.699017
 H   -0.705014    1.939486   -0.213301
 H   -0.806102    2.021357    1.545177
 H    0.581218   -0.102487    1.107208
 H    4.224432   -2.697229    0.488775
 H    4.807792   -2.057247   -1.068361
 H    5.231799   -1.229796    0.454656
