123 
5wxh_ligand_dft.xyz
 N   -3.973856    1.707683   -0.014967
 C   -3.420425    1.611481   -1.402203
 C   -2.155411    2.489301   -1.427884
 O   -2.191414    3.654508   -1.805623
 C   -4.449199    2.088099   -2.410381
 N   -1.059083    1.892090   -0.925971
 C    0.151992    2.635716   -0.681006
 C    1.342043    1.800587   -1.158487
 O    1.193283    0.798926   -1.856972
 C    0.273814    3.120993    0.794442
 C    0.392907    4.643604    0.942715
 C   -0.938366    5.385104    0.759623
 N   -1.857696    5.096315    1.846799
 C   -3.087251    4.511486    1.737856
 N   -3.615902    4.040126    2.916675
 N   -3.762441    4.307881    0.648753
 N    2.563391    2.231682   -0.769359
 C    3.783050    1.671341   -1.331388
 C    4.031425    0.258117   -0.753452
 O    4.666679    0.091889    0.287712
 C    4.955892    2.596149   -0.984770
 O    4.491639    3.911053   -1.236159
 C    6.190817    2.261229   -1.811932
 N    3.519926   -0.740085   -1.506256
 C    3.391510   -2.133528   -1.081235
 C    4.713073   -2.788361   -0.682429
 C    5.828181   -2.696784   -1.731734
 C    7.207302   -2.705764   -1.052143
 C    7.473390   -1.322477   -0.446374
 N    8.138578   -1.285699    0.917012
 C    2.359572   -2.298423    0.061522
 O    2.579580   -3.023856    1.018301
 C    8.380477    0.153352    1.256699
 C    9.438958   -2.021986    0.900824
 C    7.227526   -1.862249    1.958641
 N    1.188842   -1.634169   -0.110099
 C    0.143006   -1.711891    0.890715
 C   -1.190875   -1.704012    0.126235
 O   -1.369911   -0.995083   -0.863255
 C    0.320058   -0.592179    1.932405
 C   -0.675764   -0.620564    3.094777
 C   -2.057775   -0.218659    2.612729
 O   -2.158095    0.715555    1.810926
 N   -3.114288   -0.909678    3.067120
 N   -2.122560   -2.574736    0.552951
 C   -3.312286   -2.893517   -0.199495
 C   -4.364922   -1.782477   -0.287501
 O   -4.602684   -0.968424    0.598110
 C   -3.960492   -4.145805    0.435769
 O   -3.968664   -3.890383    1.835576
 C   -3.193986   -5.420682    0.101372
 N   -5.078667   -1.813186   -1.442551
 C   -6.399755   -1.224407   -1.527241
 C   -7.383290   -2.048253   -0.690375
 O   -7.138968   -3.125534   -0.203938
 C   -6.857783   -1.124669   -2.982767
 O   -8.556698   -1.423761   -0.584125
 H   -4.104245    2.744274    0.273652
 H   -4.837933    1.169067    0.063952
 H   -3.327480    1.283869    0.685374
 H   -3.150464    0.563794   -1.562651
 H   -5.367465    1.495996   -2.340112
 H   -4.687762    3.141666   -2.248563
 H   -4.052375    1.984572   -3.423013
 H   -1.057954    0.882180   -0.787050
 H    0.109404    3.511316   -1.342690
 H    1.133707    2.640865    1.274412
 H   -0.609858    2.765441    1.334517
 H    1.114980    5.047215    0.219475
 H    0.795910    4.878694    1.935794
 H   -0.760395    6.464543    0.704297
 H   -1.398677    5.085540   -0.185005
 H   -1.567403    5.401236    2.763859
 H   -3.171997    4.276268    3.790403
 H   -4.624107    4.020789    2.947270
 H   -3.344421    4.745233   -0.166127
 H    2.662996    3.173367   -0.409269
 H    3.678847    1.611729   -2.422724
 H    5.172494    2.465131    0.084304
 H    5.184087    4.538339   -0.995836
 H    5.991497    2.418192   -2.876068
 H    7.031342    2.901878   -1.524575
 H    6.495264    1.220388   -1.659984
 H    2.865757   -0.426321   -2.214841
 H    2.983483   -2.657596   -1.953635
 H    5.024604   -2.332834    0.258709
 H    4.503943   -3.835667   -0.450004
 H    5.728668   -1.781729   -2.329389
 H    5.761973   -3.531420   -2.435924
 H    7.996483   -2.959271   -1.765263
 H    7.210833   -3.495196   -0.292389
 H    8.117750   -0.733244   -1.104733
 H    6.537180   -0.778424   -0.301743
 H    8.821114    0.217497    2.252616
 H    7.422662    0.676109    1.231248
 H    9.064311    0.581144    0.522193
 H    9.254916   -3.074690    0.687939
 H    9.916730   -1.920812    1.876462
 H   10.077946   -1.593562    0.127015
 H    7.709539   -1.766951    2.932658
 H    6.287420   -1.308296    1.940550
 H    7.043434   -2.914027    1.744708
 H    1.053480   -0.965818   -0.864496
 H    0.264585   -2.675444    1.395876
 H    1.336132   -0.701602    2.322531
 H    0.253397    0.378147    1.432614
 H   -0.686102   -1.601514    3.584014
 H   -0.360314    0.107489    3.849971
 H   -3.957603   -0.869401    2.500997
 H   -2.977736   -1.758935    3.593554
 H   -1.994993   -3.089453    1.413157
 H   -3.007919   -3.138275   -1.224457
 H   -4.988362   -4.215429    0.060359
 H   -4.499593   -4.573527    2.262785
 H   -2.148120   -5.353879    0.417663
 H   -3.648916   -6.277554    0.607831
 H   -3.221004   -5.620941   -0.974379
 H   -4.898884   -2.573202   -2.084791
 H   -6.364442   -0.224554   -1.087839
 H   -6.939118   -2.117059   -3.439157
 H   -6.143183   -0.532629   -3.560694
 H   -7.837001   -0.645854   -3.037597
 H   -9.157208   -1.992775   -0.074085
