52 
5wyq_ligand_dft.xyz
 N   -2.381226    2.384942   -0.456851
 C   -2.862175    0.993108   -0.159746
 C   -4.369165    0.976554    0.028327
 O   -5.055276    0.009918   -0.159594
 O   -4.821619    2.168052    0.456589
 C   -2.122424    0.449684    1.078619
 C   -2.466188   -1.004446    1.376924
 S   -1.838454   -2.188697   -0.260380
 C   -3.327818   -3.212083    0.012250
 C   -0.289778   -2.522045    0.688443
 C    0.867447   -2.961598   -0.200244
 O    1.094961   -1.996187   -1.241821
 C    2.191845   -3.031157    0.561345
 O    3.067312   -3.844758   -0.165386
 C    2.653183   -1.571635    0.508163
 O    4.031965   -1.488404    0.664140
 C    2.147252   -1.151318   -0.893473
 N    1.633797    0.228351   -0.878226
 C    0.460811    0.660087   -1.403243
 N    0.227384    1.939444   -1.177036
 C    1.337939    2.371996   -0.469823
 C    1.727802    3.611273    0.073782
 N    0.969279    4.735262   -0.038808
 N    2.868879    3.673008    0.764844
 C    3.614330    2.570557    0.893289
 N    3.375873    1.356355    0.397623
 C    2.220436    1.316488   -0.274670
 H   -1.355393    2.339942   -0.786568
 H   -2.445287    2.972517    0.379020
 H   -2.941053    2.836469   -1.183833
 H   -2.630240    0.382742   -1.034839
 H   -5.781537    2.096489    0.597832
 H   -2.348808    1.113083    1.928249
 H   -1.046215    0.556257    0.878407
 H   -1.977302   -1.305239    2.309263
 H   -3.541111   -1.115272    1.536226
 H   -3.249457   -3.720587    0.975530
 H   -4.192239   -2.546117    0.014197
 H   -3.387078   -3.947010   -0.793359
 H   -0.060272   -1.597159    1.221415
 H   -0.518505   -3.293278    1.430766
 H    0.657635   -3.912580   -0.693312
 H    2.063573   -3.381029    1.595427
 H    3.967794   -3.577520    0.072498
 H    2.124585   -0.986847    1.274885
 H    4.253447   -0.539481    0.687829
 H    2.950392   -1.214217   -1.633090
 H   -0.198780   -0.020354   -1.922267
 H    1.425603    5.585387    0.266838
 H    0.399929    4.829936   -0.867186
 H    4.530913    2.685340    1.463821
 H   -1.382953   -3.205620   -1.183582
