38 
5wys_ligand_xtb.xyz
 C    0.843903   -1.606847    0.667713
 C   -1.667787   -1.546720   -0.598060
 C   -0.199118   -0.871514    1.199977
 C   -0.883747    1.782137   -0.777239
 C   -0.277202    2.222185    0.400225
 C    1.024662    1.884465    0.718865
 C    1.778358    1.098462   -0.140791
 C    1.228905    0.737734   -1.363847
 C   -0.077327    1.068832   -1.665378
 C    3.155383    0.627743    0.255522
 C    3.245834   -0.909505    0.331851
 O    4.078419    1.119264   -0.700781
 C    2.220437   -1.565187    1.268379
 C    0.594964   -2.362459   -0.474586
 C   -0.642160   -2.349161   -1.086186
 C   -1.435120   -0.795748    0.561672
 O   -2.886821   -1.511565   -1.177877
 C   -2.440947    0.116811    1.123004
 B   -2.431231    1.990529   -1.025110
 O   -3.211373    0.743162    0.185558
 O   -2.608820    0.340635    2.292243
 H   -0.062304   -0.296863    2.102792
 H   -0.848169    2.819413    1.098457
 H    1.452769    2.215986    1.655485
 H    1.825381    0.180046   -2.070573
 H   -0.496270    0.753072   -2.610623
 H    3.397571    1.043394    1.249093
 H    3.127862   -1.307171   -0.677363
 H    4.251973   -1.168198    0.677626
 H    4.961623    0.810875   -0.470514
 H    2.552995   -2.586687    1.471797
 H    2.193834   -1.023259    2.214860
 H    1.381569   -2.972643   -0.893767
 H   -0.815592   -2.949686   -1.969354
 H   -2.886388   -2.041874   -1.984581
 H   -3.869012    1.307150    0.622532
 H   -2.914239    2.973182   -0.584679
 H   -2.882912    1.571291   -2.025493
