45 
5wzt_ligand_dft.xyz
 O    5.485028   -2.122952   -0.975026
 C    5.527428   -2.182670    0.217593
 O    6.449059   -2.947461    0.850082
 C    4.574974   -1.453691    1.168748
 O    3.734144   -0.546923    0.531772
 C    2.589504   -0.985960   -0.064356
 C    2.286273   -2.309271   -0.341459
 C    1.030350   -2.655922   -0.870166
 C    0.055819   -1.708696   -1.120894
 C    0.392765   -0.378553   -0.854396
 C    1.643244    0.009906   -0.352964
 C    1.581486    1.432568   -0.119945
 C    2.637380    2.331639    0.338799
 O    2.446591    3.309475    1.049623
 C    4.057000    2.117535   -0.226302
 O    4.241532    1.639272   -1.325602
 N    5.026651    2.582385    0.609317
 C    0.309272    1.841356   -0.472702
 C   -0.298077    3.203381   -0.439802
 N   -0.390568    0.760683   -0.952013
 C   -1.776128    0.754563   -1.356887
 C   -2.738918    0.349718   -0.253525
 C   -4.067079    0.086487   -0.591985
 C   -4.973093   -0.259706    0.400042
Br   -6.774154   -0.615627   -0.073256
 C   -4.585341   -0.354709    1.732301
 C   -3.260091   -0.094945    2.060511
 C   -2.338675    0.255414    1.076923
 H    6.359325   -2.876713    1.810424
 H    5.167794   -0.859915    1.874038
 H    4.004283   -2.199509    1.744648
 H    3.018477   -3.091312   -0.180768
 H    0.823945   -3.702060   -1.072527
 H   -0.926221   -1.991412   -1.484574
 H    5.946590    2.707442    0.213145
 H    4.733092    3.224306    1.332219
 H    0.397457    3.901222    0.025221
 H   -0.539464    3.559407   -1.448318
 H   -1.222742    3.203235    0.149186
 H   -1.878892    0.077949   -2.211826
 H   -2.031546    1.753449   -1.722531
 H   -4.395670    0.149644   -1.625371
 H   -5.306802   -0.629391    2.493437
 H   -2.941544   -0.169116    3.095534
 H   -1.304654    0.446298    1.346886
