80 
5x02_ligand_dft.xyz
 N    8.930432    2.079657    2.415806
 C    8.120168    1.667534    1.696557
 C    7.109206    1.162788    0.812554
 C    5.969665    0.542395    1.329389
 C    4.977608    0.057992    0.489442
 C    7.249149    1.290318   -0.574077
 C    6.263501    0.808778   -1.415807
 C    5.115355    0.189779   -0.897938
 N    4.165353   -0.241491   -1.829785
 C    2.979833   -0.907084   -1.689951
 N    2.580340   -1.299730   -0.479070
 C    1.411797   -1.942309   -0.404701
 N    0.979274   -2.337532    0.812617
 C    1.752024   -2.175124    2.035969
 C    1.558905   -0.804070    2.687225
 C    0.140583   -0.572389    3.205164
 N    2.323107   -1.081153   -2.853666
 C    1.155690   -1.706351   -2.758704
 C    0.612248   -2.161946   -1.561786
 C   -0.701288   -2.694682   -1.435137
 C   -1.837112   -3.065966   -1.234970
 C   -3.192535   -3.518953   -0.918187
 C   -3.367384   -3.746060    0.593935
 C   -3.171192   -2.483421    1.429896
 N   -4.231168   -1.511999    1.200125
 C   -4.032658   -0.187994    1.079032
 O   -2.908883    0.320267    1.082982
 C   -5.324083    0.662433    1.032747
 C   -6.437191    0.097515    0.139747
 N   -4.998763    2.048510    0.723311
 C   -5.184322    3.038523    1.775664
 C   -4.312037    2.288101   -0.420413
 O   -4.165203    1.410721   -1.272266
 C   -3.666233    3.655269   -0.610052
 C   -2.516876    3.603514   -1.619463
 C   -1.243105    2.936272   -1.101103
 N   -1.310986    1.448375   -0.902631
 C   -0.154468    0.962958   -0.102374
 C   -1.422136    0.700838   -2.186650
 H    5.858946    0.436357    2.403415
 H    4.103552   -0.425290    0.898414
 H    8.131977    1.765629   -0.987453
 H    6.384696    0.912014   -2.490780
 H    4.371157   -0.044528   -2.799836
 H    0.151160   -2.913184    0.825210
 H    2.807593   -2.341152    1.803983
 H    1.437554   -2.965040    2.725330
 H    2.271384   -0.720129    3.516289
 H    1.837832   -0.031315    1.959769
 H    0.050098    0.410776    3.677917
 H   -0.605970   -0.621020    2.404361
 H   -0.126558   -1.323029    3.958034
 H    0.605220   -1.845592   -3.687147
 H   -3.920677   -2.777486   -1.270562
 H   -3.407514   -4.451345   -1.451621
 H   -2.646250   -4.497450    0.932663
 H   -4.363243   -4.167944    0.777924
 H   -2.229031   -1.992916    1.175165
 H   -3.136880   -2.737171    2.495861
 H   -5.180786   -1.851736    1.245687
 H   -5.689465    0.667398    2.066665
 H   -7.253162    0.822900    0.092396
 H   -6.858224   -0.826214    0.549743
 H   -6.070994   -0.083804   -0.870804
 H   -4.358024    3.024031    2.496898
 H   -5.280246    4.038277    1.352049
 H   -6.116595    2.826355    2.303902
 H   -4.429999    4.357325   -0.966165
 H   -3.301010    4.050820    0.343885
 H   -2.228293    4.631410   -1.862141
 H   -2.856720    3.146822   -2.551362
 H   -0.411223    3.108766   -1.790338
 H   -0.969916    3.362701   -0.131462
 H   -2.148090    1.204256   -0.341616
 H   -0.128514    1.500586    0.845759
 H    0.769982    1.121246   -0.661009
 H   -0.301242   -0.096947    0.095465
 H   -0.504668    0.855063   -2.758193
 H   -1.548446   -0.356528   -1.951987
 H   -2.298510    1.054771   -2.723060
