20 
5x13_ligand_xtb.xyz
 C   -3.482873   -0.213769    0.002597
 O   -3.917154    1.061857    0.050361
 O   -4.274353   -1.118689   -0.050518
 C   -2.026969   -0.450087    0.019991
 C   -1.062890    0.480235   -0.021450
 C    0.366483    0.244219   -0.013990
 C    1.234422    1.342916   -0.025859
 C    2.600670    1.179230   -0.015648
 C    3.147597   -0.102794    0.004095
 C    2.297435   -1.206196    0.013854
 C    0.930292   -1.034429    0.005447
 O    4.494638   -0.226578    0.012218
 H   -3.191702    1.696279    0.106357
 H   -1.787148   -1.501770    0.054057
 H   -1.321787    1.534824   -0.069486
 H    0.825332    2.343021   -0.041613
 H    3.267569    2.026373   -0.023253
 H    2.716797   -2.203682    0.027599
 H    0.294669   -1.905143    0.011181
 H    4.746232   -1.158574    0.024447
