20 
5x13_ligand_dft.xyz
 C   -3.499016   -0.201752   -0.040528
 O   -3.909507    1.011510    0.402833
 O   -4.297902   -0.987696   -0.480865
 C   -2.043997   -0.495550    0.032380
 C   -1.081424    0.437233   -0.001352
 C    0.367644    0.221114    0.002409
 C    1.221782    1.317721   -0.181999
 C    2.599412    1.174266   -0.191633
 C    3.160354   -0.090177   -0.009905
 C    2.329005   -1.197372    0.181982
 C    0.952297   -1.037949    0.187972
 O    4.511852   -0.182457   -0.025210
 H   -3.194813    1.439675    0.891569
 H   -1.817140   -1.556622    0.014101
 H   -1.372987    1.486515   -0.074044
 H    0.794470    2.306942   -0.326715
 H    3.255193    2.025547   -0.337795
 H    2.760697   -2.184678    0.329789
 H    0.328284   -1.911900    0.346577
 H    4.774430   -1.101549    0.106496
