47 
5x62_ligand_xtb.xyz
 N    2.885849    0.214584   -1.136009
 C    3.028536   -0.700559    0.021800
 C    2.431963   -2.082716   -0.272104
 C    0.919874   -2.154821   -0.108794
 S    0.011043   -1.076326   -1.293227
 C    4.542409   -0.831983    0.242395
 O    5.313672   -0.389491   -0.568144
 O    4.851874   -1.466349    1.344885
 C   -1.532593   -2.006121   -1.504903
 C   -2.592938   -1.687061   -0.450971
 O   -2.026774   -1.586664    0.849211
 C   -3.365059   -0.382443   -0.714252
 O   -4.561782   -0.699896   -1.364006
 C   -3.602760    0.178683    0.709321
 O   -4.792031   -0.294761    1.257896
 C   -2.399993   -0.384410    1.480341
 N   -1.250153    0.503021    1.465913
 C   -0.093510    0.212037    2.135110
 N    0.942747    0.888773    1.742802
 C    0.463806    1.710373    0.752989
 C    1.059710    2.597060   -0.141037
 N    2.452597    2.724108   -0.231029
 N    0.315966    3.221271   -1.036498
 C   -0.986696    2.975975   -1.070156
 N   -1.658158    2.113015   -0.334350
 C   -0.918603    1.479835    0.569194
 H    3.779119    0.144822   -1.661490
 H    2.770088    1.248789   -0.822589
 H    2.083057   -0.054773   -1.718125
 H    2.549536   -0.266337    0.909986
 H    2.713682   -2.390068   -1.281764
 H    2.865791   -2.796766    0.430756
 H    0.587153   -3.172377   -0.306184
 H    0.620266   -1.874480    0.899007
 H    5.812711   -1.558264    1.468839
 H   -1.265171   -3.061850   -1.481262
 H   -1.912984   -1.753176   -2.494185
 H   -3.320290   -2.512413   -0.452094
 H   -2.756810    0.323541   -1.294001
 H   -5.004008    0.109226   -1.648476
 H   -3.598128    1.274262    0.725240
 H   -5.259821   -0.811983    0.581665
 H   -2.658435   -0.605543    2.521608
 H   -0.068427   -0.525733    2.913590
 H    2.904022    2.766747    0.676630
 H    2.710978    3.509355   -0.821009
 H   -1.555509    3.529047   -1.802640
