39 
5x73_ligand_xtb.xyz
 F   -0.988207    2.733763   -1.930167
 C   -0.932451    2.635774   -0.578240
 C   -1.405151    3.685546    0.182465
 C   -1.354059    3.580376    1.562105
 C   -0.836424    2.439277    2.149898
 C   -0.364095    1.398186    1.368109
 C   -0.401064    1.480581   -0.016657
 C    0.070577    0.359302   -0.941823
 N   -1.053327   -0.247957   -1.622271
 C   -1.873721   -1.043106   -0.855880
 C   -3.217186   -1.245072   -1.161019
 C   -3.985023   -2.082492   -0.375940
 C   -3.431761   -2.731457    0.719831
 C   -2.094567   -2.555242    1.014002
 C   -1.306109   -1.716914    0.233681
 C    0.144556   -1.629070    0.491340
 O    0.721272   -2.364013    1.268738
 N    0.808727   -0.669941   -0.246174
 C    2.215204   -0.555579   -0.186173
 C    3.006780   -1.696889   -0.262369
 C    4.383636   -1.587351   -0.216304
 C    4.986021   -0.345295   -0.105938
 C    4.200060    0.791404   -0.035693
 C    2.820725    0.692084   -0.071743
 H   -1.801427    4.561147   -0.306673
 H   -1.717936    4.391342    2.173651
 H   -0.796051    2.356294    3.224784
 H    0.047264    0.518875    1.839430
 H    0.728940    0.788531   -1.710541
 H   -1.504349    0.337488   -2.310051
 H   -3.649206   -0.738075   -2.011952
 H   -5.028105   -2.226856   -0.616547
 H   -4.042270   -3.378728    1.330154
 H   -1.627396   -3.065328    1.842739
 H    2.539715   -2.664069   -0.349505
 H    4.989805   -2.478973   -0.274605
 H    6.062014   -0.263313   -0.072987
 H    4.659699    1.764614    0.055841
 H    2.219506    1.586192    0.005049
