78 
5x74_ligand_xtb.xyz
 F    4.238202    2.592077    2.051364
 C    4.364381    2.996261    0.768225
 C    4.331880    4.349045    0.489343
 C    4.437574    4.761735   -0.827556
 C    4.564352    3.825152   -1.841099
 C    4.599665    2.474587   -1.543480
 C    4.503908    2.034258   -0.226763
 C    4.612766    0.570541    0.123628
 N    5.580344   -0.049028   -0.750959
 C    5.815598   -1.385061   -0.512295
 C    7.020663   -2.007657   -0.822203
 C    7.183792   -3.354606   -0.565104
 C    6.154642   -4.099706   -0.002047
 C    4.946892   -3.496032    0.277237
 C    4.763214   -2.138043    0.023161
 C    3.432561   -1.539040    0.183591
 O    2.444546   -2.229779    0.397704
 N    3.352345   -0.181805    0.005595
 C    2.098220    0.566679   -0.013554
 C    1.070374    0.084221   -1.051585
 C    0.108691   -0.998350   -0.572614
 C    1.435159    0.725249    1.365604
 C    0.550497   -0.455854    1.733570
 N   -0.504874   -0.616400    0.713283
 C   -1.566373   -1.548755    1.144658
 C   -2.620409   -0.815008    1.982280
 N   -3.604951   -0.095810    1.190356
 C   -3.268082    1.067405    0.573113
 O   -2.080895    1.423626    0.502875
 C   -4.351611    1.888702    0.062316
 C   -4.078719    3.066348   -0.637602
 C   -5.105009    3.899455   -1.022405
 C   -6.417612    3.573668   -0.692650
 C   -6.708110    2.413967   -0.004493
 C   -5.680671    1.546822    0.366272
 N   -5.916183    0.397280    1.068679
 C   -4.946414   -0.660835    1.066563
 C   -5.013206   -1.559949   -0.167225
 C   -4.653691   -2.899143   -0.058039
 F   -4.242771   -3.362425    1.148012
 C   -4.684685   -3.769739   -1.129081
 C   -5.087079   -3.288866   -2.363455
 C   -5.445240   -1.958630   -2.504865
 C   -5.410051   -1.102024   -1.417247
 H    4.230282    5.054288    1.298286
 H    4.420530    5.814588   -1.060100
 H    4.642668    4.148016   -2.867169
 H    4.701369    1.742482   -2.329695
 H    4.941551    0.489969    1.183373
 H    6.392246    0.513863   -0.960117
 H    7.823166   -1.427608   -1.253392
 H    8.125235   -3.828817   -0.796999
 H    6.297851   -5.148520    0.203778
 H    4.120938   -4.056181    0.688174
 H    2.393820    1.567715   -0.339858
 H    1.595137   -0.283592   -1.932972
 H    0.483645    0.957058   -1.347561
 H    0.640417   -1.941272   -0.433723
 H   -0.681755   -1.123737   -1.316216
 H    0.826660    1.632759    1.348188
 H    2.202715    0.852295    2.128848
 H    1.137861   -1.376358    1.763346
 H    0.088800   -0.281478    2.706498
 H   -1.015722    0.335799    0.598130
 H   -2.042608   -1.977346    0.260477
 H   -1.121994   -2.362874    1.720333
 H   -3.150283   -1.540032    2.599620
 H   -2.128569   -0.096519    2.646773
 H   -3.049410    3.304757   -0.856355
 H   -4.894789    4.806114   -1.566062
 H   -7.221348    4.232559   -0.982850
 H   -7.727735    2.163658    0.246911
 H   -6.875857    0.122323    1.207221
 H   -5.130348   -1.283203    1.952838
 H   -4.404018   -4.800456   -0.984381
 H   -5.122273   -3.954642   -3.210869
 H   -5.759960   -1.583578   -3.465775
 H   -5.700267   -0.070112   -1.541583
