51 
5x79_ligand_xtb.xyz
 C    2.238835   -2.571153   -0.190246
 C    1.478223   -1.882195   -1.319662
 C   -0.050026   -1.883053   -1.151033
 C   -0.543807   -0.832467   -0.181829
 C   -1.886262    1.184483    0.127977
 C   -1.765360    2.516459   -0.599757
 C    0.976254    2.593975   -0.011441
 C    2.399644    2.865480   -0.448119
 C   -3.366012    0.804929    0.370307
 C   -4.769125   -0.770652    1.589351
 C   -5.141476   -1.634762    0.358498
 C    3.728656   -2.801720   -0.566217
 N    2.197669   -1.754493    1.045877
 N   -1.333355    0.110990   -0.679673
 N   -3.522406   -0.058595    1.381393
 O   -0.205593   -0.821352    1.009717
 O    3.457338    0.543573    0.268212
 O    3.039428    2.148606    2.051183
 O   -4.253762    1.218201   -0.345235
 O   -3.929192   -2.032004   -0.259051
 O   -5.971727   -0.981728   -0.527227
 O    4.368525   -3.093064    0.647911
 O    4.302102   -1.733151   -1.227161
 S   -0.166203    2.714875   -1.446668
 S    3.432865    1.938154    0.699804
 H    1.794233   -3.545102    0.033991
 H    1.719206   -2.407521   -2.243853
 H    1.843859   -0.859695   -1.426702
 H   -0.379655   -2.856978   -0.782178
 H   -0.510924   -1.721546   -2.124075
 H   -1.342293    1.195197    1.077114
 H   -2.518376    2.579919   -1.387154
 H   -1.911160    3.346461    0.090308
 H    0.655563    3.299525    0.754228
 H    0.913312    1.580444    0.388346
 H    2.669439    3.914936   -0.389273
 H    2.605885    2.475443   -1.442249
 H   -4.656919   -1.395410    2.472475
 H   -5.578411   -0.053579    1.750351
 H   -5.698482   -2.523696    0.690809
 H    3.799260   -3.647170   -1.266131
 H    2.720340   -0.863869    0.888511
 H    2.653587   -2.263553    1.807054
 H    1.178871   -1.483981    1.252213
 H   -1.651366    0.070571   -1.637111
 H   -2.700861   -0.449106    1.816422
 H   -4.168213   -2.529033   -1.050473
 H   -5.622556   -0.087687   -0.700065
 H    5.294660   -3.305147    0.485508
 H    4.237126   -0.919992   -0.698724
 H    4.739698    2.388190    0.543515
