30 
5x9o_ligand_xtb.xyz
 C   -2.733317   -1.510464   -0.315275
 C    2.319606    0.923315   -0.433972
 C   -3.660733    0.696424    0.028580
 C    3.718178   -0.846220    0.468291
 C    3.554405    0.329253   -0.290447
 C   -1.248393    0.374277    0.001080
 C    5.743503   -0.255218   -0.359763
 C    2.644569   -1.428022    1.111072
 C    1.401788   -0.829422    0.972585
 C   -1.463135   -0.994074   -0.232723
 C    1.228590    0.318320    0.196671
 C   -3.836629   -0.672227   -0.171987
 C   -2.388066    1.203229    0.107409
 N    5.054000   -1.174166    0.405580
 N    4.796380    0.663097   -0.775986
 N   -0.016549    0.937770    0.075921
 N   -5.158237   -1.206617   -0.249957
 O   -5.274278   -2.406466   -0.410874
 O    6.920558   -0.251120   -0.612760
 O   -6.090662   -0.432574   -0.152116
Cl   -2.166772    2.910776    0.340430
 H   -2.896606   -2.560848   -0.499947
 H    2.190726    1.823437   -1.014345
 H   -4.527806    1.332469    0.120168
 H    2.764328   -2.313325    1.714359
 H    0.557561   -1.240213    1.501995
 H   -0.611364   -1.637420   -0.379885
 H    5.494225   -1.962360    0.847824
 H    5.016304    1.452122   -1.358912
 H   -0.008533    1.948623    0.009408
