52 
5xgh_ligand_dft.xyz
 O   -6.456921    1.156913   -1.173135
 C   -6.329253   -0.158101   -0.684362
 C   -5.176871   -0.269933    0.305274
 N   -3.939598    0.172181   -0.333671
 C   -4.068049    1.521906   -0.878292
 C   -5.267482    1.566225   -1.815934
 C   -2.708650   -0.209906    0.153638
 C   -2.396972   -1.525421    0.577591
 C   -1.082366   -1.760214    1.006568
 N   -0.132261   -0.809726    1.034995
 C   -0.511357    0.378879    0.589510
 N   -1.745112    0.704974    0.163832
 C   -0.859400   -3.137159    1.361616
 C   -1.959663   -3.897694    1.169056
 S   -3.321660   -3.003895    0.564106
 C    0.509835    1.463392    0.559227
 C    0.151851    2.742027    0.144035
 C    1.821634    1.169876    0.936862
 C    2.795781    2.169716    0.905700
 C    2.438453    3.459663    0.483324
 C    1.128258    3.734860    0.108694
 O    0.740552    4.973692   -0.304858
 N    4.106654    1.933990    1.307238
 C    4.613925    0.605534    1.548925
 C    4.682680   -0.333271    0.350467
 C    4.886464   -1.698057    0.563846
 C    4.987228   -2.587129   -0.499570
 C    4.873191   -2.091543   -1.789867
 C    4.662909   -0.745577   -2.038617
 C    4.569635    0.128180   -0.959214
 F    4.963771   -2.942703   -2.825521
 H   -6.164146   -0.863140   -1.515496
 H   -7.273454   -0.405710   -0.192780
 H   -5.094904   -1.299723    0.652894
 H   -5.388519    0.363291    1.181347
 H   -3.155801    1.775001   -1.419104
 H   -4.192525    2.256270   -0.068318
 H   -5.435404    2.588946   -2.162159
 H   -5.071087    0.924230   -2.689955
 H    0.093645   -3.501943    1.722078
 H   -2.067358   -4.959799    1.344966
 H   -0.865516    2.968741   -0.147449
 H    2.057785    0.154626    1.227406
 H    3.189693    4.248464    0.464525
 H    1.497946    5.569417   -0.268126
 H    4.782996    2.596117    0.959031
 H    4.011435    0.137566    2.337226
 H    5.618382    0.722109    1.972062
 H    4.965128   -2.076726    1.580566
 H    5.144149   -3.648707   -0.342814
 H    4.566793   -0.396567   -3.060855
 H    4.385868    1.181889   -1.144718
