41 
5xig_ligand_dft.xyz
 C    4.758992    0.133599   -0.656149
 C    4.964622    1.498228   -0.651477
 C    3.960199    2.378496   -0.209428
 C    2.221511   -2.199346    0.196572
 C    3.531351   -0.387435   -0.217012
 O   -4.307715   -1.373767   -0.969959
 C    2.747368    1.884199    0.219623
 C    2.522204    0.496679    0.215298
 O    0.275423    0.646431    1.005597
 C    1.249737   -0.044017    0.644982
 N    3.349538   -1.759628   -0.216619
 N    1.159586   -1.420311    0.626167
 C   -0.075801   -2.079464    1.065877
 C   -1.034424   -2.395872   -0.086996
 C   -1.509661   -1.180848   -0.890330
 C   -2.409600   -0.237636   -0.085096
 N   -1.969749    1.190756   -0.265309
 C   -2.822468    2.197455    0.440565
 C   -3.914749   -0.394877   -0.387805
 C   -4.826537    0.683103    0.159247
 C   -4.258757    2.094303   -0.048391
 H    5.523654   -0.560568   -0.986408
 H    5.914982    1.899329   -0.988858
 H    4.145379    3.447403   -0.203283
 H    2.039490   -3.270905    0.229111
 H    1.963730    2.544404    0.575149
 H   -0.528519   -1.429094    1.815782
 H    0.206392   -3.006782    1.570399
 H   -1.901630   -2.926237    0.322605
 H   -0.545934   -3.092686   -0.776647
 H   -0.635751   -0.634545   -1.264983
 H   -2.067228   -1.533117   -1.761855
 H   -2.290419   -0.408333    0.991527
 H   -1.928370    1.411969   -1.264151
 H   -0.988564    1.207674    0.117542
 H   -2.386590    3.180351    0.251358
 H   -2.732055    1.980482    1.508617
 H   -5.808874    0.568760   -0.303230
 H   -4.946451    0.489773    1.234896
 H   -4.308300    2.369457   -1.109360
 H   -4.866153    2.826241    0.490149
