44 
5xij_ligand_dft.xyz
 C   -3.701900    0.306428    0.183541
 C   -2.694975   -0.532766   -0.330188
 C   -2.937432   -1.901902   -0.515097
 C   -4.171510   -2.427369   -0.189092
 O   -0.429553   -0.611840   -1.082198
 C   -1.391437    0.027098   -0.662368
 C   -5.176577   -1.593134    0.326723
 C   -4.949579   -0.242896    0.512728
 N   -3.501514    1.668544    0.370800
 C   -2.355571    2.136659    0.054320
 N   -1.290660    1.405450   -0.444608
 C   -0.042052    2.077300   -0.770798
 C    0.920487    2.190417    0.424835
 O    2.127603    2.821719   -0.008187
 C    1.323236    0.857871    1.054507
 C    2.163154   -0.038465    0.148745
 N    3.560382    0.523918    0.034256
 C    4.396478   -0.201957   -0.976180
 C    2.318447   -1.468454    0.657163
 O    2.977116   -1.329660    1.908441
 C    3.136545   -2.301597   -0.334591
 C    4.511215   -1.671399   -0.586272
 H   -2.145512   -2.523523   -0.918816
 H   -4.368079   -3.484423   -0.333775
 H   -6.144408   -2.014714    0.578985
 H   -5.715062    0.417321    0.905403
 H   -2.160660    3.201038    0.172111
 H    0.428194    1.533104   -1.591268
 H   -0.277731    3.083290   -1.133680
 H    0.443357    2.796815    1.206517
 H    1.962126    3.742609   -0.244331
 H    0.420143    0.307130    1.328407
 H    1.858802    1.049369    1.990124
 H    1.743385   -0.067776   -0.857146
 H    3.465040    1.529690   -0.175372
 H    3.989583    0.432549    0.962902
 H    3.895072   -0.073434   -1.939211
 H    5.369191    0.292286   -1.018066
 H    1.313760   -1.891552    0.772670
 H    3.055518   -2.192699    2.332627
 H    3.260005   -3.319491    0.049935
 H    2.569544   -2.384023   -1.269520
 H    5.130796   -1.757058    0.312852
 H    5.036972   -2.198637   -1.386779
