47 
5xo7_ligand_xtb.xyz
 C   -4.050961    0.353972    0.432121
 C   -2.713557    1.071001    0.645357
 C   -2.405325    2.046737   -0.488966
 C   -0.983016    2.593755   -0.406912
 C   -0.673229    3.547026   -1.557561
 O   -0.084550    1.469978   -0.446458
 C    1.135721    1.669486    0.044531
 O    1.464716    2.767693    0.486668
 C    2.037480    0.513844    0.039216
 C    3.321342    0.695750    0.616523
 O    3.741191    1.858210    1.118712
 C    4.221218   -0.364495    0.685996
 C    3.878412   -1.609103    0.193824
 O    4.725721   -2.662705    0.239267
 C    2.622994   -1.797184   -0.377878
 C    1.701130   -0.765994   -0.462214
 C    0.427165   -1.090336   -1.108517
 C   -0.219006   -2.229463   -0.873061
 C   -1.481671   -2.657561   -1.560540
 C   -2.694953   -1.841218   -1.098414
 C   -2.927454   -1.968636    0.404216
 C   -4.078196   -1.095764    0.932126
 O   -4.061237   -1.054111    2.346738
 H   -4.308471    0.347230   -0.627610
 H   -4.843489    0.888130    0.957364
 H   -2.726683    1.600397    1.598170
 H   -1.902371    0.347281    0.688536
 H   -3.100801    2.886821   -0.469386
 H   -2.517243    1.538118   -1.449256
 H   -0.827921    3.111951    0.548055
 H    0.337130    3.935773   -1.459348
 H   -1.370324    4.379738   -1.542333
 H   -0.761616    3.025682   -2.508433
 H    3.008625    2.516753    1.017683
 H    5.187366   -0.178402    1.131581
 H    5.557982   -2.397716    0.650786
 H    2.388895   -2.767584   -0.783166
 H    0.040210   -0.379201   -1.823068
 H    0.162032   -2.902707   -0.116695
 H   -1.658918   -3.716971   -1.367228
 H   -1.371709   -2.523344   -2.639665
 H   -3.585271   -2.173357   -1.637472
 H   -2.509672   -0.800128   -1.352389
 H   -2.012221   -1.697279    0.934413
 H   -3.146418   -3.013134    0.648818
 H   -5.034178   -1.538113    0.596285
 H   -4.000220   -1.953360    2.685854
