44 
5xp7_ligand_dft.xyz
 P   -0.232268   -2.203398   -0.580652
 O    0.308904   -0.907233   -1.036411
 O   -0.484045   -3.301767   -1.725295
 O    0.610351   -3.047453    0.459508
 P   -2.972781   -0.780133   -0.602147
 O   -4.405714   -0.797426   -0.255594
 O   -2.638940   -1.099313   -2.152451
 O   -2.210601    0.594363   -0.315030
 C   -2.744778    1.558844    0.606300
 C   -1.720965    2.657887    0.801906
 O   -0.607692    2.161307    1.559922
 C   -1.141433    3.250582   -0.486050
 O   -0.907933    4.622099   -0.276573
 C    0.193265    2.515737   -0.635087
 C    0.582274    2.323996    0.844928
 N    1.394934    1.126833    1.047188
 C    1.099322    0.049466    1.824433
 N    1.931517   -0.957412    1.668650
 C    2.831028   -0.503103    0.721113
 C    3.902954   -1.111504    0.045164
 N    4.315999   -2.369359    0.313795
 N    4.552316   -0.411567   -0.897266
 C    4.134308    0.824437   -1.176582
 N    3.122801    1.499186   -0.631444
 C    2.503940    0.781824    0.316240
 O    1.081578    3.324472   -1.353671
 C   -1.925346   -2.065136    0.175871
Cl   -1.878158   -1.766558    1.944773
 H   -0.773377   -2.857041   -2.535646
 H    1.089986   -2.436017    1.086017
 H   -3.392156   -0.862231   -2.712987
 H   -3.669564    1.977594    0.198489
 H   -2.963574    1.080120    1.564358
 H   -2.195677    3.459172    1.378463
 H   -1.799810    3.082215   -1.348705
 H   -0.114521    4.829837   -0.796422
 H    0.049408    1.528914   -1.091090
 H    1.146560    3.193509    1.204180
 H    0.240264    0.054622    2.476100
 H    4.969365   -2.787885   -0.330071
 H    3.725586   -2.979567    0.855993
 H    4.685906    1.342108   -1.956748
 H    1.954833    2.881197   -1.321200
 H   -2.426438   -3.026442    0.039015
