82 
5xpn_ligand_xtb.xyz
 O  -10.746721   -2.461457   -0.576023
 C   -9.552109   -1.883586   -0.271494
 C   -9.507320   -0.501174   -0.121525
 C   -8.315407    0.119556    0.193994
 C   -8.390920   -2.628464   -0.104897
 C   -7.201410   -1.995951    0.202645
 C   -7.150046   -0.617703    0.358069
 C   -5.833695    0.056939    0.673428
 O   -5.059136   -0.683426    1.601591
 C   -5.605947   -0.709584    2.892784
 C   -5.003793    0.203738   -0.608405
 C   -3.730704    1.012783   -0.375254
 C   -2.893974    1.098566   -1.649584
 C   -1.590204    1.909677   -1.525039
 C   -1.917796    3.366749   -1.196182
 C   -0.627773    1.271184   -0.510967
 C    0.772948    1.906020   -0.330527
 C    1.422144    2.232481   -1.676964
 C    0.831775    3.114594    0.607443
 C    2.276712    3.471402    0.958940
 C    3.046978    2.278989    1.537174
 C   -0.318026   -0.204441   -0.864686
 C    1.144092   -0.473694   -0.468789
 C    1.515115    0.740850    0.372559
 C    2.950266    1.082285    0.631880
 C    3.980141    0.397768    0.118924
 C    5.380708    0.669114    0.324762
 C    6.411786   -0.016818   -0.185032
 C    6.320900   -1.238953   -1.044896
 C    7.026484   -2.420489   -0.351385
 O    6.905292   -3.545296   -1.190337
 C    7.829563    0.359917    0.138757
 C    8.528641   -0.817484    0.847844
 O    7.902954   -1.135611    2.075351
 C    8.449276   -2.021066   -0.053963
 C    9.515372   -2.608558   -0.569578
 H  -10.636624   -3.416974   -0.651748
 H  -10.416199    0.064296   -0.251523
 H   -8.290232    1.193233    0.313908
 H   -8.420931   -3.704559   -0.218495
 H   -6.299255   -2.573682    0.337704
 H   -6.034334    1.059513    1.090971
 H   -5.705145    0.304765    3.301480
 H   -6.592259   -1.188709    2.906516
 H   -4.916078   -1.282124    3.510104
 H   -5.624136    0.681951   -1.369259
 H   -4.743853   -0.796542   -0.957712
 H   -3.165495    0.526756    0.418959
 H   -4.002306    2.014540   -0.038839
 H   -2.662016    0.085495   -1.980569
 H   -3.502697    1.559179   -2.432912
 H   -1.117143    1.886688   -2.512846
 H   -2.771179    3.698192   -1.784662
 H   -2.158795    3.485173   -0.143158
 H   -1.082211    4.018532   -1.433426
 H   -1.114268    1.303306    0.468890
 H    1.197843    1.467294   -2.413431
 H    2.503320    2.290308   -1.576996
 H    1.059353    3.185274   -2.055783
 H    0.286736    2.880843    1.526139
 H    0.359844    3.986679    0.155987
 H    2.792042    3.829950    0.066532
 H    2.278606    4.285814    1.687755
 H    2.608795    2.014268    2.505270
 H    4.080478    2.573741    1.712852
 H   -0.454671   -0.375917   -1.932536
 H   -0.996364   -0.872129   -0.335107
 H    1.772068   -0.534849   -1.356588
 H    1.255823   -1.403284    0.088231
 H    1.035653    0.616245    1.353095
 H    3.755651   -0.454134   -0.504679
 H    5.616312    1.525157    0.944555
 H    5.294179   -1.530123   -1.253469
 H    6.826470   -1.068277   -1.999526
 H    6.521914   -2.606839    0.611343
 H    7.353993   -4.286096   -0.769998
 H    8.383397    0.574962   -0.779156
 H    7.865045    1.247299    0.776669
 H    9.585253   -0.557292    1.029870
 H    7.726901   -0.317707    2.552772
 H   10.512916   -2.276936   -0.337030
 H    9.431818   -3.434866   -1.255017
