77 
5xpo_ligand_dft.xyz
 O   -4.250440    2.785467   -2.041674
 C   -4.109959    2.599814   -0.845695
 C   -2.781571    2.783445   -0.195607
 C   -1.642871    2.731370   -1.006285
 C   -0.372106    2.769048   -0.459434
 C   -0.214999    2.882087    0.928494
 O    0.996311    2.889921    1.518431
 C   -1.344740    2.990829    1.746485
 C   -2.610765    2.925790    1.186381
 C   -5.263557    2.055104   -0.013566
 C   -4.949702    0.672194    0.590743
 C   -4.265833   -0.275303   -0.396950
 C   -4.034124   -1.683859    0.181677
 C   -5.266904   -2.561324   -0.067902
 C   -2.755120   -2.393656   -0.318155
 C   -1.437499   -2.097372    0.441583
 C   -1.153250   -0.593622    0.561232
 C   -1.338521   -2.767648    1.818578
 C    0.097434   -2.743223    2.363438
 C    1.126492   -3.301972    1.358811
 C   -2.386905   -2.212275   -1.818979
 C   -0.837920   -2.302360   -1.903850
 C   -0.423868   -2.784838   -0.512599
 C    0.987552   -2.667536   -0.009081
 C    1.973152   -2.052630   -0.683495
 C    3.367038   -1.935484   -0.251267
 C    4.273089   -1.059048   -0.715612
 C    5.685163   -1.005090   -0.179528
 C    3.964917    0.101829   -1.621929
 C    3.868467    1.349333   -0.717849
 O    2.562897    1.424942   -0.150658
 C    4.943226    1.322986    0.367403
 C    4.811350    1.970377    1.522476
 C    6.140379    0.450011    0.066444
 O    6.807220    0.890140   -1.114407
 H   -1.779562    2.630948   -2.078428
 H    0.505779    2.680429   -1.091640
 H    1.666953    2.591028    0.871635
 H   -1.205609    3.099462    2.816838
 H   -3.476066    2.989786    1.840203
 H   -5.526160    2.760269    0.785311
 H   -6.118353    1.990982   -0.692596
 H   -5.884977    0.233709    0.960235
 H   -4.296316    0.786368    1.464504
 H   -3.314889    0.177190   -0.687638
 H   -4.859240   -0.342980   -1.319080
 H   -3.924755   -1.578023    1.271842
 H   -5.190609   -3.518889    0.459023
 H   -5.378298   -2.773241   -1.138364
 H   -6.184722   -2.065710    0.268412
 H   -2.928074   -3.468944   -0.162297
 H   -1.200290   -0.080962   -0.402634
 H   -1.875145   -0.105473    1.224983
 H   -0.155584   -0.401223    0.967251
 H   -2.013507   -2.285060    2.537018
 H   -1.668479   -3.812788    1.726405
 H    0.376900   -1.716960    2.628332
 H    0.150557   -3.325083    3.290634
 H    0.954249   -4.383311    1.252115
 H    2.131658   -3.180220    1.770743
 H   -2.865598   -2.984679   -2.428582
 H   -2.734094   -1.251717   -2.208911
 H   -0.495010   -2.980095   -2.691060
 H   -0.410478   -1.317357   -2.120605
 H   -0.668127   -3.860296   -0.466375
 H    1.726395   -1.614181   -1.648018
 H    3.705635   -2.639124    0.507854
 H    6.392763   -1.442953   -0.895255
 H    5.759328   -1.574845    0.752162
 H    3.022334    0.003812   -2.164059
 H    4.771934    0.243002   -2.346573
 H    3.960762    2.256215   -1.322761
 H    2.393700    0.577112    0.291026
 H    3.927701    2.555564    1.759544
 H    5.583579    1.920529    2.285997
 H    6.837465    0.473926    0.915641
 H    7.070061    1.808163   -0.972135
