77 
5xpo_ligand_xtb.xyz
 O   -4.312760    2.931360   -1.987562
 C   -4.149512    2.621318   -0.826604
 C   -2.835617    2.757405   -0.162753
 C   -1.695424    2.622116   -0.956604
 C   -0.437168    2.632819   -0.398270
 C   -0.285722    2.815669    0.975534
 O    0.926982    2.810605    1.563905
 C   -1.417452    3.014879    1.767040
 C   -2.675470    2.972832    1.205591
 C   -5.271014    2.002613   -0.013342
 C   -4.874741    0.661769    0.615934
 C   -4.190124   -0.257335   -0.395805
 C   -3.954893   -1.667597    0.165526
 C   -5.196261   -2.525828   -0.091450
 C   -2.704771   -2.397663   -0.368137
 C   -1.389391   -2.180060    0.414183
 C   -1.092296   -0.703426    0.670907
 C   -1.306558   -2.970305    1.722284
 C    0.120450   -2.984155    2.273893
 C    1.145967   -3.454251    1.231885
 C   -2.324399   -2.144945   -1.846200
 C   -0.784417   -2.177597   -1.917716
 C   -0.376297   -2.790385   -0.581641
 C    1.018891   -2.680330   -0.052262
 C    1.988972   -1.968355   -0.637666
 C    3.355073   -1.842898   -0.182231
 C    4.271404   -0.988192   -0.653319
 C    5.662229   -0.917052   -0.091302
 C    4.017673    0.128110   -1.619334
 C    3.837641    1.390521   -0.757439
 O    2.524756    1.432381   -0.228393
 C    4.883365    1.415540    0.343541
 C    4.724580    2.114780    1.455091
 C    6.098199    0.550784    0.097975
 O    6.802863    0.952025   -1.066585
 H   -1.824560    2.480977   -2.019904
 H    0.441235    2.490016   -1.010848
 H    1.599285    2.539986    0.908288
 H   -1.284582    3.188127    2.823623
 H   -3.537479    3.136389    1.834693
 H   -5.572393    2.704621    0.767465
 H   -6.118504    1.862414   -0.687720
 H   -5.774911    0.185070    1.009873
 H   -4.194042    0.830748    1.452701
 H   -3.245603    0.205755   -0.672812
 H   -4.804650   -0.322192   -1.296200
 H   -3.830322   -1.582270    1.250934
 H   -5.122422   -3.481622    0.423235
 H   -5.309092   -2.715576   -1.156643
 H   -6.091947   -2.020804    0.262373
 H   -2.923938   -3.467661   -0.270809
 H   -1.173878   -0.118001   -0.237828
 H   -1.784956   -0.294443    1.401901
 H   -0.082675   -0.575149    1.052233
 H   -1.977162   -2.542441    2.470767
 H   -1.627097   -3.999815    1.540410
 H    0.392210   -1.985358    2.618832
 H    0.165027   -3.649364    3.139383
 H    0.963988   -4.511949    1.015480
 H    2.144442   -3.369763    1.658619
 H   -2.755811   -2.920290   -2.479472
 H   -2.702019   -1.190693   -2.203971
 H   -0.425554   -2.767849   -2.760408
 H   -0.388428   -1.168245   -2.022414
 H   -0.605147   -3.863354   -0.638631
 H    1.744853   -1.442952   -1.550176
 H    3.670621   -2.530331    0.591819
 H    6.370433   -1.371427   -0.789615
 H    5.724341   -1.449482    0.858073
 H    3.127559   -0.017867   -2.229202
 H    4.881077    0.254653   -2.271683
 H    3.923954    2.294460   -1.373216
 H    2.338549    0.559869    0.147658
 H    3.844488    2.709161    1.632603
 H    5.466280    2.110652    2.235923
 H    6.771516    0.620429    0.966283
 H    7.075084    1.869918   -0.966376
