79 
5xpp_ligand_xtb.xyz
 O   10.770755   -2.798848   -0.153136
 C    9.679015   -1.990067   -0.232942
 C    8.620868   -2.388939   -1.044277
 C    7.499539   -1.592668   -1.155241
 C    9.593728   -0.790532    0.462403
 C    8.463883   -0.002450    0.347288
 C    7.407018   -0.391153   -0.463374
 C    6.168755    0.469339   -0.565647
 O    6.466566    1.850504   -0.486949
 C    5.204090    0.136607    0.580580
 C    3.869120    0.859634    0.422518
 C    2.941350    0.570855    1.600087
 C    1.585110    1.300685    1.558912
 C    1.811941    2.811732    1.615616
 C    0.751917    0.868650    0.341945
 C   -0.677689    1.443987    0.189620
 C   -1.449426    1.395345    1.509790
 C   -0.762998    2.837979   -0.437644
 C   -2.201189    3.180700   -0.828753
 C   -2.823706    2.121117   -1.745083
 C    0.533915   -0.664520    0.310686
 C   -0.869025   -0.916378   -0.268526
 C   -1.268503    0.440816   -0.833604
 C   -2.700068    0.748351   -1.145845
 C   -3.706799   -0.105268   -0.920591
 C   -5.102093    0.118712   -1.207262
 C   -6.110392   -0.741746   -1.006614
 C   -7.527909   -0.364955   -1.319568
 C   -6.002375   -2.089841   -0.357216
 C   -6.784050   -2.047722    0.972762
 O   -6.175425   -1.162427    1.887708
 C   -8.218202   -1.680988    0.660357
 C   -9.228937   -2.498896    0.901586
 C   -8.363191   -0.342961   -0.023749
 O   -9.685187   -0.007894   -0.370944
 H   11.422696   -2.409619    0.442029
 H    8.700697   -3.321757   -1.579060
 H    6.683058   -1.907397   -1.789026
 H   10.413022   -0.475793    1.095887
 H    8.398260    0.929433    0.889470
 H    5.664446    0.256942   -1.524475
 H    7.141772    2.056621   -1.141639
 H    5.050417   -0.944157    0.604541
 H    5.678309    0.437118    1.516094
 H    3.404920    0.534004   -0.509884
 H    4.067959    1.927975    0.350162
 H    2.775874   -0.506348    1.658320
 H    3.451272    0.865978    2.520825
 H    1.047828    1.006238    2.467069
 H    2.594739    3.042959    2.335051
 H    0.911582    3.331129    1.930298
 H    2.113080    3.198579    0.645961
 H    1.303722    1.164936   -0.555769
 H   -1.192613    2.247899    2.134171
 H   -1.221193    0.489921    2.063072
 H   -2.521361    1.412140    1.328538
 H   -0.132153    2.868418   -1.330263
 H   -0.399603    3.600969    0.249729
 H   -2.214393    4.146369   -1.339663
 H   -2.811145    3.278514    0.070643
 H   -3.860658    2.386419   -1.944974
 H   -2.290309    2.127398   -2.701333
 H    1.299217   -1.146382   -0.296962
 H    0.605235   -1.078777    1.316422
 H   -1.554665   -1.223775    0.519860
 H   -0.865405   -1.691339   -1.034650
 H   -0.705498    0.583714   -1.766192
 H   -3.461475   -1.066090   -0.492794
 H   -5.354583    1.071676   -1.653468
 H   -7.591087    0.614153   -1.794840
 H   -7.985090   -1.099090   -1.987584
 H   -6.451483   -2.851398   -0.998736
 H   -4.970341   -2.371223   -0.154572
 H   -6.757648   -3.027537    1.461345
 H   -5.903248   -0.371093    1.405439
 H  -10.241455   -2.257572    0.623741
 H   -9.079255   -3.453580    1.375687
 H   -7.951575    0.436417    0.644676
 H  -10.227736   -0.036249    0.424118
