35 
5xst_ligand_xtb.xyz
 C   -3.718770    2.114253    0.048194
 C   -3.506848    0.645000    0.021947
 C   -4.593052   -0.209481    0.021495
 C   -4.413805   -1.593648   -0.004039
 C   -3.187717   -2.209406   -0.026658
 C   -2.072838   -1.370049   -0.025040
 C   -0.171427   -0.450809   -0.035307
 C    1.237150   -0.303226   -0.048344
 C    2.190341   -1.293801   -0.049272
 C    3.497162   -0.782384   -0.052624
 C    3.548363    0.587814   -0.060459
 C    4.806138    1.397682   -0.014599
 C    5.998562    0.491270   -0.305094
 C    4.748022   -1.607472   -0.038310
 C   -2.228592    0.061933   -0.003404
 F   -5.532210   -2.374510   -0.006054
 N   -2.570243    2.824591    0.031536
 N   -0.756967   -1.662836   -0.043213
 N    5.855859   -0.759677    0.491956
 N   -0.998685    0.616858   -0.011039
 O   -4.820809    2.637703    0.081311
 S    1.954583    1.279069   -0.048430
 H   -5.589592    0.203892    0.040433
 H   -3.092753   -3.283328   -0.045900
 H    1.926443   -2.333090   -0.051847
 H    4.922174    1.872218    0.966687
 H    4.768976    2.201206   -0.751674
 H    6.938778    0.979881   -0.043980
 H    6.018578    0.214933   -1.360265
 H    5.022269   -1.942650   -1.043266
 H    4.622065   -2.486995    0.596752
 H   -2.611786    3.828890    0.045815
 H   -1.685684    2.324659    0.008477
 H    5.602980   -0.489633    1.450264
 H    6.734696   -1.284723    0.511793
