35 
5xsu_ligand_xtb.xyz
 C   -3.626189    2.124241    0.024813
 C   -3.366668    0.663061    0.017511
 C   -4.424107   -0.227337    0.038051
 C   -4.197770   -1.603992    0.029738
 C   -2.950898   -2.177295    0.000219
 C   -1.865972   -1.300626   -0.022249
 C    0.004574   -0.319171   -0.058525
 C    1.411081   -0.100020   -0.075786
 C    2.120307    1.088786   -0.020648
 C    3.480387    0.731982   -0.058123
 C    3.512567   -0.636276   -0.136480
 C    4.739568   -1.479639   -0.115998
 C    5.944583    0.667565   -0.215716
 C    4.727418    1.555883    0.040734
 C   -2.068979    0.123934   -0.012083
 F   -5.288779   -2.424024    0.052754
 N   -2.499050    2.868202   -0.004200
 N   -0.540065   -1.546706   -0.052134
 N    5.795877   -0.628560    0.514036
 N   -0.858277    0.722964   -0.034084
 O   -4.743529    2.615189    0.054492
 O    2.264586   -1.149551   -0.136710
 H   -5.433829    0.152584    0.060444
 H   -2.820075   -3.247646   -0.006004
 H    1.695127    2.066485    0.041228
 H    5.084461   -1.761740   -1.117482
 H    4.577416   -2.391932    0.463481
 H    6.861946    1.156919    0.116432
 H    6.027507    0.438977   -1.279213
 H    4.790789    2.014949    1.032141
 H    4.711677    2.366801   -0.688222
 H   -2.570570    3.870907   -0.008713
 H   -1.602504    2.387764   -0.030435
 H    6.689605   -1.127568    0.549732
 H    5.490192   -0.413265    1.471495
