63 
5xw6_ligand_xtb.xyz
 P    5.622066   -2.136819   -0.047215
 O    5.641431   -1.293825    1.142207
 O    7.046584   -2.506251   -0.583882
 O    4.884384   -3.513897    0.022118
 P    4.415542    0.082033   -1.276626
 O    5.276979    1.036035   -0.603854
 O    4.088466    0.319617   -2.780306
 O    4.932217   -1.415646   -1.336167
 P    2.752817   -0.672796    0.871062
 O    3.618359    0.154122    1.866960
 O    2.867660   -2.135897    0.919823
 O    2.962414   -0.072158   -0.591534
 O    1.278858   -0.144955    1.110470
 C    0.540612   -0.773792    2.153314
 C   -0.935233   -0.381139    2.045377
 O   -1.158077    0.954111    2.467499
 C   -1.462851   -0.478677    0.598752
 O   -2.685039   -1.189097    0.509360
 C   -1.818777    0.965944    0.215090
 O   -3.239483    0.986451    0.207074
 C   -1.266172    1.808667    1.369202
 N    0.016722    2.391332    1.033781
 C    0.827558    3.011575    1.955660
 N    1.979518    3.367658    1.491120
 C    1.976900    2.956741    0.184599
 C    2.952884    2.988015   -0.828114
 N    4.133585    3.600928   -0.665294
 N    2.640169    2.437679   -2.012809
 C    1.426906    1.925221   -2.183069
 N    0.441285    1.839180   -1.318080
 C    0.754054    2.334896   -0.114627
 C   -3.693611   -0.325726    0.069247
 C   -4.986874   -0.484350    0.852873
 C   -6.188858   -0.329910    0.283554
 C   -6.307504   -0.041365   -1.123035
 C   -5.255046   -0.107081   -1.953129
 C   -3.966424   -0.634794   -1.457380
 N   -4.899702   -0.690971    2.283661
 N   -7.613497    0.370423   -1.626132
 N   -3.979543   -2.152807   -1.564035
 O   -3.834868   -0.499587    2.816205
 O   -5.913258   -1.036767    2.840021
 O   -7.690395    0.605041   -2.807385
 O   -8.511194    0.448917   -0.826788
 O   -4.964097   -2.707433   -1.168119
 O   -2.989989   -2.649851   -2.011722
 H    7.033872   -3.158386   -1.286055
 H    4.005166   -3.360360    0.415331
 H    3.676836    1.206277   -2.868495
 H    4.543253   -0.167820    1.855746
 H    0.655709   -1.857467    2.070175
 H    0.924409   -0.442241    3.121431
 H   -1.526504   -1.015463    2.713118
 H   -0.728392   -0.940785   -0.063396
 H   -1.415735    1.286759   -0.750663
 H   -1.963795    2.610447    1.648144
 H    0.499884    3.168881    2.963860
 H    4.393749    3.789833    0.290206
 H    4.880239    3.341012   -1.290014
 H    1.222877    1.524973   -3.167808
 H   -7.091890   -0.385463    0.879113
 H   -5.359381    0.141071   -3.000246
 H   -3.109422   -0.288289   -2.039963
