80 
5y0z_ligand_dft.xyz
 C    6.202528    0.056579    0.013371
 C    7.141245   -0.667950   -0.961974
 C    6.295067    1.586275   -0.221633
 C    5.769730    2.078687   -1.568853
 C    4.750034   -0.409123   -0.132126
 C    3.756455    0.171963    0.669670
 C    2.407137   -0.164160    0.617323
 C    1.376807    0.486301    1.559807
 C    2.014626    1.595316    2.415582
 O   -2.542917    3.036891    0.384765
 C   -3.255349    2.385318   -0.366865
 N   -3.911292    1.227408    0.128975
 C   -3.754651    1.039780    1.582767
 C   -3.507803    2.687955   -1.758100
 C   -4.356115    1.939101   -2.504547
 C   -4.997492    0.798575   -1.943109
 C   -4.764838    0.465159   -0.646839
 C   -5.285270   -0.833438   -0.062461
 C   -5.506334   -0.735517    1.446850
 C   -4.161657   -0.350243    2.065594
 C   -3.098309   -1.407205    1.757522
 C   -4.269856   -1.949446   -0.358094
 N   -2.956802   -1.613294    0.279425
 C   -1.854905   -2.544374   -0.095798
 C   -1.253961   -2.085932   -1.455206
 O   -1.544315   -0.715859   -1.660407
 C    0.253727   -2.304309   -1.451589
 O    0.714257   -1.466505   -0.419354
 C    2.056591   -1.151969   -0.323513
 C    0.835613   -0.580573    2.532341
 C    0.180162    1.121779    0.797584
 C    0.534779    1.883850   -0.477321
 C    3.008540   -1.766686   -1.120025
 C    4.348464   -1.393754   -1.023864
 C    6.683870   -0.249677    1.445391
 H    7.171859   -1.745060   -0.763998
 H    8.159447   -0.283784   -0.841612
 H    6.855501   -0.521948   -2.008369
 H    7.347794    1.875426   -0.108982
 H    5.757268    2.105695    0.582031
 H    6.319270    1.638537   -2.407011
 H    5.874283    3.165348   -1.645078
 H    4.709881    1.832818   -1.696418
 H    4.065574    0.937276    1.369986
 H    1.257987    2.015134    3.086024
 H    2.825589    1.213019    3.042875
 H    2.408760    2.414717    1.806086
 H   -4.356270    1.801430    2.089788
 H   -2.712035    1.261047    1.821071
 H   -3.004473    3.563612   -2.150068
 H   -4.547572    2.199280   -3.540817
 H   -5.652661    0.178970   -2.544771
 H   -6.212614   -1.096299   -0.577900
 H   -5.870958   -1.689389    1.843756
 H   -6.259495    0.024452    1.674651
 H   -4.240173   -0.303401    3.156231
 H   -3.358992   -2.377536    2.191481
 H   -2.116453   -1.104747    2.131552
 H   -4.093146   -2.051404   -1.430758
 H   -4.596206   -2.909861    0.053183
 H   -2.652005   -0.723286   -0.162836
 H   -2.241288   -3.565040   -0.130263
 H   -1.097788   -2.469742    0.685687
 H   -1.712299   -2.637498   -2.280348
 H   -0.771497   -0.201586   -1.371231
 H    0.663360   -2.003953   -2.423726
 H    0.507575   -3.357550   -1.269353
 H    0.401356   -1.428829    1.993700
 H    0.066390   -0.142440    3.182388
 H    1.632859   -0.968251    3.174140
 H   -0.327950    1.812221    1.480461
 H   -0.558313    0.341108    0.569293
 H    0.932276    1.223324   -1.258203
 H    1.305429    2.636590   -0.284861
 H   -0.343808    2.409734   -0.861285
 H    2.731095   -2.543537   -1.824220
 H    5.065075   -1.891254   -1.666966
 H    6.084413    0.274459    2.197372
 H    7.725284    0.066495    1.572068
 H    6.625126   -1.323014    1.655119
