38 
5y13_ligand_xtb.xyz
 O   -0.055437    3.033803    0.756338
 C   -1.210589    3.164966    0.075884
 O   -1.215175    3.131239   -1.119004
 C   -2.449062    3.327635    0.936406
 C   -2.703760    2.061245    1.764583
 C   -3.054026    0.860769    0.874774
 C   -2.464579   -0.437643    1.434698
 N   -2.696289   -1.619244    0.633321
 S   -2.151056   -1.603562   -0.971491
 O   -2.150160   -2.974239   -1.384296
 O   -2.927268   -0.684999   -1.756627
 C   -0.493194   -0.956421   -0.805986
 C    0.467967   -1.623926   -0.019037
 C    0.203162   -2.856794    0.609388
 C    1.163419   -3.468096    1.368551
 C    2.422212   -2.873804    1.536714
 C    2.709670   -1.677518    0.939347
 C    1.749620   -1.019586    0.145554
 C    1.981629    0.217502   -0.503908
Br    3.648894    1.098191   -0.283528
 C    1.039614    0.821027   -1.291761
 C   -0.216460    0.219618   -1.441436
 H   -0.174146    3.128223    1.710523
 H   -3.297247    3.519824    0.279841
 H   -2.314027    4.188857    1.596771
 H   -3.512382    2.255743    2.470691
 H   -1.813419    1.821538    2.354737
 H   -2.661503    1.011193   -0.130728
 H   -4.136314    0.759193    0.781898
 H   -2.864790   -0.634890    2.434129
 H   -1.378186   -0.334389    1.522355
 H   -3.667242   -1.899824    0.615809
 H   -0.764233   -3.305313    0.457639
 H    0.957579   -4.416638    1.840414
 H    3.170306   -3.368415    2.137651
 H    3.683205   -1.228004    1.066456
 H    1.237941    1.764274   -1.774695
 H   -0.975340    0.693384   -2.043319
