20 
5y1y_ligand_xtb.xyz
 C    1.184562   -0.340664   -0.006489
 N    2.520700    0.174172   -0.018675
 O    3.412289   -0.581767    0.315415
 C    1.044141   -1.716329   -0.011129
 N   -2.397267    0.535416    0.011413
 O    2.705522    1.324518   -0.367899
 C   -0.200564   -2.331706   -0.028190
 O   -2.561561   -2.095412   -0.053021
 C   -1.343420   -1.557436   -0.029987
 C   -1.229713   -0.134981   -0.005204
 C   -2.370243    1.839807    0.048191
 C   -1.176521    2.575227    0.084415
 C    0.023911    1.912559    0.064326
 C    0.038188    0.501400    0.004534
 H    1.940834   -2.318368   -0.013036
 H   -0.286018   -3.405525   -0.045210
 H   -3.200293   -1.356283   -0.043129
 H   -3.332308    2.334652    0.057388
 H   -1.210618    3.652109    0.129585
 H    0.952334    2.460324    0.086484
