123 
5y20_ligand_dft.xyz
 N    0.925056    5.107472    1.606505
 C   -0.367252    4.759848    2.282361
 C   -1.463386    4.410950    1.252644
 O   -2.588801    4.873647    1.371092
 C   -0.796329    5.899805    3.188850
 N   -1.101080    3.575033    0.251471
 C   -2.134579    2.965538   -0.557758
 C   -2.719529    1.782971    0.234266
 O   -2.112787    1.249374    1.150012
 C   -1.580952    2.494417   -1.913483
 C   -1.469142    3.562158   -3.007291
 C   -0.595995    4.776923   -2.678231
 N   -1.321785    5.786587   -1.927290
 C   -0.779842    6.537928   -0.932909
 N   -1.682930    7.298401   -0.241419
 N    0.480680    6.561742   -0.588228
 N   -3.944000    1.346426   -0.166484
 C   -4.601073    0.262079    0.528371
 C   -3.939636   -1.101296    0.295155
 O   -4.179894   -2.036824    1.060645
 C   -6.082808    0.210054    0.145182
 O   -6.095565    0.087244   -1.270456
 C   -6.865372    1.425616    0.626122
 N   -3.123633   -1.189119   -0.765516
 C   -2.165998   -2.252887   -0.969961
 C   -2.638533   -3.296676   -2.002335
 C   -4.017844   -3.881040   -1.692977
 C   -4.046342   -4.750464   -0.422658
 C   -5.448390   -4.725005    0.162713
 N   -5.619173   -5.420304    1.503587
 C   -0.891876   -1.575204   -1.487523
 O   -0.969390   -0.670697   -2.313540
 C   -4.654275   -4.869160    2.513781
 C   -5.425294   -6.896582    1.369625
 C   -7.012853   -5.152665    1.980529
 N    0.265424   -2.056329   -1.006306
 C    1.568698   -1.618904   -1.456147
 C    2.573429   -2.548310   -0.762010
 O    2.244994   -3.203206    0.216620
 C    1.878513   -0.140539   -1.133321
 C    1.668959    0.219386    0.346744
 C    2.252516    1.584712    0.640865
 O    1.551832    2.614734    0.597934
 N    3.557035    1.629825    0.915636
 N    3.817773   -2.578677   -1.304366
 C    4.936732   -3.040300   -0.514412
 C    5.467800   -1.866780    0.334114
 O    4.855146   -0.798191    0.371756
 C    5.991063   -3.720813   -1.408558
 O    6.888999   -4.363004   -0.509889
 C    6.716455   -2.765379   -2.348924
 N    6.586278   -2.098721    1.034096
 C    7.245732   -1.041365    1.765149
 C    7.841217   -0.021466    0.794968
 O    8.172450    1.108423    1.435767
 C    8.336902   -1.617608    2.670612
 O    8.023680   -0.195659   -0.384163
 H    1.565733    5.525217    2.283217
 H    1.378687    4.257677    1.216640
 H    0.773293    5.821520    0.775559
 H   -0.181292    3.851815    2.867102
 H   -0.924933    6.823299    2.617973
 H   -0.056257    6.068293    3.977538
 H   -1.752655    5.661232    3.654390
 H   -0.244060    3.029595    0.359539
 H   -2.920688    3.712385   -0.703520
 H   -0.603352    2.027697   -1.743830
 H   -2.213807    1.690417   -2.302134
 H   -1.052456    3.076420   -3.895857
 H   -2.471653    3.905851   -3.296067
 H    0.252691    4.453533   -2.067687
 H   -0.192312    5.208799   -3.602522
 H   -2.192463    6.118804   -2.317347
 H   -1.273933    7.931495    0.429773
 H   -2.541399    6.852850    0.056017
 H    1.077482    6.180707   -1.317786
 H   -4.421137    1.760787   -0.955060
 H   -4.516106    0.426873    1.606886
 H   -6.494934   -0.695747    0.613407
 H   -7.004471    0.179666   -1.581353
 H   -7.918502    1.340204    0.337222
 H   -6.467915    2.351590    0.200056
 H   -6.826582    1.505512    1.716478
 H   -2.989429   -0.372704   -1.348074
 H   -1.985607   -2.722240    0.002019
 H   -1.884802   -4.091620   -2.066142
 H   -2.672722   -2.807230   -2.981464
 H   -4.723385   -3.047540   -1.593014
 H   -4.356297   -4.471154   -2.551071
 H   -3.356316   -4.330681    0.311052
 H   -3.718633   -5.767688   -0.662436
 H   -6.176860   -5.184920   -0.512150
 H   -5.725661   -3.684255    0.341967
 H   -3.655268   -5.243297    2.294784
 H   -4.960249   -5.210934    3.503579
 H   -4.659848   -3.779584    2.448671
 H   -5.570957   -7.362774    2.345279
 H   -4.414557   -7.096473    1.016117
 H   -6.153718   -7.287744    0.657595
 H   -7.179984   -5.686728    2.916913
 H   -7.721229   -5.497336    1.225916
 H   -7.127835   -4.079854    2.139699
 H    0.293560   -2.745988   -0.262590
 H    1.637451   -1.746358   -2.543556
 H    2.919640    0.056197   -1.410378
 H    1.241099    0.481503   -1.765912
 H    0.602881    0.252035    0.587571
 H    2.151177   -0.527849    0.984801
 H    4.142116    0.794856    0.862958
 H    4.000729    2.528566    1.035466
 H    4.028113   -1.867434   -1.991641
 H    4.551327   -3.797629    0.174769
 H    5.450705   -4.478525   -1.991311
 H    7.612687   -4.749624   -1.018244
 H    7.447064   -3.314659   -2.952591
 H    6.020476   -2.300612   -3.056283
 H    7.241078   -1.979735   -1.795944
 H    7.090760   -2.955198    0.817469
 H    6.502471   -0.519779    2.375362
 H    8.615572    1.685699    0.792249
 H    9.104489   -2.128323    2.079854
 H    8.816347   -0.818554    3.239221
 H    7.899522   -2.333044    3.371511
