32 
5y6d_ligand_dft.xyz
 C   -0.686134    1.017496    0.377738
 C   -1.992671    0.257814    0.250775
 C   -3.008567    0.439969    1.187973
 C   -4.201058   -0.269281    1.093723
 C   -4.359974   -1.166020    0.048835
 C   -3.370811   -1.368304   -0.902694
 C   -2.187261   -0.648206   -0.796370
 F   -5.503636   -1.856880   -0.047629
 N    0.406118    0.098350    0.616859
 C    1.673020    0.572610    0.772824
 O    1.901961    1.771833    0.819461
 C    2.777558   -0.476978    0.819743
 C    3.468292   -0.425155   -0.555382
 S    4.701020   -1.737301   -0.856722
 C    3.729209   -0.186487    1.978280
 C   -0.466262    1.887797   -0.863204
 O   -0.930948    2.989037   -0.996329
 O    0.239936    1.261150   -1.825237
 H   -0.750348    1.729055    1.205411
 H   -2.870437    1.146026    2.001411
 H   -4.998795   -0.137669    1.816026
 H   -3.537168   -2.073676   -1.709227
 H   -1.411001   -0.781542   -1.545259
 H    0.238009   -0.889465    0.505997
 H    2.340438   -1.475012    0.948280
 H    2.723943   -0.550726   -1.347856
 H    3.927915    0.556065   -0.700276
 H    5.672050   -1.244055   -0.069838
 H    4.525956   -0.934872    2.020440
 H    3.197377   -0.210622    2.934171
 H    4.171222    0.807487    1.862823
 H    0.304789    1.891600   -2.560511
