32 
5y6d_ligand_xtb.xyz
 C   -0.666844    1.112626    0.436013
 C   -1.855487    0.189013    0.240801
 C   -2.562272   -0.288973    1.335850
 C   -3.647090   -1.128689    1.158695
 C   -4.012329   -1.482641   -0.127453
 C   -3.325584   -1.019588   -1.235440
 C   -2.245881   -0.177760   -1.042251
 F   -5.067044   -2.300442   -0.308744
 N    0.536528    0.588713   -0.164092
 C    1.587120    0.175636    0.583150
 O    1.586435    0.212398    1.793537
 C    2.744151   -0.376958   -0.246062
 C    4.036464   -0.199093    0.545380
 S    5.523679   -0.700162   -0.385006
 C    2.447960   -1.847827   -0.548999
 C   -1.062456    2.464257   -0.144809
 O   -1.761024    3.263374    0.409672
 O   -0.588089    2.643834   -1.384274
 H   -0.463760    1.232503    1.505881
 H   -2.261977   -0.004575    2.332136
 H   -4.206767   -1.507633    1.998726
 H   -3.640573   -1.312924   -2.224218
 H   -1.709156    0.199650   -1.900281
 H    0.582738    0.567467   -1.169726
 H    2.822206    0.179045   -1.186079
 H    4.190326    0.854998    0.775973
 H    4.000527   -0.757256    1.478881
 H    5.390222   -2.011066   -0.200751
 H    3.221511   -2.265623   -1.189736
 H    1.491115   -1.948870   -1.056720
 H    2.406529   -2.418376    0.376557
 H   -0.879199    3.501384   -1.733923
