62 
5y6k_ligand_xtb.xyz
 O   -0.271091   -0.317334    2.169090
 C   -1.333284   -0.046489    1.634568
 O   -2.097451   -1.094130    1.240541
 C   -3.236762   -0.915328    0.526155
 C   -3.906962   -2.060920    0.127692
 C   -5.076808   -1.961730   -0.623844
 N   -5.723323   -3.071527   -1.061582
 C   -5.536634   -0.677880   -0.977282
 C   -4.865544    0.447089   -0.583475
 C   -3.691998    0.370041    0.188104
 C   -2.942828    1.507948    0.644177
 C   -3.455417    2.868473    0.293455
 C   -1.804052    1.296754    1.366648
 C   -0.900443    2.371963    1.915331
 C    0.290565    2.565066    0.997068
 O    1.252966    1.803091    1.025912
 N    0.252588    3.601104    0.153593
 C    1.398711    3.975222   -0.656644
 C    1.420850    3.332577   -2.047604
 C    1.457524    1.803262   -2.034301
 C    2.762888    1.227338   -1.476718
 C    2.649612   -0.277542   -1.192157
 C    4.047818   -0.911381   -1.274578
 O    5.000084   -0.512246   -0.666229
 O    4.060335   -1.902051   -2.146205
 N    1.994459   -0.534764    0.129671
 C    1.135852   -1.731987    0.103829
 C   -0.117971   -1.507718   -0.720875
 O   -0.719912   -2.646187   -0.999303
 O   -0.517249   -0.421446   -1.051615
 C    2.897674   -0.536260    1.299164
 C    3.765515   -1.778519    1.432399
 O    3.737771   -2.720571    0.686260
 O    4.545207   -1.678627    2.488350
 H   -3.519688   -3.022946    0.425715
 H   -5.494038   -3.962996   -0.657534
 H   -6.643653   -2.973747   -1.453864
 H   -6.437182   -0.591296   -1.565621
 H   -5.250664    1.410357   -0.873455
 H   -3.389079    3.020002   -0.783340
 H   -2.903397    3.659556    0.788557
 H   -4.500834    2.956270    0.582480
 H   -0.500173    2.009620    2.865608
 H   -1.428517    3.307725    2.079339
 H   -0.563906    4.189167    0.111479
 H    2.293378    3.690822   -0.098627
 H    1.392632    5.060880   -0.766195
 H    0.531963    3.648824   -2.596324
 H    2.293879    3.718143   -2.575740
 H    1.329602    1.450348   -3.059245
 H    0.606412    1.437566   -1.462391
 H    3.046310    1.734852   -0.556497
 H    3.565039    1.390248   -2.198652
 H    2.035062   -0.747180   -1.964744
 H    4.935841   -2.318936   -2.215337
 H    1.397596    0.320394    0.346336
 H    0.785447   -1.928349    1.125477
 H    1.685643   -2.603595   -0.256451
 H   -1.568552   -2.513175   -1.454897
 H    2.278069   -0.433437    2.195989
 H    3.555522    0.334319    1.254215
 H    5.126086   -2.451001    2.590851
