40 
5y8c_ligand_dft.xyz
 C   -0.648998   -0.949931   -3.133138
 O   -0.322599   -1.399963   -1.835852
 C    0.849650   -0.989422   -1.294931
 C    1.826460   -0.295394   -1.992578
 C    2.967911    0.041884   -1.265524
 O    4.034156    0.716606   -1.725277
 N    4.958273    0.843094   -0.680838
 C    4.449989    0.257071    0.365565
 C    5.191416    0.216804    1.659434
 C    3.155468   -0.291529    0.068250
 C    2.171490   -1.008882    0.755947
 C    1.018364   -1.345147    0.075791
 N   -0.033247   -2.025542    0.753100
 S   -0.962255   -1.131297    1.833143
 O   -0.044260   -0.430114    2.712266
 O   -1.964830   -2.036012    2.353253
 C   -1.741355    0.115787    0.811536
 C   -1.364942    1.438127    0.990965
 C   -1.934868    2.422450    0.191332
Cl   -1.467326    4.089548    0.408328
 C   -2.869989    2.086869   -0.776802
 C   -3.239453    0.757074   -0.962456
 C   -2.674078   -0.246073   -0.175341
 O   -2.939133   -1.559735   -0.308158
 C   -3.966163   -1.961248   -1.189828
 H   -0.673093    0.145600   -3.172683
 H    0.056724   -1.333355   -3.879638
 H   -1.643120   -1.344140   -3.345690
 H    1.724911   -0.014997   -3.032593
 H    6.148431    0.732981    1.561778
 H    4.606663    0.697668    2.450214
 H    5.376123   -0.818577    1.963726
 H    2.274548   -1.285343    1.798423
 H   -0.654659   -2.544813    0.137265
 H   -0.633331    1.682270    1.752672
 H   -3.313476    2.861411   -1.393090
 H   -3.969881    0.516690   -1.725752
 H   -4.921607   -1.496742   -0.920521
 H   -3.720559   -1.717662   -2.231005
 H   -4.044316   -3.042324   -1.079972
