40 
5y8y_ligand_dft.xyz
 C    4.751624    0.915282   -0.852099
 O    3.749057    0.298559   -0.072542
 C    2.607730    0.992196    0.172770
 C    2.320240    2.235082   -0.368535
 C    1.075158    2.772652   -0.035978
 O    0.549763    3.924416   -0.489370
 N   -0.737259    4.057687    0.044670
 C   -0.957068    3.020972    0.803507
 C   -2.271903    2.819121    1.478976
 C    0.180498    2.144742    0.813863
 C    0.503839    0.916805    1.401265
 C    1.698852    0.323395    1.047119
 N    2.039445   -0.986491    1.457793
 S    0.875186   -2.203631    1.407264
 O    0.019795   -2.060521    2.572656
 O    1.609890   -3.429758    1.168305
 C   -0.145529   -1.746459    0.007737
 C   -1.480470   -1.457863    0.254070
 C   -2.257234   -0.910407   -0.756211
Br   -4.048424   -0.423935   -0.388371
 C   -1.711921   -0.664130   -2.008373
 C   -0.376592   -0.961755   -2.258565
 C    0.425352   -1.497761   -1.249472
 O    1.740715   -1.754353   -1.375651
 C    2.409316   -1.298877   -2.534160
 H    4.397569    1.112640   -1.872020
 H    5.085795    1.853672   -0.394600
 H    5.582111    0.210047   -0.886166
 H    2.999021    2.761271   -1.026943
 H   -2.135624    2.641063    2.550299
 H   -2.907332    3.696190    1.341176
 H   -2.781581    1.946268    1.054176
 H   -0.171537    0.417190    2.086593
 H    2.894580   -1.323884    1.026971
 H   -1.881759   -1.621238    1.247461
 H   -2.321676   -0.224399   -2.789813
 H    0.033493   -0.751429   -3.238763
 H    2.057928   -1.823353   -3.430000
 H    2.277696   -0.216514   -2.659051
 H    3.462771   -1.524804   -2.372449
