40 
5y8y_ligand_xtb.xyz
 C    4.699867    0.792789   -1.178927
 O    3.739467    0.254946   -0.300574
 C    2.620276    0.988165   -0.035736
 C    2.313900    2.189229   -0.646378
 C    1.113887    2.790344   -0.285458
 O    0.582729    3.932624   -0.760060
 N   -0.620143    4.137869   -0.133864
 C   -0.839030    3.170140    0.703984
 C   -2.066222    3.091002    1.529052
 C    0.250490    2.237522    0.672083
 C    0.579607    1.038917    1.302219
 C    1.748995    0.411474    0.932584
 N    2.078920   -0.826503    1.484278
 S    0.840657   -1.946236    1.656555
 O    0.062659   -1.613794    2.809229
 O    1.443266   -3.238577    1.593916
 C   -0.191921   -1.630698    0.216899
 C   -1.508291   -1.277079    0.401738
 C   -2.279830   -0.963697   -0.705006
Br   -4.077715   -0.422513   -0.467039
 C   -1.739932   -1.020547   -1.978802
 C   -0.416546   -1.383542   -2.156265
 C    0.383995   -1.682163   -1.053119
 O    1.693534   -1.994421   -1.095469
 C    2.332799   -2.100538   -2.349845
 H    4.296137    0.922229   -2.188194
 H    5.080643    1.751233   -0.814942
 H    5.512052    0.068330   -1.205474
 H    2.951898    2.654316   -1.377712
 H   -1.801841    2.980889    2.578927
 H   -2.660225    3.989140    1.390833
 H   -2.656156    2.223718    1.235506
 H   -0.047655    0.600178    2.058970
 H    2.910325   -1.237432    1.084952
 H   -1.900144   -1.245401    1.406322
 H   -2.349468   -0.775258   -2.835045
 H   -0.016417   -1.418992   -3.156492
 H    1.882345   -2.886281   -2.962329
 H    2.306246   -1.149904   -2.891281
 H    3.364806   -2.362733   -2.125919
