41 
5y94_ligand_xtb.xyz
 C    2.356859   -1.869582   -2.453425
 O    1.747770   -1.799926   -1.178883
 C    0.427021   -1.518151   -1.113931
 C   -0.367578   -1.139556   -2.195824
 C   -1.702180   -0.827913   -2.006659
 C   -2.259752   -0.902751   -0.741495
Br   -4.077791   -0.447076   -0.484717
 C   -1.491247   -1.290654    0.342899
 C   -0.162053   -1.589489    0.147734
 S    0.830640   -2.027147    1.582516
 O   -0.003712   -1.863964    2.730904
 O    1.492461   -3.281612    1.398588
 N    2.037827   -0.863784    1.593399
 C    1.753430    0.381497    1.017747
 C    0.561279    0.975181    1.367720
 C    0.210427    2.175131    0.753201
 C   -0.901977    3.077303    0.770523
 C   -2.151486    2.951194    1.556575
 N   -0.686397    4.066898   -0.043193
 O    0.541646    3.904286   -0.637557
 C    1.089239    2.766233   -0.168293
 C    2.302460    2.193380   -0.514911
 C    2.636678    0.976106    0.066696
 N    3.829316    0.341562   -0.213567
 C    4.746003    0.853926   -1.200900
 H    1.849532   -2.591389   -3.098042
 H    2.372867   -0.888888   -2.938939
 H    3.376725   -2.206819   -2.276918
 H    0.044650   -1.069559   -3.189122
 H   -2.306376   -0.520799   -2.846455
 H   -1.893499   -1.359956    1.341557
 H    2.945254   -1.260285    1.415935
 H   -0.068445    0.506426    2.105038
 H   -2.710920    2.075943    1.228975
 H   -1.916241    2.827041    2.611850
 H   -2.763649    3.836984    1.417692
 H    2.942875    2.679590   -1.229317
 H    3.782557   -0.666234   -0.176981
 H    4.318170    0.894244   -2.210940
 H    5.060113    1.857999   -0.916123
 H    5.625557    0.213566   -1.220170
