41 
5y94_ligand_dft.xyz
 C   -3.471110   -2.983351   -0.988659
 O   -2.475342   -2.359698   -0.199605
 C   -2.411327   -1.011996   -0.185162
 C   -3.102896   -0.188587   -1.074167
 C   -2.942613    1.192506   -1.023154
 C   -2.092273    1.762523   -0.086940
Br   -1.869003    3.638756   -0.032466
 C   -1.402871    0.960630    0.812829
 C   -1.563500   -0.417609    0.765009
 S   -0.664581   -1.386163    1.967656
 O    0.034194   -0.427948    2.812427
 O   -1.499347   -2.404390    2.577498
 N    0.393320   -2.215430    0.968205
 C    1.393774   -1.482582    0.251524
 C    2.414978   -0.812122    0.894958
 C    3.308865   -0.071129    0.118693
 C    4.458983    0.757670    0.343213
 C    5.115765    1.091049    1.640925
 N    4.916249    1.235921   -0.778327
 O    4.092781    0.751556   -1.807092
 C    3.139981   -0.022436   -1.262105
 C    2.125229   -0.681615   -1.946222
 C    1.238654   -1.438126   -1.175135
 N    0.221848   -2.162744   -1.734562
 C   -0.241930   -1.920011   -3.077592
 H   -4.468711   -2.616342   -0.723786
 H   -3.292154   -2.825578   -2.059347
 H   -3.401043   -4.046569   -0.761859
 H   -3.767984   -0.612863   -1.816599
 H   -3.482222    1.822839   -1.721425
 H   -0.738531    1.386405    1.555610
 H    0.653628   -3.100342    1.393082
 H    2.483957   -0.846793    1.976893
 H    4.406712    1.585093    2.313193
 H    5.468784    0.181621    2.138163
 H    5.966215    1.754830    1.473182
 H    2.039110   -0.609694   -3.022917
 H   -0.446770   -2.529177   -1.070264
 H   -0.531199   -0.870645   -3.240091
 H    0.524666   -2.184763   -3.815173
 H   -1.110510   -2.555144   -3.265971
