44 
5y97_ligand_dft.xyz
 C    1.074363   -0.678523    0.187185
 C    2.253425   -1.376787   -0.471517
 C    3.539616   -0.955263    0.231974
 C    3.678564    0.572121    0.248917
 C    2.398764    1.195551    0.801412
 C    2.313237    2.711766    0.700080
 O   -0.081870   -1.007236   -0.496499
 O    2.171306   -2.783213   -0.377441
 O    4.669035   -1.467959   -0.441599
 O    3.906292    1.051387   -1.054291
 O    1.263873    0.712351    0.089394
 O    1.137670    3.191641    1.306864
 C   -4.123491   -0.299209   -0.190106
 C   -3.256259    0.955603   -0.246458
 C   -1.871169    0.599654   -0.757980
 C   -1.291080   -0.527901    0.096040
 C   -2.279606   -1.700616    0.196669
 C   -1.796296   -2.773437    1.154319
 O   -5.378328   -0.025989    0.332709
 O   -3.910781    1.883284   -1.083419
 O   -1.101173    1.784605   -0.741323
 O   -3.527929   -1.233558    0.670646
 H    0.996082   -0.966400    1.251992
 H    2.294405   -1.040183   -1.516175
 H    3.502929   -1.328378    1.268109
 H    4.513169    0.839120    0.917132
 H    2.298125    0.911298    1.861133
 H    2.386234    2.998398   -0.357593
 H    3.156300    3.161762    1.231804
 H    1.406109   -3.062619   -0.895638
 H    4.474561   -2.393315   -0.645036
 H    4.557555    0.448253   -1.442379
 H    0.383134    2.801765    0.841253
 H   -4.203045   -0.733766   -1.206368
 H   -3.170350    1.342780    0.780466
 H   -1.964130    0.226922   -1.790839
 H   -1.086882   -0.143835    1.104363
 H   -2.398613   -2.128576   -0.813931
 H   -2.506334   -3.603633    1.178727
 H   -1.711911   -2.362255    2.165465
 H   -0.817865   -3.150199    0.842597
 H   -5.638788    0.833183   -0.028733
 H   -3.317788    2.639555   -1.185189
 H   -0.178061    1.529871   -0.904708
