13 
5yas_ligand_xtb.xyz
 C   -0.005060    0.638098   -0.000277
 O   -0.030990    1.380245    1.162337
 O   -0.033131    1.380943   -1.162131
 C    1.256151   -0.279168   -0.000073
 C   -1.302818   -0.212057    0.000096
 F    1.340550   -1.061812   -1.067236
 F    1.358416   -1.031413    1.087313
 F    2.335694    0.535335   -0.019994
 F   -1.376611   -0.983734   -1.081313
 F   -2.373947    0.567222    0.017800
 F   -1.359842   -1.009199    1.064131
 H    0.751048    1.944541    1.255696
 H    0.753951    1.937127   -1.262116
