48 
5ybi_ligand_xtb.xyz
 P   -3.510517   -0.936452   -0.458703
 O   -4.272223    0.290886   -0.205667
 O   -4.422127   -2.174809   -0.877702
 O   -2.421817   -0.831438   -1.564630
 P   -1.176662   -1.327383    1.127696
 O   -0.675355    0.005539    0.840987
 O   -0.913363   -1.895056    2.573605
 N   -2.775013   -1.610255    0.907896
 P    1.123469   -2.547181    0.258618
 O    1.629982   -2.248886    1.603759
 O    1.465973   -4.015165   -0.236705
 O   -0.457483   -2.462004    0.163704
 O    1.574640   -1.638073   -0.942286
 C    2.914188   -1.683175   -1.426898
 C    3.643707   -0.359361   -1.180151
 O    2.955639    0.702568   -1.829816
 C    3.788634    0.021967    0.303587
 O    5.047060    0.592628    0.523754
 C    2.655937    1.038162    0.519738
 O    3.044271    2.036205    1.413361
 C    2.401002    1.587583   -0.906826
 N    0.981804    1.756708   -1.095145
 C    0.101347    1.085080   -1.871617
 N   -1.143975    1.405112   -1.640986
 C   -1.103202    2.336278   -0.628002
 C   -2.061781    3.039682    0.132546
 N   -3.388288    2.957515   -0.052120
 N   -1.610711    3.889682    1.066497
 C   -0.319954    3.999271    1.295200
 N    0.673015    3.362296    0.693604
 C    0.234458    2.552145   -0.273278
 H   -5.201691   -1.862665   -1.336974
 H   -1.999013    0.098493   -1.646492
 H    0.041972   -1.897357    2.738626
 H   -3.126530   -2.503064    1.204738
 H    1.475306   -4.645992    0.482984
 H    3.467079   -2.503999   -0.966189
 H    2.843193   -1.848469   -2.505522
 H    4.641655   -0.429640   -1.630694
 H    3.652245   -0.854479    0.950486
 H    4.911610    1.333230    1.135547
 H    1.752213    0.515651    0.862084
 H    2.315381    2.690820    1.441368
 H    2.872316    2.580328   -1.014357
 H    0.419613    0.369523   -2.602235
 H   -3.762806    2.084441   -0.407605
 H   -3.938330    3.422157    0.654289
 H   -0.033955    4.683883    2.082867
