102 
5yc1_ligand_dft.xyz
 N    1.085851    1.276120   -1.156443
 C    2.272765    1.183497   -2.062385
 C    2.803456   -0.256019   -2.014235
 O    2.640107   -0.988245   -2.973048
 C    3.312801    2.247395   -1.710528
 C    2.868594    3.661880   -2.083345
 C    3.789629    4.755491   -1.521902
 N    3.918830    4.741060   -0.072696
 C    2.831799    4.867329    0.755282
 N    3.046004    4.410571    2.053961
 N    1.660121    5.303055    0.438722
 N    3.404483   -0.663777   -0.866625
 C    3.756973   -2.075492   -0.725966
 C    2.484751   -2.940920   -0.775498
 O    2.458013   -4.047043   -1.281983
 C    4.563029   -2.302654    0.570769
 C    5.718573   -3.307522    0.451625
 C    5.241415   -4.729062    0.150325
 C    6.554079   -3.276526    1.734154
 N    1.412250   -2.378707   -0.150798
 C    0.116282   -2.990982   -0.156682
 C   -0.905838   -2.053525   -0.810085
 O   -0.671481   -0.882316   -1.105658
 C   -0.326670   -3.447918    1.248413
 C   -0.594783   -2.353754    2.290116
 C    0.618820   -1.523948    2.732325
 N    0.800308   -0.337768    1.900697
 C    1.922367    0.467107    2.023417
 N    3.108801    0.142696    2.385606
 N    1.703817    1.754914    1.521800
 N   -2.105631   -2.618718   -1.059411
 C   -3.236545   -1.870193   -1.556651
 C   -3.932300   -1.143968   -0.386693
 O   -3.335183   -0.890864    0.651321
 C   -4.142732   -2.772934   -2.395680
 N   -5.203417   -0.732690   -0.627017
 C   -5.995514   -0.061372    0.380255
 C   -7.289330   -0.839264    0.563739
 O   -7.684555   -1.683266   -0.203824
 C   -6.331134    1.401946    0.006006
 C   -5.131041    2.203878   -0.496080
 C   -3.991846    2.321061    0.513758
 N   -2.872615    3.021986   -0.091147
 C   -1.587082    2.911346    0.354419
 N   -1.169764    2.188329    1.338580
 N   -0.638214    3.599741   -0.415843
 O   -7.956200   -0.440527    1.650360
 H    0.479419    2.096319   -1.329712
 H    0.487953    0.421418   -1.190420
 H    1.393896    1.422135   -0.154313
 H    1.914657    1.312453   -3.085612
 H    3.530052    2.195094   -0.636124
 H    4.241789    1.997715   -2.235546
 H    1.850925    3.835798   -1.716580
 H    2.833377    3.765231   -3.174044
 H    4.797577    4.646385   -1.931357
 H    3.435192    5.741097   -1.844634
 H    4.708502    4.233294    0.296891
 H    3.982948    4.536874    2.416858
 H    2.351186    4.783514    2.689965
 H    1.646560    5.631930   -0.523729
 H    3.513912   -0.058237   -0.059122
 H    4.346530   -2.368751   -1.598966
 H    4.976920   -1.339643    0.893513
 H    3.886067   -2.629590    1.372565
 H    6.357545   -2.973402   -0.378584
 H    4.676171   -4.788735   -0.782977
 H    6.095364   -5.410988    0.082893
 H    4.587028   -5.091806    0.953377
 H    6.954485   -2.276199    1.933828
 H    5.949498   -3.577707    2.599026
 H    7.397668   -3.970390    1.664497
 H    1.469674   -1.447003    0.239518
 H    0.210901   -3.882230   -0.787760
 H   -1.236613   -4.053760    1.158977
 H    0.452491   -4.126963    1.612729
 H   -1.398424   -1.693008    1.939694
 H   -0.987697   -2.854106    3.181395
 H    0.503665   -1.228243    3.783422
 H    1.521843   -2.140689    2.667782
 H   -0.055514    0.177618    1.710267
 H    3.165567   -0.826445    2.688378
 H    2.421530    2.416486    1.819517
 H    0.750954    2.105886    1.692176
 H   -2.269037   -3.565382   -0.748959
 H   -2.824046   -1.076032   -2.188795
 H   -3.536660   -3.326607   -3.116787
 H   -4.691053   -3.489773   -1.775004
 H   -4.868955   -2.191901   -2.970792
 H   -5.729865   -1.159738   -1.376963
 H   -5.429498   -0.090897    1.314751
 H   -6.781215    1.879933    0.882586
 H   -7.095272    1.400956   -0.780232
 H   -4.737243    1.741762   -1.407907
 H   -5.485575    3.205671   -0.771299
 H   -4.336054    2.827659    1.427719
 H   -3.645965    1.320746    0.788835
 H   -3.106318    3.832721   -0.645495
 H   -1.942352    1.778868    1.855348
 H   -1.037369    4.274999   -1.057382
 H    0.085933    4.059416    0.151246
 H   -8.787542   -0.942600    1.685041
