47 
5yc8_ligand_xtb.xyz
 C   -2.506107    2.028975    1.372494
 C    0.951615    1.003466   -1.302961
 C    2.087090   -1.195775   -0.704786
 C    1.194272   -0.213387    1.287775
 C    4.007995   -1.293484    0.855609
 C    4.149234    0.184562   -0.961909
 C    2.387112    0.580109    0.759930
 N    3.187406   -0.427200   -0.023968
 C    1.474624   -0.348154   -1.824065
 C    1.007957   -1.334912    0.367612
 O    1.440627   -1.529263    1.677411
 C    1.812126    1.635049   -0.186038
 O   -0.368501    0.755626   -0.820877
 C   -1.177929    1.820115   -0.668989
 O   -0.855830    2.935179   -0.965666
 C   -2.501678    1.420963   -0.040958
 O   -1.277496    1.744337    2.027552
 C   -2.718595   -0.071063   -0.104082
 C   -3.251227   -0.618303   -1.266606
 C   -3.442513   -1.983423   -1.381011
 C   -3.102751   -2.822921   -0.332761
 C   -2.575555   -2.286485    0.829029
 C   -2.383810   -0.918906    0.942784
 H   -2.628227    3.114789    1.281235
 H   -3.350024    1.616943    1.938206
 H    0.872754    1.723824   -2.128214
 H    2.474885   -2.144316   -1.080696
 H    0.388719    0.323787    1.767703
 H    4.519539   -2.038745    0.249460
 H    4.750708   -0.684436    1.367274
 H    3.393970   -1.799479    1.595827
 H    4.659215   -0.603432   -1.513709
 H    4.889064    0.747691   -0.395334
 H    3.676845    0.853174   -1.670929
 H    3.011921    1.026236    1.535632
 H    2.173493   -0.208106   -2.646805
 H    0.616155   -0.891268   -2.223696
 H    0.045198   -1.739180    0.091681
 H    2.591717    2.266734   -0.608381
 H    1.163132    2.294538    0.393581
 H   -3.290200    1.926749   -0.607209
 H   -1.314489    2.137048    2.907067
 H   -3.525175    0.031631   -2.085206
 H   -3.865441   -2.392209   -2.286042
 H   -3.256644   -3.887699   -0.418226
 H   -2.315996   -2.932151    1.654983
 H   -1.974509   -0.517324    1.855808
