51 
5ye7_ligand_xtb.xyz
 C   -2.429493    3.660738   -0.849408
 C   -1.204014    3.205741   -0.089786
 C    0.989486    2.131640   -0.601642
 C    1.439345    1.997148    0.713017
 C    2.637722    1.355462    0.964377
 C    3.390193    0.861165   -0.083479
 C    2.786562   -1.824117    0.555361
 C    2.570568   -1.967500   -0.812895
 C    1.289579   -2.119896   -1.300853
 C    0.206700   -2.148178   -0.427275
 C   -2.087353   -1.551798   -0.436858
 C   -1.894287   -0.327517    0.237158
 C   -2.968320    0.375017    0.702449
 C   -4.285637   -0.087348    0.503848
 C   -5.409779    0.625642    0.967735
 C   -6.673681    0.152833    0.750349
 C   -6.868195   -1.054030    0.059595
 C   -5.798776   -1.768135   -0.402868
 C   -4.480952   -1.307839   -0.195369
 C   -3.359271   -2.024618   -0.651802
 C    0.429265   -2.102415    0.944667
 C    1.710352   -1.929248    1.430547
 C    2.975461    1.019899   -1.391835
 C    1.779962    1.657779   -1.652023
 N   -0.233958    2.711422   -0.923982
 N    4.071412   -1.511840    1.003760
 O   -1.104669    3.260473    1.112033
 O    5.403059   -0.580545   -0.967671
 O    5.642184    0.397743    1.280274
 O   -1.048294   -2.271704   -0.968781
 S    4.808206   -0.173644    0.266676
 H   -2.924200    2.796389   -1.289854
 H   -3.116770    4.146220   -0.162880
 H   -2.159347    4.356194   -1.640586
 H    0.840455    2.381399    1.521768
 H    2.996335    1.237077    1.974792
 H    3.418457   -1.928202   -1.476766
 H    1.107764   -2.207237   -2.360335
 H   -0.891305    0.048899    0.379400
 H   -2.813925    1.303578    1.231691
 H   -5.250330    1.552707    1.499691
 H   -7.531684    0.702522    1.108259
 H   -7.873738   -1.413705   -0.102564
 H   -5.945206   -2.697666   -0.933737
 H   -3.494405   -2.955892   -1.180178
 H   -0.404542   -2.176661    1.627113
 H    1.875760   -1.864690    2.496073
 H    3.595090    0.634268   -2.184846
 H    1.442868    1.776916   -2.671641
 H   -0.444848    2.720920   -1.912786
 H    4.169220   -1.462096    2.007240
