20 
5ye8_ligand_xtb.xyz
 C    2.319463    0.590232    1.632741
 S    2.462173    0.106004   -0.101845
 N    1.213964   -0.996400   -0.288845
 C   -0.139907   -0.744376   -0.182585
 C   -0.613232    0.565686   -0.217629
 C   -1.968984    0.804098   -0.097211
 F   -2.411413    2.070594   -0.123090
 C   -2.865975   -0.245721    0.057124
 F   -4.183757   -0.007640    0.183179
 C   -2.398794   -1.547864    0.078899
 C   -1.045163   -1.796678   -0.036478
 O    3.648394   -0.667638   -0.283185
 O    2.233284    1.248000   -0.925733
 H    2.504873   -0.284561    2.240877
 H    3.068757    1.348968    1.818618
 H    1.327501    0.988048    1.800272
 H    1.511449   -1.957142   -0.279949
 H    0.062179    1.389698   -0.376722
 H   -3.104893   -2.354883    0.189844
 H   -0.683742   -2.813137   -0.020120
