20 
5ye8_ligand_dft.xyz
 C    2.215828   -0.128910    1.729741
 S    2.469429    0.165554   -0.016961
 N    1.259531   -0.711454   -0.777436
 C   -0.113974   -0.569760   -0.465114
 C   -0.702357    0.698009   -0.421490
 C   -2.048419    0.800822   -0.122315
 F   -2.627136    2.001135   -0.065717
 C   -2.825112   -0.331812    0.102864
 F   -4.125371   -0.190830    0.375615
 C   -2.247092   -1.586547    0.042111
 C   -0.886959   -1.707082   -0.226414
 O    3.698640   -0.484385   -0.430627
 O    2.228187    1.575998   -0.253371
 H    2.363135   -1.189700    1.937378
 H    2.952771    0.470792    2.267059
 H    1.206431    0.187508    1.999307
 H    1.575998   -1.651058   -0.985897
 H   -0.124704    1.591996   -0.623705
 H   -2.864137   -2.460073    0.220280
 H   -0.430615   -2.692112   -0.254383
