94 
5yia_ligand_dft.xyz
 C    0.852969    3.832821   -0.114632
 C    1.640981    2.031152   -2.078771
 C    2.184669    3.439675   -0.196345
 C    2.583554    2.529123   -1.174889
 C   -0.098316    3.349985   -1.011916
 C   -5.270305   -2.703479    2.850373
 C   -4.659599   -2.882071    4.088170
 C   -1.548842    3.758999   -0.898101
 C   -2.360804    2.630463   -0.280839
 C    1.225982    1.452285    3.081376
 S    3.339031   -1.212108   -3.145876
 S   -6.315692    2.449511   -1.421887
 O    0.571451    0.525817    0.897251
 O    4.234538   -2.349337    1.251414
 O   -1.046777   -2.468310   -2.024281
 O    0.910004   -2.814618    0.659989
 O   -3.451297   -1.080764   -1.797751
 O   -2.158169    2.239796    0.864427
 O    3.863291    2.108115   -1.291916
 N    1.787446   -2.231507   -1.328744
 N    3.005821   -0.567443    0.545407
 N   -2.479960   -0.582222    0.206740
 N   -3.287071    2.064657   -1.094479
 C    3.115439   -2.604538   -0.848381
 C    4.116492   -2.460750   -2.031248
 C    2.775007   -0.004601    1.852496
 C    1.687140   -1.821369   -2.721647
 C    3.504552   -1.830215    0.425132
 C    1.257180    0.256605    2.108420
 C    5.488924   -1.945431   -1.598629
 C    4.251363   -3.808275   -2.749884
 C    3.413578    1.335102    2.124795
 C    2.544531    2.154743    2.841889
 C    0.742577   -2.341072   -0.457550
 C   -0.592027   -1.742707   -0.906664
 C   -1.567589   -1.717939    0.283612
 C    4.693662    1.760889    1.791992
 C    2.948222    3.426103    3.235239
 C   -2.310529   -3.048189    0.478246
 C    5.094696    3.042369    2.173136
 C    4.225791    3.868132    2.890956
 C   -3.143244   -3.027327    1.733717
 C   -4.126275    0.953040   -0.668381
 C   -2.540145   -3.203991    2.981545
 C   -4.514803   -2.774900    1.683023
 C   -5.400005    0.876792   -1.497207
 C   -3.290634   -3.133106    4.150614
 C   -7.760545    1.962128   -2.402529
 C    0.318019    2.442587   -1.991961
 C   -3.323209   -0.355198   -0.806617
 H    0.555078    4.532574    0.661592
 H    1.970726    1.327909   -2.835656
 H    2.913331    3.839496    0.502367
 H   -6.338000   -2.510850    2.792417
 H   -5.246711   -2.829102    5.000399
 H   -1.645496    4.624180   -0.235514
 H   -1.949895    4.048720   -1.875801
 H    1.161965    1.097829    4.117531
 H    0.346707    2.081718    2.902067
 H    0.577192    1.477181    0.717953
 H   -1.941740   -2.122295   -2.209135
 H    4.343404    2.357693   -0.488892
 H    2.336349   -0.266963   -0.152970
 H   -2.342229    0.178438    0.865594
 H   -3.417981    2.426362   -2.027324
 H    3.113194   -3.646886   -0.515766
 H    3.150433   -0.733848    2.579843
 H    1.385211   -2.657768   -3.357491
 H    0.959997   -1.017774   -2.846720
 H    0.786906   -0.639597    2.517524
 H    6.159403   -1.891077   -2.462151
 H    5.412109   -0.949998   -1.152732
 H    5.925436   -2.623740   -0.859529
 H    3.276173   -4.205969   -3.050111
 H    4.721054   -4.538740   -2.080513
 H    4.870788   -3.707435   -3.645362
 H   -0.390799   -0.689470   -1.166261
 H   -0.967586   -1.535202    1.173506
 H    5.365312    1.093775    1.256326
 H    2.277468    4.072711    3.794889
 H   -1.550360   -3.832986    0.532459
 H   -2.933697   -3.256005   -0.394853
 H    6.091582    3.395839    1.925498
 H    4.550267    4.861614    3.186201
 H   -4.369688    1.117614    0.386060
 H   -1.470630   -3.398623    3.028836
 H   -4.992349   -2.637048    0.715275
 H   -6.021899    0.067861   -1.102588
 H   -5.154309    0.625122   -2.533450
 H   -2.807417   -3.277687    5.112725
 H   -7.473835    1.686758   -3.421334
 H   -8.291265    1.129341   -1.932807
 H   -8.428923    2.824912   -2.445418
 H   -0.407436    2.045985   -2.699267
