68 
5yjp_ligand_xtb.xyz
 C    0.300917   -0.011657    0.513108
 O   -0.256453   -0.604004    1.423639
Cl    7.137086   -2.483919    1.956173
 C    5.819261   -2.526805    0.835859
 C    6.024997   -2.972929   -0.455066
 C    4.963259   -3.003753   -1.344213
 C    3.698154   -2.586711   -0.949976
 O    2.602945   -2.578020   -1.761552
 C    2.722788   -3.091318   -3.067121
 C    4.560415   -2.111944    1.243778
 C    3.492122   -2.135780    0.365290
 C    2.127885   -1.685254    0.794995
 C    1.739122   -0.346234    0.147579
 C    2.643930    0.782133    0.654973
 N    2.661797    1.930761   -0.218589
 C    1.603422    2.474605   -0.886538
 N    1.578492    3.674135   -1.317876
 O    2.699313    4.459560   -0.978654
 C    2.553766    5.756843   -1.530644
 C    3.739244    6.589669   -1.072402
 C    0.429267    1.630073   -1.301537
 N   -0.276500    0.993531   -0.199691
 C   -1.631766    1.454434   -0.018143
 O   -2.113673    2.231441   -0.809478
 N   -2.253588    0.986543    1.066809
 C   -3.642290    1.297413    1.329721
 C   -3.875090    1.326230    2.846203
 C   -3.050969    2.410136    3.528969
 C   -4.579455    0.299900    0.686180
 C   -5.817995    0.722509    0.215621
 C   -6.707391   -0.174870   -0.340343
 C   -4.240419   -1.045679    0.589251
 C   -5.122426   -1.948606    0.031056
 C   -6.363819   -1.521313   -0.435415
 C   -7.280267   -2.519565   -1.022298
 O   -8.454392   -2.000636   -1.420734
 O   -7.032020   -3.694107   -1.144981
 H    7.003753   -3.297162   -0.770326
 H    5.141140   -3.357429   -2.346807
 H    3.420277   -2.500297   -3.669162
 H    1.726450   -3.022996   -3.501370
 H    3.041940   -4.137671   -3.059928
 H    4.411243   -1.775723    2.258312
 H    2.084265   -1.587503    1.879622
 H    1.390514   -2.430067    0.490348
 H    1.853828   -0.445415   -0.932496
 H    3.671170    0.406858    0.711601
 H    2.330065    1.060070    1.674568
 H    3.363426    2.623546    0.008995
 H    2.524703    5.686047   -2.625461
 H    1.608410    6.194819   -1.188153
 H    3.753086    6.655857    0.012396
 H    3.667174    7.589786   -1.489380
 H    4.667237    6.131005   -1.403893
 H   -0.290202    2.298117   -1.783860
 H    0.749292    0.879760   -2.031356
 H   -1.793720    0.263802    1.614620
 H   -3.832560    2.289418    0.904345
 H   -4.937387    1.496284    3.029111
 H   -3.617247    0.347544    3.257160
 H   -1.989617    2.246863    3.360144
 H   -3.234821    2.404575    4.600472
 H   -3.312691    3.390730    3.138536
 H   -6.081467    1.767856    0.282058
 H   -7.665976    0.157275   -0.706559
 H   -3.280864   -1.389236    0.945900
 H   -4.871178   -2.995140   -0.052084
 H   -9.007864   -2.702789   -1.796101
