50 
5ylj_ligand_xtb.xyz
 C    7.269141    0.433001    0.380484
 O    6.176724    0.620658    1.247516
 C    4.963305    0.127967    0.885393
 C    4.695760   -0.554745   -0.298461
 C    3.420268   -1.013050   -0.562642
 C    2.371330   -0.811083    0.334923
 C    1.014743   -1.251583    0.088716
 C    0.559702   -1.900625   -0.990845
 C   -0.837938   -2.325156   -1.147803
 O   -1.131977   -3.318164   -1.789804
 C   -1.875213   -1.516608   -0.457238
 C   -2.936073   -2.175068    0.146617
 C   -3.931012   -1.488488    0.815498
 C   -3.873857   -0.101739    0.881586
 O   -4.785952    0.681672    1.525006
 C   -5.868336    0.058779    2.172696
 C   -2.830016    0.592867    0.255811
 C   -2.773141    2.092016    0.355916
 C   -1.378500    2.586500   -0.007911
 C   -0.883473    1.912896   -1.291518
 C    0.563319    2.314281   -1.584286
 C   -1.778306    2.243605   -2.490276
 O   -0.845632    0.495526   -1.116015
 C   -1.844965   -0.107931   -0.432936
 C    2.656676   -0.122307    1.520672
 C    3.922290    0.339794    1.793202
 H    7.482119   -0.629648    0.226614
 H    7.101300    0.914802   -0.588089
 H    8.119586    0.902231    0.872515
 H    5.476308   -0.735252   -1.020999
 H    3.240889   -1.538548   -1.487214
 H    0.310918   -1.010716    0.876857
 H    1.220894   -2.227859   -1.780134
 H   -2.963281   -3.252659    0.091997
 H   -4.734362   -2.037672    1.278148
 H   -6.495939   -0.493488    1.466364
 H   -5.529801   -0.617501    2.964050
 H   -6.449730    0.866961    2.614166
 H   -3.028118    2.388542    1.375371
 H   -3.525981    2.538872   -0.299089
 H   -0.683130    2.333364    0.796266
 H   -1.373277    3.669087   -0.135503
 H    0.625030    3.379626   -1.786498
 H    1.198737    2.072105   -0.735719
 H    0.926579    1.763595   -2.447396
 H   -2.768269    1.815072   -2.357804
 H   -1.867978    3.319911   -2.610102
 H   -1.346269    1.821287   -3.394232
 H    1.863684    0.050036    2.234579
 H    4.140574    0.870367    2.706636
