48 
5yql_ligand_xtb.xyz
 C    1.352804   -0.892259    2.028000
 C    1.412478    1.446834    0.543265
 N   -1.020491    1.309814    0.325473
 C   -1.256235    2.377869   -0.471828
 C   -3.997896   -0.830308    1.364234
 C   -4.790222   -1.871460    0.901499
 C   -5.095743   -1.895837   -0.460211
 C    5.786805   -2.204510   -1.891201
 C    6.660404   -1.933771   -0.849369
 C    6.378863   -0.926788    0.049782
 C    5.213096   -0.170612   -0.078994
 C    4.336496   -0.442943   -1.122691
 C    4.631587   -1.456654   -2.019526
 O    5.036045    0.799815    0.863338
 C    3.895841    1.625117    0.783466
 C    2.590238    0.912150    1.045210
 C    2.559386   -0.255105    1.794823
 C    0.177694   -0.364980    1.531674
 C    0.198779    0.815466    0.789225
 O   -0.427862    3.140617   -0.915447
 C   -2.745107    2.553800   -0.761596
 S   -3.418719    1.257236   -1.864990
 C   -3.928959    0.022627   -0.741344
 N   -3.560105    0.113696    0.532123
 N   -4.665848   -0.939661   -1.269979
 C   -5.915668   -2.983563   -1.066327
 C   -3.590327   -0.714233    2.796718
 H    1.330264   -1.806511    2.602397
 H    1.431147    2.352388   -0.040768
 H   -1.851013    0.773374    0.595723
 H   -5.147357   -2.638486    1.568973
 H    6.006436   -2.993027   -2.594985
 H    7.566619   -2.510823   -0.737811
 H    7.047915   -0.701217    0.865691
 H    3.422587    0.117094   -1.242295
 H    3.942507   -1.659437   -2.826439
 H    3.856468    2.140490   -0.185859
 H    4.055931    2.380699    1.561685
 H    3.477981   -0.664942    2.185847
 H   -0.763693   -0.864857    1.708573
 H   -2.892089    3.489633   -1.298557
 H   -3.333225    2.539203    0.154849
 H   -5.417334   -3.942622   -0.934709
 H   -6.886728   -3.038428   -0.577492
 H   -6.050829   -2.788594   -2.125614
 H   -4.474693   -0.655704    3.428838
 H   -3.023844   -1.594183    3.098266
 H   -2.983792    0.174718    2.948227
