38 
5yqx_ligand_dft.xyz
 C   -4.671814    3.007259    0.793036
 C   -3.380969    2.934699    0.768074
 C   -4.098642    1.978573   -0.143541
 C   -4.177523    0.491013    0.158337
 C   -2.966521   -0.265831   -0.358856
 C   -3.138673   -1.783835   -0.238809
 O   -4.218274   -2.340107   -0.255728
 N   -1.955189   -2.469840   -0.166747
 O   -1.819967    0.190604    0.362705
 C   -0.663790   -0.473429    0.091543
 C    0.546548    0.197965    0.142334
 C   -0.702154   -1.845956   -0.177037
 C    0.484300   -2.530904   -0.410532
 C    1.698274   -1.854399   -0.362265
 C    1.748054   -0.485584   -0.077495
 C    3.033521    0.227445   -0.023926
 C    4.191402   -0.156149    0.587133
 C    4.571274   -1.335048    1.411021
 O    5.140126    0.766470    0.377074
 N    4.627771    1.795379   -0.391750
 C    3.379172    1.481557   -0.624851
 C    2.517660    2.384347   -1.448096
 H   -5.575068    3.443254    1.190339
 H   -2.418895    3.260432    1.129389
 H   -4.103965    2.192103   -1.219537
 H   -5.064994    0.046737   -0.303639
 H   -4.256471    0.326004    1.238913
 H   -2.814421   -0.045496   -1.429261
 H   -2.020573   -3.478570   -0.157915
 H    0.538842    1.256848    0.378353
 H    0.457019   -3.594275   -0.632291
 H    2.618049   -2.391553   -0.571184
 H    3.674502   -1.869704    1.732527
 H    5.132000   -1.016652    2.294455
 H    5.203476   -2.025825    0.842628
 H    3.141611    3.071327   -2.023682
 H    1.894894    1.801815   -2.133336
 H    1.850123    2.978702   -0.815107
