52 
5yr6_ligand_xtb.xyz
 C   -1.575566   -2.142847   -0.327248
 C   -0.781840   -1.011712    0.376067
 C   -0.660141    0.225607   -0.525997
 C   -2.055252    0.728053   -0.948460
 C   -2.821321   -0.384070   -1.654227
 C   -2.948495   -1.606231   -0.754585
 C   -1.779086   -3.317417    0.639866
 O   -0.910829   -2.577886   -1.494588
 C    0.599729   -1.453858    0.884132
 C    1.771448   -1.453238   -0.008093
 C    3.196476   -1.203876    0.442314
 C    3.437685    0.267351    0.605523
 C    4.153585    1.063880   -0.178122
 C    0.768297   -1.240963    2.372357
 O    1.139145   -2.654492    0.362734
 C    4.310203    2.523004    0.140604
 C    4.887765    0.638689   -1.414927
 C    0.580177    2.258899   -0.552872
 O    0.069857    1.185415    0.205460
 C   -2.878941    2.488885    0.393065
 O   -2.781932    1.159371    0.203553
 N   -3.532854    2.750252    1.549234
 O   -2.479547    3.335231   -0.366121
 H   -1.362436   -0.696852    1.246876
 H   -0.127544   -0.029671   -1.455354
 H   -1.942697    1.592878   -1.614168
 H   -3.811875   -0.021036   -1.932197
 H   -2.279587   -0.657631   -2.559350
 H   -3.520998   -1.344648    0.135073
 H   -3.471449   -2.398083   -1.291660
 H   -2.325337   -2.995045    1.522295
 H   -2.348196   -4.097945    0.140064
 H   -0.821591   -3.730547    0.945141
 H   -0.087503   -2.995066   -1.199040
 H    1.606730   -1.180699   -1.048068
 H    3.870771   -1.643741   -0.293550
 H    3.373775   -1.711926    1.391846
 H    2.937025    0.698861    1.461429
 H    0.701103   -0.176416    2.581804
 H    1.723180   -1.621072    2.722309
 H   -0.022768   -1.761021    2.909437
 H    3.799322    2.782816    1.063661
 H    5.365876    2.772671    0.244798
 H    3.905445    3.133131   -0.666423
 H    5.963226    0.719262   -1.255272
 H    4.658009   -0.380705   -1.706723
 H    4.628541    1.299375   -2.241434
 H   -0.210864    2.939363   -0.882033
 H    1.136230    1.891843   -1.423306
 H    1.258809    2.792843    0.108629
 H   -3.619429    3.703165    1.850904
 H   -3.767679    2.002083    2.174993
