18 
5ytu_ligand_xtb.xyz
 C   -2.554994   -0.700553   -0.019929
 O   -3.453379    0.384956   -0.006904
 C   -1.127805   -0.215359   -0.003046
 C   -0.098509   -1.147632   -0.013703
 C   -0.822727    1.135092    0.037162
 C    0.495358    1.555088    0.032284
 C    1.524883    0.630426   -0.002417
 O    2.828723    1.068338   -0.020659
 C    1.222070   -0.736439    0.003751
 O    2.217960   -1.684411    0.006921
 H   -2.708772   -1.316229   -0.920765
 H   -2.720222   -1.346471    0.857575
 H   -4.352505    0.042745   -0.018798
 H   -0.305315   -2.206516   -0.027556
 H   -1.624648    1.853897    0.059775
 H    0.747108    2.603310    0.046982
 H    3.382784    0.417544   -0.470229
 H    3.005480   -1.323078    0.433535
