59 
5yu9_ligand_dft.xyz
 N    1.106708    3.949343   -0.265133
 C    2.381816    3.533063   -0.219532
 N    2.856635    2.302306   -0.337316
 C    1.868101    1.404228   -0.488145
 C    0.491684    1.661364   -0.489693
 C    0.145711    3.032037   -0.415490
 C    7.391333    1.069330    1.796913
 N   -1.131880    3.481260   -0.475560
 O    7.188040   -1.467122    0.747097
 C    6.014737    0.443854    1.607380
 C   -8.384938   -0.456600    2.001749
 C   -7.241718   -1.203154    2.280331
 C   -8.557010    0.097436    0.736539
 C   -6.273487   -1.400449    1.301869
 C   -7.589829   -0.084593   -0.248207
 C   -3.820576    0.274489    0.093318
 C   -3.328322   -1.309538   -1.665874
 C   -2.471417    0.610756    0.146829
 C   -1.989854   -0.955836   -1.611810
 C    4.608393   -2.639886   -1.368276
 C    3.268583   -1.903214   -1.497456
 C    4.963072   -2.902628    0.098745
 C    3.632192   -1.010394    0.828319
 N    0.817661   -0.557041   -0.748268
 O   -5.554728   -1.057042   -0.976268
 C    6.110762   -0.964177    1.026449
 C   -6.456097   -0.833333    0.042801
 C   -4.246661   -0.691237   -0.816629
 C   -1.540982    0.014646   -0.708543
 C   -0.114409    0.374482   -0.648606
 C    3.275043   -0.650136   -0.623373
 N    2.017450    0.071333   -0.672656
 N    4.929662   -1.657666    0.860001
 H    3.119938    4.319490   -0.079770
 H    7.293897    2.068958    2.231523
 H    8.011862    0.457840    2.456508
 H    7.914347    1.153458    0.841140
 H   -1.856740    2.881879   -0.838651
 H   -1.247449    4.478588   -0.576742
 H    5.400764    1.073875    0.949845
 H    5.482488    0.397056    2.566196
 H   -9.139911   -0.311062    2.767911
 H   -7.104735   -1.644008    3.263074
 H   -9.447189    0.677091    0.511682
 H   -5.381507   -1.985029    1.503950
 H   -7.702683    0.339335   -1.240405
 H   -4.529434    0.748894    0.762940
 H   -3.685085   -2.057710   -2.365678
 H   -2.138264    1.339812    0.880750
 H   -1.273643   -1.432952   -2.272835
 H    4.566198   -3.587723   -1.915751
 H    5.412116   -2.041824   -1.815170
 H    3.071809   -1.629990   -2.539296
 H    2.447407   -2.553223   -1.174148
 H    4.239065   -3.595322    0.547315
 H    5.961213   -3.327962    0.195455
 H    3.620981   -0.118166    1.454135
 H    2.877021   -1.702154    1.223191
 H    4.030637    0.054359   -0.988913
