117 
5yvx_ligand_dft.xyz
 N    9.100454   -3.464009   -0.737874
 C    7.957085   -2.923117   -1.474930
 C    7.200743   -1.988598   -0.535686
 O    7.222458   -2.159162    0.690836
 C    6.988028   -3.980677   -2.028651
 N    6.516185   -0.982249   -1.100665
 C    5.701789   -0.062934   -0.334568
 C    4.454539    0.219130   -1.183555
 O    4.469681    0.023231   -2.391755
 C    6.431841    1.273903   -0.056612
 C    7.840400    1.151183    0.532918
 C    7.890384    0.634004    1.973288
 N    9.268731    0.534870    2.471280
 C   10.170519   -0.368193    2.067507
 N   11.471240   -0.157324    2.332499
 N    9.802848   -1.462785    1.421836
 N    3.395083    0.727870   -0.524032
 C    2.206388    1.182469   -1.205768
 C    1.514413    2.178547   -0.276296
 O    1.733445    2.185335    0.926833
 C    1.255071    0.007405   -1.551155
 O    0.172893    0.578813   -2.276674
 C    0.787553   -0.764245   -0.323874
 N    0.626603    3.004245   -0.886534
 C   -0.340725    3.781241   -0.142014
 C   -0.643221    5.081756   -0.918617
 C   -1.734429    5.981274   -0.314894
 C   -3.124782    5.756225   -0.938941
 C   -4.280277    6.150704   -0.023299
 N   -4.536982    5.090216    0.998845
 C   -5.295731    5.542592    2.189742
 C   -1.612131    2.990255    0.188595
 O   -2.394019    3.403529    1.052207
 N   -1.856974    1.877369   -0.523603
 C   -3.122073    1.181928   -0.389888
 C   -2.935984   -0.303000   -0.687528
 O   -2.172078   -0.702952   -1.564007
 C   -4.164088    1.773710   -1.365820
 C   -5.596742    1.287948   -1.139258
 C   -6.110418    1.707652    0.227579
 O   -6.045126    2.880842    0.614834
 N   -6.618575    0.734602    0.995877
 N   -3.725065   -1.128480    0.025538
 C   -3.912729   -2.518940   -0.324685
 C   -5.410890   -2.837296   -0.187651
 O   -6.229247   -1.958433    0.091977
 C   -2.989961   -3.429486    0.513514
 O   -3.059955   -4.711774   -0.098693
 C   -3.355294   -3.470107    1.990020
 N   -5.755107   -4.108248   -0.429418
 C   -7.108743   -4.576071   -0.225327
 C   -7.410011   -4.684249    1.269622
 O   -8.708560   -4.926111    1.474579
 C   -7.320982   -5.919042   -0.927385
 O   -6.598692   -4.584408    2.157717
 H   10.446924   -2.006780    0.862682
 H    8.747931   -4.075411   -0.003392
 H    9.643647   -4.053259   -1.364179
 H    8.353287   -2.329522   -2.306653
 H    6.165202   -3.523994   -2.588577
 H    6.561555   -4.570568   -1.210245
 H    7.520351   -4.657947   -2.702871
 H    6.379752   -0.932623   -2.105757
 H    5.429318   -0.555901    0.603219
 H    6.513944    1.812195   -1.007800
 H    5.798573    1.888069    0.595825
 H    8.443396    0.498884   -0.108982
 H    8.312084    2.139504    0.500355
 H    7.372763    1.319077    2.649160
 H    7.400314   -0.338478    2.062308
 H    9.589082    1.251412    3.105132
 H   12.136496   -0.912528    2.271695
 H   11.808872    0.731156    2.667244
 H    8.821162   -1.729463    1.284977
 H    3.409768    0.903789    0.474370
 H    2.492686    1.659719   -2.148972
 H    1.826465   -0.656631   -2.211232
 H   -0.555019   -0.068488   -2.318545
 H    0.218129   -0.124772    0.358884
 H    0.147415   -1.597114   -0.628467
 H    1.644670   -1.173109    0.218207
 H    0.457726    2.844878   -1.871646
 H    0.110496    4.030247    0.821558
 H   -0.909905    4.826559   -1.953675
 H    0.305286    5.623459   -0.973618
 H   -1.458605    7.029597   -0.465617
 H   -1.765114    5.828098    0.769267
 H   -3.206531    6.338688   -1.862097
 H   -3.251660    4.709559   -1.239016
 H   -4.056018    7.078561    0.511280
 H   -5.213697    6.293050   -0.572790
 H   -5.068114    4.294296    0.582211
 H   -3.642151    4.648229    1.273667
 H   -6.227890    6.003464    1.860524
 H   -4.698132    6.263090    2.749416
 H   -5.518098    4.670834    2.804179
 H   -1.154906    1.503158   -1.164019
 H   -3.463890    1.329520    0.639420
 H   -4.142313    2.859441   -1.239835
 H   -3.850941    1.555768   -2.391805
 H   -5.686978    0.206369   -1.272786
 H   -6.248709    1.758806   -1.882897
 H   -7.027611    0.987825    1.884726
 H   -6.690890   -0.228857    0.671933
 H   -4.416162   -0.735256    0.652009
 H   -3.622733   -2.646750   -1.373397
 H   -1.977269   -3.020330    0.388800
 H   -2.657919   -5.358813    0.493615
 H   -2.637368   -4.087146    2.541915
 H   -4.357781   -3.883908    2.140025
 H   -3.313470   -2.465965    2.424188
 H   -4.994972   -4.781468   -0.485028
 H   -7.795506   -3.831704   -0.638341
 H   -8.844274   -5.016406    2.432096
 H   -7.128861   -5.811665   -1.997738
 H   -8.348661   -6.258805   -0.787931
 H   -6.647886   -6.683308   -0.524365
