117 
5yvx_ligand_xtb.xyz
 N    9.255391   -3.382338   -1.002439
 C    8.161873   -2.736217   -1.712639
 C    7.371507   -1.921189   -0.700556
 O    7.437139   -2.139615    0.509410
 C    7.203560   -3.706889   -2.423726
 N    6.626184   -0.934013   -1.194720
 C    5.785215   -0.087459   -0.381129
 C    4.537572    0.216068   -1.227454
 O    4.549491    0.041017   -2.428715
 C    6.484010    1.247983   -0.047252
 C    7.887909    1.096129    0.542685
 C    7.901028    0.461287    1.938224
 N    9.250735    0.386607    2.470822
 C   10.139508   -0.584551    2.256621
 N   11.389458   -0.402792    2.711668
 N    9.832104   -1.706746    1.639631
 N    3.487378    0.694082   -0.550681
 C    2.285446    1.158120   -1.197076
 C    1.600353    2.129382   -0.236291
 O    1.904441    2.184540    0.938080
 C    1.320592   -0.015298   -1.524239
 O    0.171279    0.539795   -2.135050
 C    0.967053   -0.817283   -0.275527
 N    0.640806    2.873275   -0.813415
 C   -0.299817    3.671076   -0.065175
 C   -0.581051    4.976983   -0.835497
 C   -1.638747    5.874575   -0.179796
 C   -3.026709    5.721339   -0.818873
 C   -4.152426    6.123390    0.130203
 N   -4.447706    5.022392    1.073909
 C   -5.093227    5.457559    2.317836
 C   -1.602978    2.923938    0.229569
 O   -2.373445    3.328148    1.098575
 N   -1.869860    1.862798   -0.530644
 C   -3.136574    1.167017   -0.452587
 C   -2.940428   -0.341070   -0.613992
 O   -2.082901   -0.811056   -1.341510
 C   -4.060125    1.653990   -1.591967
 C   -5.515495    1.227110   -1.410727
 C   -6.122229    1.828727   -0.156865
 O   -5.969207    3.010748    0.143392
 N   -6.822101    0.986213    0.599648
 N   -3.817022   -1.081808    0.072529
 C   -4.031992   -2.490999   -0.156227
 C   -5.549411   -2.724012   -0.143339
 O   -6.320398   -1.786392    0.026370
 C   -3.284658   -3.362861    0.881310
 O   -3.396655   -4.699906    0.436660
 C   -3.829154   -3.177470    2.292588
 N   -5.922853   -3.975712   -0.391059
 C   -7.299322   -4.406997   -0.281474
 C   -7.639894   -4.653678    1.190357
 O   -8.903797   -5.006894    1.354260
 C   -7.537363   -5.661630   -1.113233
 O   -6.848755   -4.531665    2.087166
 H   10.539752   -2.404443    1.482724
 H    8.871221   -4.029551   -0.319321
 H    9.816648   -3.922434   -1.651830
 H    8.600393   -2.053544   -2.449490
 H    6.416065   -3.167919   -2.943758
 H    6.747238   -4.379428   -1.699243
 H    7.752595   -4.300996   -3.150808
 H    6.475067   -0.819808   -2.192098
 H    5.521177   -0.626114    0.533623
 H    6.568381    1.823431   -0.971398
 H    5.851824    1.808685    0.642435
 H    8.501511    0.493263   -0.129011
 H    8.336892    2.089724    0.600511
 H    7.310737    1.064728    2.630071
 H    7.477740   -0.542229    1.899813
 H    9.600679    1.235490    2.890110
 H   12.071403   -1.138245    2.640449
 H   11.645333    0.410244    3.244211
 H    8.907063   -1.912087    1.228613
 H    3.503766    0.866441    0.448500
 H    2.544771    1.652553   -2.139771
 H    1.835259   -0.666667   -2.245190
 H   -0.513071   -0.155881   -2.169326
 H    0.561859   -0.169216    0.499317
 H    0.220935   -1.567934   -0.526706
 H    1.849248   -1.318742    0.111063
 H    0.457200    2.725074   -1.795344
 H    0.163289    3.903419    0.900906
 H   -0.890851    4.725444   -1.852226
 H    0.365936    5.512364   -0.905336
 H   -1.331390    6.916441   -0.268678
 H   -1.680498    5.640428    0.884163
 H   -3.076823    6.339708   -1.714743
 H   -3.187482    4.688296   -1.130456
 H   -3.854365    7.007051    0.698682
 H   -5.062447    6.361747   -0.422908
 H   -5.061726    4.306711    0.615088
 H   -3.563132    4.500778    1.276063
 H   -6.028975    5.966100    2.092923
 H   -4.442564    6.137277    2.865321
 H   -5.305437    4.593144    2.941553
 H   -1.170590    1.473454   -1.164739
 H   -3.584517    1.402705    0.518702
 H   -4.020884    2.745044   -1.618524
 H   -3.676706    1.276941   -2.541398
 H   -5.618810    0.143782   -1.397143
 H   -6.092573    1.607474   -2.257219
 H   -7.320812    1.336002    1.403304
 H   -6.926287    0.007500    0.358502
 H   -4.562815   -0.639557    0.596090
 H   -3.636129   -2.752104   -1.145376
 H   -2.225152   -3.057444    0.851643
 H   -3.143935   -5.289295    1.156569
 H   -3.234152   -3.753886    2.998254
 H   -4.860858   -3.517061    2.353147
 H   -3.777516   -2.131661    2.582019
 H   -5.198567   -4.687601   -0.359989
 H   -7.939709   -3.587725   -0.629015
 H   -9.113122   -5.172741    2.288453
 H   -7.312966   -5.462964   -2.157475
 H   -8.575770   -5.966717   -1.027726
 H   -6.902619   -6.473337   -0.764931
