55 
5yy6_ligand_dft.xyz
 C    1.873047    0.100604    0.275950
 C    0.667267    2.207633    0.289114
 C   -0.543937    0.121146    0.154907
 C   -1.804766   -0.632771    0.062112
 C   -4.231126   -0.517420   -0.069383
 C   -2.993965    1.551300    0.093430
 C   -4.854365   -0.949812    1.101274
 C   -6.651245   -1.815541   -0.268082
 C   -4.779115   -0.718006   -1.336663
 C    6.133159   -1.885420    0.024038
 C    6.663224   -1.107973   -1.179574
 C    5.553646   -0.245810   -1.798642
 C    4.912352    0.667207   -0.778908
 C    4.460143   -0.005438    0.529363
 C    5.543206   -0.948303    1.079791
 O    6.532645   -0.067236    1.596698
 O    4.729757    1.848556   -0.973668
 C    3.120900   -0.715971    0.312053
 O    3.073637   -1.925207    0.178343
 C    1.857745    1.502818    0.324284
 C   -0.555595    1.524217    0.209728
 C    0.658028   -0.573310    0.184751
 N   -2.958523    0.157276    0.033634
 O   -1.869830   -1.843816    0.012419
 O   -4.044661    2.158715    0.067262
 N   -1.764866    2.200178    0.182400
 C   -6.078950   -1.604790    0.980659
 C   -6.005395   -1.375629   -1.417378
 C   -4.216334   -0.716325    2.444435
 C   -4.063806   -0.233824   -2.569484
 C   -1.792711    3.655846    0.241131
 H    0.696429    3.289368    0.319375
 H   -7.606403   -2.326154   -0.346679
 H    5.358192   -2.593153   -0.283660
 H    6.940366   -2.470954    0.484101
 H    7.055758   -1.795564   -1.935283
 H    7.489491   -0.460126   -0.867245
 H    5.916036    0.367387   -2.627077
 H    4.762594   -0.906790   -2.182614
 H    4.327196    0.795642    1.261650
 H    5.100750   -1.545350    1.889477
 H    7.255002   -0.604814    1.943896
 H    2.787388    2.061335    0.353463
 H    0.637355   -1.656941    0.136904
 H   -6.585274   -1.952478    1.876855
 H   -6.455718   -1.542599   -2.391912
 H   -4.854985   -1.091846    3.248212
 H   -3.250181   -1.228294    2.512771
 H   -4.046009    0.351644    2.620497
 H   -4.623054   -0.495590   -3.471581
 H   -3.067115   -0.681606   -2.649517
 H   -3.944698    0.855314   -2.551420
 H   -2.835449    3.963441    0.217688
 H   -1.267099    4.082596   -0.618349
 H   -1.327671    4.008692    1.166330
