66 
5yzd_ligand_xtb.xyz
 C   -1.114075   -1.857175   -1.159161
 O   -0.735678   -1.025416   -1.958107
 O   -2.324004   -2.434453   -1.169043
 C   -3.264408   -1.936784   -2.127752
 C   -4.073076   -0.805771   -1.547918
 C   -5.330965   -1.037894   -1.007145
 C   -6.057616    0.002836   -0.453552
 C   -5.527132    1.281654   -0.425316
 C   -4.268937    1.518882   -0.953369
 C   -3.546518    0.479366   -1.512218
 N   -0.332401   -2.381618   -0.185847
 C    0.968885   -1.790171    0.066871
 C    0.781368   -0.477112    0.837556
 O    0.799137   -0.402250    2.056296
 C    1.896743   -2.733938    0.833199
 C    3.296787   -2.185739    0.754878
 C    4.093468   -2.459566   -0.349661
 C    3.787061   -1.345055    1.744679
 C    5.358219   -1.910796   -0.459447
 C    5.049940   -0.790982    1.633187
 C    5.838963   -1.073425    0.532257
 N    0.575003    0.574113    0.037539
 C    0.456627    1.932477    0.533195
 C   -1.012481    2.186646    0.903229
 O   -1.746969    2.937012    0.299367
 C    0.990242    2.896946   -0.528334
 C    2.388942    2.481677   -0.891846
 C    2.628251    1.682127   -2.001802
 C    3.454859    2.818090   -0.067022
 C    3.905539    1.229132   -2.281407
 C    4.732153    2.367997   -0.346251
 C    4.960378    1.569812   -1.453743
 N   -1.381998    1.464449    1.984595
 C   -2.767089    1.245465    2.301115
 C   -3.190206   -0.157047    1.906007
 O   -4.465930   -0.395394    2.202098
 O   -2.463691   -0.970910    1.402471
 H   -2.717972   -1.600655   -3.015503
 H   -3.899864   -2.789553   -2.377008
 H   -5.744481   -2.036807   -1.026991
 H   -7.038288   -0.184837   -0.040897
 H   -6.094784    2.091151    0.009135
 H   -3.838254    2.507914   -0.923677
 H   -2.565342    0.663109   -1.922203
 H   -0.807987   -2.824330    0.585687
 H    1.402960   -1.562329   -0.913481
 H    1.845656   -3.727228    0.384779
 H    1.565593   -2.786424    1.871423
 H    3.720303   -3.111252   -1.127280
 H    3.169448   -1.118031    2.600404
 H    5.969330   -2.136519   -1.321238
 H    5.418999   -0.136599    2.409218
 H    6.826642   -0.644577    0.448534
 H    0.374560    0.408096   -0.942130
 H    1.063691    1.990887    1.445006
 H    0.970270    3.909422   -0.123846
 H    0.330919    2.863262   -1.396841
 H    1.810950    1.414217   -2.656646
 H    3.280505    3.438876    0.800548
 H    4.076881    0.606691   -3.147218
 H    5.551660    2.638216    0.303263
 H    5.956696    1.216524   -1.672180
 H   -0.715952    0.781935    2.341797
 H   -2.957928    1.387113    3.369473
 H   -3.367610    1.965243    1.735894
 H   -4.729267   -1.280757    1.901921
