43 
5z1r_ligand_xtb.xyz
 C    2.891340   -2.002732    2.691129
 O    2.732997   -1.545968    1.363326
 C    2.260297   -0.298790    1.157064
 C    1.853148    0.587266    2.154330
 C    1.347871    1.830572    1.817801
 C    1.249675    2.205326    0.488164
Br    0.536162    3.897234    0.041275
 C    1.657414    1.344243   -0.516877
 C    2.154074    0.107839   -0.173194
 S    2.622614   -1.034265   -1.480335
 O    2.179016   -0.474526   -2.717329
 O    3.992690   -1.420993   -1.361984
 N    1.723900   -2.413455   -1.131112
 C    0.460750   -2.253181   -0.571067
 C   -0.348477   -1.214876   -1.024247
 C   -1.580656   -0.984392   -0.436342
 O   -2.308084    0.086776   -0.833947
 C   -3.721786    0.032944   -0.619026
 C   -4.225582    1.470103   -0.708292
 C   -4.371334   -0.854331   -1.691950
 C   -4.104009   -0.571948    0.738149
 O   -5.123903   -0.288687    1.325880
 N   -3.246712   -1.515131    1.202014
 C   -2.025563   -1.816666    0.598499
 C   -1.236518   -2.876538    1.014230
 C    0.005112   -3.091425    0.442318
 H    3.576609   -1.364367    3.254772
 H    1.927906   -2.060287    3.206512
 H    3.319139   -2.999800    2.607022
 H    1.917270    0.315996    3.195499
 H    1.025636    2.507652    2.594130
 H    1.588625    1.603494   -1.561701
 H    2.299699   -3.116326   -0.692934
 H   -0.019255   -0.585421   -1.832676
 H   -3.672563    2.096857   -0.013316
 H   -4.079971    1.850830   -1.714580
 H   -5.279229    1.499586   -0.448642
 H   -4.149274   -0.452004   -2.677261
 H   -3.979477   -1.868717   -1.633063
 H   -5.447716   -0.879283   -1.546859
 H   -3.507533   -2.009016    2.045999
 H   -1.588423   -3.520927    1.806265
 H    0.624493   -3.906410    0.783542
