47 
5z1s_ligand_dft.xyz
 C    0.942140   -4.421432   -1.497196
 O    0.394062   -3.588589   -0.502219
 C    1.014556   -2.400361   -0.244083
 C    2.105894   -1.912709   -0.953441
 C    2.652023   -0.675885   -0.613864
 N    3.720610   -0.109407   -1.319373
 C    4.453909    0.951495   -0.857551
 O    5.379251    1.424746   -1.487955
 C    4.054260    1.441889    0.544648
 C    4.842474    0.641297    1.586084
 C    4.307461    2.934979    0.664724
 O    2.642769    1.272157    0.759979
 C    2.131779    0.048166    0.454701
 C    1.066724   -0.454492    1.189418
 C    0.485865   -1.665896    0.832174
 N   -0.619392   -2.210026    1.527209
 S   -1.942120   -1.255538    1.911122
 O   -1.533700   -0.299454    2.925393
 O   -3.024527   -2.188280    2.154285
 C   -2.259669   -0.299090    0.432874
 C   -2.301445    1.082996    0.544461
 C   -2.530008    1.850653   -0.590254
Br   -2.590310    3.736019   -0.450062
 C   -2.702538    1.242722   -1.825482
 C   -2.649653   -0.143114   -1.938906
 C   -2.432127   -0.931181   -0.808638
 O   -2.352970   -2.275704   -0.818152
 C   -2.336760   -2.945012   -2.060860
 H    0.899285   -3.946655   -2.486575
 H    1.981072   -4.688548   -1.267424
 H    0.331754   -5.325191   -1.505581
 H    2.534309   -2.472781   -1.777312
 H    4.005855   -0.492038   -2.210217
 H    4.570036    0.986004    2.587798
 H    4.622910   -0.428998    1.516333
 H    5.915944    0.787169    1.436538
 H    3.699269    3.482167   -0.059937
 H    4.042260    3.269040    1.671498
 H    5.359481    3.151312    0.471909
 H    0.686293    0.112159    2.030896
 H   -0.943809   -3.082883    1.122155
 H   -2.143400    1.541203    1.513838
 H   -2.875020    1.848284   -2.708392
 H   -2.782794   -0.596973   -2.913534
 H   -3.287168   -2.820799   -2.592706
 H   -1.509884   -2.589324   -2.687775
 H   -2.188562   -3.998322   -1.825624
