44 
5z1t_ligand_xtb.xyz
 C   -3.155808   -1.713797   -2.523876
 O   -2.897326   -1.228109   -1.223799
 C   -2.322216   -0.018135   -1.079714
 C   -1.899523    0.809472   -2.120185
 C   -1.278042    2.014177   -1.842431
 C   -1.079470    2.408388   -0.529829
Br   -0.205612    4.044327   -0.165557
 C   -1.504977    1.608536    0.517730
 C   -2.118217    0.410516    0.232452
 S   -2.617658   -0.665419    1.584898
 O   -2.089851   -0.105543    2.789360
 O   -4.015161   -0.953190    1.526696
 N   -1.820959   -2.105260    1.248619
 C   -0.554635   -2.031571    0.679052
 C    0.340580   -1.052991    1.088783
 C    1.578754   -0.925990    0.478867
 O    2.393327    0.098420    0.839091
 C    3.794167   -0.078784    0.613724
 C    4.382254   -0.995947    1.697195
 C    4.417201    1.312651    0.669024
 C    4.107247   -0.739015   -0.735096
 O    5.136413   -0.551810   -1.344152
 N    3.170260   -1.621122   -1.168087
 C    1.939885   -1.809709   -0.540373
 C    1.066073   -2.818157   -0.924018
 C   -0.180358   -2.929989   -0.330452
 O   -1.087066   -3.884109   -0.710274
 H   -3.846973   -1.061415   -3.064347
 H   -2.230149   -1.827244   -3.096526
 H   -3.615461   -2.689552   -2.380372
 H   -2.043882    0.522806   -3.149300
 H   -0.944080    2.645817   -2.651455
 H   -1.363855    1.887174    1.550166
 H   -2.423413   -2.783566    0.804801
 H    0.067757   -0.384189    1.886335
 H    4.197281   -0.561969    2.676636
 H    3.914475   -1.978536    1.657696
 H    5.452661   -1.104028    1.546659
 H    3.907570    1.970545   -0.030183
 H    4.317651    1.721421    1.669834
 H    5.465860    1.250249    0.395534
 H    3.378833   -2.146723   -2.007267
 H    1.356537   -3.503192   -1.709417
 H   -0.677150   -4.480866   -1.346885
