49 
5z66_ligand_xtb.xyz
 O    4.055932    2.555950    0.807755
 C    3.903029    2.271163   -0.574060
 C    3.202613    0.941080   -0.665708
 C    1.923842    0.841631   -1.009957
 C    4.016995   -0.262547   -0.263812
 O    5.063382    0.006414    0.623194
 C    3.076206   -1.326668    0.336384
 O    3.753852   -2.512689    0.643564
 C    1.993244   -1.673663   -0.690894
 O    1.126094   -2.666604   -0.188078
 C    1.141422   -0.437138   -1.034655
 N    0.035545   -0.379809   -0.035656
 C   -1.270473    0.168264   -0.477134
 C   -1.901806    0.903816    0.728221
 O   -0.882511    1.217334    1.653424
 C   -2.168546   -0.951827   -1.001823
 C   -3.655310   -0.573027   -1.003246
 C   -3.980202    0.490898   -2.059179
 O   -3.310732    1.700151   -1.767024
 C   -4.148455   -0.163485    0.408418
 O   -4.954470   -1.153808    1.003198
 C   -2.986685    0.050135    1.389041
 O   -3.392264    0.745618    2.539686
 H    4.532846    3.386362    0.911526
 H    4.883615    2.199580   -1.062695
 H    3.308601    3.048091   -1.067505
 H    1.368366    1.726576   -1.284190
 H    4.484169   -0.695033   -1.162672
 H    4.840464    0.790989    1.149697
 H    2.613324   -0.912434    1.250195
 H    4.628615   -2.279509    0.984004
 H    2.492674   -2.039240   -1.598179
 H    1.681765   -3.364757    0.185376
 H    0.676823   -0.587116   -2.014636
 H   -0.059352   -1.367661    0.277871
 H    0.286818    0.205687    0.788850
 H   -1.085328    0.904294   -1.261193
 H   -2.377530    1.826123    0.373677
 H   -1.325840    1.472873    2.474483
 H   -2.049550   -1.837872   -0.375198
 H   -1.873287   -1.221826   -2.016491
 H   -4.212449   -1.470901   -1.290874
 H   -5.065623    0.649707   -2.078883
 H   -3.672648    0.118145   -3.046288
 H   -3.640376    2.387014   -2.356411
 H   -4.696782    0.786668    0.338320
 H   -5.786555   -1.241003    0.526283
 H   -2.588847   -0.934668    1.679654
 H   -4.162252    0.297851    2.909531
