20 
5z7b_ligand_xtb.xyz
 C    1.154709   -0.211237    0.000579
 C    0.902265   -1.577504   -0.040975
 C    0.086472    0.691429    0.030166
 C   -0.394696   -2.049972   -0.080345
 C   -1.212352    0.223233    0.011455
 O   -2.346470    0.998350    0.053916
 C   -1.459839   -1.162922   -0.056484
 C    2.573750    0.230934    0.040771
 C   -2.204215    2.393431    0.160468
 O    3.467204   -0.463132    0.441406
 O    2.830361    1.475557   -0.415564
 O   -2.727725   -1.625409   -0.088580
 H    1.739675   -2.256574   -0.048840
 H    0.268204    1.753527    0.115892
 H   -0.607116   -3.105511   -0.123914
 H   -1.670192    2.672567    1.073804
 H   -1.688997    2.810873   -0.710441
 H   -3.217411    2.789803    0.201379
 H    2.043983    1.898263   -0.783283
 H   -3.331665   -0.870236   -0.047829
