47 
5z7j_ligand_dft.xyz
 C   -4.034929    0.388377    0.376297
 C   -2.665119    1.052505    0.573385
 C   -2.348435    2.058272   -0.532359
 C   -0.948987    2.646410   -0.438948
 C   -0.629341    3.614019   -1.567260
 O   -0.034194    1.519336   -0.494540
 C    1.163258    1.677688    0.065068
 O    1.488623    2.758535    0.560257
 C    2.047115    0.501317    0.049414
 C    3.339339    0.671512    0.623239
 O    3.768520    1.823782    1.140671
 C    4.248403   -0.387917    0.679747
 C    3.890065   -1.622783    0.174002
 O    4.723727   -2.687821    0.188994
 C    2.627177   -1.817577   -0.395660
 C    1.699210   -0.787704   -0.455593
 C    0.395678   -1.130198   -1.077237
 C   -0.242773   -2.274604   -0.810694
 C   -1.518009   -2.729912   -1.481716
 C   -2.749135   -1.914913   -1.059616
 C   -3.025321   -1.968215    0.443413
 C   -4.144310   -1.033311    0.925525
 O   -4.131957   -0.931886    2.342722
 H   -4.276641    0.350409   -0.693407
 H   -4.821996    0.989964    0.844365
 H   -2.620021    1.537826    1.554555
 H   -1.871446    0.300427    0.570179
 H   -3.065439    2.889250   -0.516135
 H   -2.456910    1.572186   -1.512613
 H   -0.804613    3.136248    0.527903
 H    0.378603    4.019456   -1.455501
 H   -1.339820    4.446785   -1.553422
 H   -0.708617    3.109602   -2.536028
 H    3.028693    2.472488    1.061949
 H    5.221264   -0.203272    1.125302
 H    5.562794   -2.429215    0.590087
 H    2.398059   -2.786177   -0.822677
 H   -0.019009   -0.431889   -1.798328
 H    0.166160   -2.926515   -0.039976
 H   -1.684049   -3.790633   -1.259749
 H   -1.407228   -2.652218   -2.570171
 H   -3.628560   -2.261911   -1.617811
 H   -2.574428   -0.877273   -1.364352
 H   -2.111872   -1.709927    0.991351
 H   -3.275619   -3.000662    0.730195
 H   -5.113406   -1.441537    0.590454
 H   -4.116949   -1.826761    2.702955
