40 
5zbz_ligand_dft.xyz
 N    0.176231   -1.328563   -0.049941
 C   -6.195869   -1.076089    0.132399
 O   -4.981424   -1.788178   -0.050243
 C   -4.560675    0.429865    0.033237
 O   -5.918662    0.311384   -0.003356
 C   -3.983964   -0.857549    0.000472
 O    5.899056    0.012952   -0.199460
 C   -3.807506    1.557769    0.090005
 O    4.478506   -1.682605    0.436431
 C   -2.386901    1.402376    0.099280
 C   -1.806750    0.102816    0.046285
 C   -2.641886   -1.057361    0.013014
 C   -1.531475    2.527215    0.191810
 C   -0.170812    2.380313    0.205720
 C   -0.388782   -0.020006    0.039853
 C    1.413162   -1.430035    0.714238
 C    2.399767   -0.360149    0.322722
 C    1.895234    0.924470    0.014619
 C    0.429127    1.101916    0.098884
 C    2.763748    1.941036   -0.386463
 C    4.147899    1.740181   -0.477951
 C    4.615850    0.485182   -0.161789
 C    3.757838   -0.536835    0.221184
 C    5.840997   -1.278591    0.392633
 C    0.309616   -1.787520   -1.432501
 H   -6.589191   -1.273069    1.138309
 H   -6.912567   -1.378226   -0.634587
 H   -4.258002    2.543503    0.129396
 H   -2.202229   -2.046641    0.020288
 H   -1.974089    3.516904    0.266138
 H    0.458698    3.259124    0.305459
 H    1.837741   -2.427668    0.569462
 H    1.160866   -1.331943    1.778224
 H    2.366221    2.912139   -0.661569
 H    4.818213    2.530416   -0.795426
 H    6.240670   -1.230088    1.415329
 H    6.409353   -1.983028   -0.218025
 H    0.628299   -2.834889   -1.433944
 H   -0.663025   -1.722781   -1.927216
 H    1.033902   -1.196257   -2.015134
