35 
5zcu_ligand_xtb.xyz
 S   -2.902355   -0.287079   -0.948616
Br    3.511921    0.181598   -0.896247
 C    1.638266   -0.114052   -0.974745
 N   -3.223172    0.370900    0.548599
 O   -3.482962   -1.594988   -0.963051
 C    1.046430   -1.093811   -0.144586
 N   -0.921202    0.708699    2.060178
 O   -3.328724    0.669598   -1.924595
 C   -0.372878   -1.229328   -0.188694
 C   -1.105682   -0.369293   -1.031219
 C   -0.489226    0.539857   -1.840953
 C    0.904849    0.667622   -1.825546
 C   -0.990129   -2.200602    0.624408
 C   -0.244269   -2.989175    1.456722
 C    1.148732   -2.844495    1.513301
 C    1.780600   -1.921921    0.726306
 C   -2.687530    1.695632    0.760299
 C   -1.248090    1.679259    1.214709
 C    0.323340    0.637518    2.498545
 C    1.317880    1.521676    2.114123
 C    0.981024    2.536071    1.230846
 C   -0.323894    2.621550    0.775349
 H   -2.994996   -0.256032    1.307564
 H   -1.094698    1.167324   -2.475080
 H    1.389414    1.395291   -2.457923
 H   -2.057582   -2.328090    0.546241
 H   -0.726549   -3.732288    2.073260
 H    1.724987   -3.472490    2.175890
 H    2.855479   -1.824562    0.763648
 H   -3.299214    2.195502    1.520692
 H   -2.798042    2.231935   -0.183548
 H    0.525064   -0.173791    3.185499
 H    2.323916    1.418634    2.488393
 H    1.725382    3.245512    0.899838
 H   -0.625128    3.397286    0.088560
