59 
5zdb_ligand_dft.xyz
 N   -3.725300    3.666451   -1.024444
 C   -4.490201    2.632613   -1.379063
 N   -4.513899    1.405471   -0.859116
 C   -3.662177    1.295528    0.169550
 C   -2.833309    2.285699    0.671715
 C   -2.850989    3.510664   -0.020129
 N   -2.034479    4.545631    0.290548
 N   -2.048044    1.777420    1.691052
 C   -2.398948    0.513156    1.778462
 N   -3.379065    0.169196    0.900747
 P    0.788304   -1.574919    0.312001
 P    0.616445    1.361775   -0.072292
 C   -3.906779   -1.159143    0.591618
 O    1.585030   -2.390347    1.243364
 O    0.467312    2.403537    1.117594
 C    6.434561    0.353285    0.333882
 O    7.092188    0.382378   -0.908853
 C   -3.564210   -1.551399   -0.864332
 O   -4.618027   -1.332464   -1.759263
 O    1.191669   -1.571305   -1.211750
 O   -0.418086    1.312530   -1.109942
 C    5.616874   -0.955461    0.344778
 O    6.122774   -1.946971   -0.512614
 C   -3.315208   -3.054064   -0.723270
 O   -4.537560   -3.747016   -0.771340
 O    0.793474   -0.019724    0.783609
 C    4.194756   -0.485145   -0.101027
 O    3.815176   -1.129995   -1.299526
 C   -2.751459   -3.175614    0.694389
 O   -3.320885   -2.092706    1.444965
 C    4.346132    1.030656   -0.289862
 O    5.503807    1.381262    0.471647
 C   -1.241396   -3.141644    0.810931
 O   -0.773373   -1.903832    0.258965
 C    3.196528    1.867155    0.238584
 O    2.079154    1.655956   -0.629890
 H   -5.167852    2.811831   -2.209340
 H   -1.992723    5.282935   -0.398130
 H   -1.174004    4.339596    0.777262
 H   -1.969332   -0.211220    2.452684
 H   -4.993061   -1.132424    0.734351
 H   -0.407579    2.230236    1.585304
 H    7.146034    0.453581    1.158542
 H    7.623700    1.185240   -0.965319
 H   -2.645114   -1.036135   -1.168358
 H   -4.822017   -0.376513   -1.720832
 H    2.173207   -1.455882   -1.342737
 H    5.576028   -1.370758    1.352921
 H    6.707915   -1.489646   -1.139820
 H   -2.609457   -3.425616   -1.478571
 H   -5.102372   -3.236124   -1.373187
 H    3.469581   -0.714992    0.686419
 H    4.453900   -1.861931   -1.409544
 H   -3.105493   -4.110828    1.139257
 H    4.502434    1.238960   -1.354766
 H   -0.943027   -3.208508    1.860398
 H   -0.806933   -3.987647    0.267831
 H    3.451564    2.929439    0.215408
 H    2.962625    1.586240    1.269985
