59 
5zdb_ligand_xtb.xyz
 N    3.238231    3.585406    1.398843
 C    3.757978    2.518222    1.976392
 N    3.898704    1.302315    1.476921
 C    3.448877    1.215031    0.224164
 C    2.881465    2.263331   -0.511250
 C    2.767169    3.495631    0.153010
 N    2.241250    4.600532   -0.414258
 N    2.466173    1.782649   -1.732983
 C    2.781470    0.514657   -1.723022
 N    3.394889    0.116337   -0.584186
 P   -0.702684   -1.561384   -0.864647
 P   -0.419677    1.242612   -0.376677
 C    3.741615   -1.201723   -0.101474
 O   -1.630476   -2.452529   -1.549021
 O   -0.105953    2.281185   -1.516197
 C   -6.188003    0.384391   -0.033493
 O   -6.790295    0.611819    1.211182
 C    2.812492   -1.560721    1.088687
 O    3.459146   -1.428766    2.321474
 O   -0.691109   -1.649141    0.706137
 O    0.628125    0.948720    0.584989
 C   -5.367972   -0.925757    0.077079
 O   -5.699626   -1.684306    1.200292
 C    2.449024   -3.029458    0.813354
 O    3.300474   -3.911718    1.487899
 O   -0.947403   -0.024359   -1.240941
 C   -3.892442   -0.420328    0.166306
 O   -3.246342   -0.961982    1.284822
 C    2.651759   -3.162445   -0.705356
 O    3.617166   -2.182961   -1.079688
 C   -4.044506    1.111354    0.260014
 O   -5.288620    1.400128   -0.365151
 C    1.372722   -2.972680   -1.524891
 O    0.825933   -1.685332   -1.271186
 C   -2.949823    1.918582   -0.432620
 O   -1.743071    1.788180    0.298956
 H    4.103593    2.655415    2.992171
 H    2.060845    5.381504    0.193438
 H    1.693684    4.494370   -1.250205
 H    2.598906   -0.159798   -2.534685
 H    4.789728   -1.156324    0.240034
 H    0.838921    2.176711   -1.814685
 H   -6.945094    0.354591   -0.828459
 H   -7.171911    1.496409    1.213725
 H    1.911129   -0.938390    1.041426
 H    3.675705   -0.484402    2.427029
 H   -1.575176   -1.467846    1.079342
 H   -5.504408   -1.553928   -0.805347
 H   -6.176552   -1.104326    1.815079
 H    1.404316   -3.230372    1.085567
 H    3.648272   -3.429963    2.254187
 H   -3.347312   -0.696308   -0.741864
 H   -3.894341   -1.576679    1.690037
 H    3.081364   -4.143057   -0.937396
 H   -4.070717    1.393491    1.323573
 H    1.628095   -3.020013   -2.588032
 H    0.640172   -3.749323   -1.296855
 H   -3.236277    2.974190   -0.437281
 H   -2.826786    1.574896   -1.461252
