59 
5zdc_ligand_xtb.xyz
 N    3.183047    3.587781    1.411897
 C    3.722758    2.526411    1.981383
 N    3.882991    1.316065    1.474195
 C    3.434410    1.229877    0.221006
 C    2.850399    2.273565   -0.507786
 C    2.711366    3.497865    0.166384
 N    2.160127    4.595628   -0.391273
 N    2.442614    1.794037   -1.732497
 C    2.777095    0.530961   -1.730397
 N    3.396037    0.135008   -0.593694
 P   -0.685103   -1.558794   -0.838068
 P   -0.438810    1.253688   -0.367496
 C    3.758387   -1.181348   -0.117611
 O   -1.607348   -2.466000   -1.508728
 O   -0.128276    2.280976   -1.518186
 C   -6.176702    0.298551   -0.079386
 O   -6.829920    0.559155    1.132432
 C    2.836283   -1.554697    1.073760
 O    3.486900   -1.428432    2.304817
 O   -0.653498   -1.639763    0.732599
 O    0.607491    0.976456    0.600723
 C   -5.324758   -0.981827    0.113071
 O   -5.649000   -1.684478    1.274762
 C    2.479208   -3.023294    0.788384
 O    3.338091   -3.906523    1.451796
 O   -0.955622   -0.027056   -1.218064
 C   -3.864438   -0.434553    0.190434
 O   -3.202811   -0.930133    1.320633
 C    2.676189   -3.142343   -0.732240
 O    3.640943   -2.159703   -1.099512
 C   -4.060776    1.093981    0.242295
 O   -5.296232    1.328428   -0.420980
 C    1.393830   -2.943224   -1.544139
 O    0.840073   -1.664632   -1.263560
 C   -2.971223    1.911885   -0.445685
 O   -1.768301    1.800361    0.295322
 H    4.067560    2.663051    2.997592
 H    1.960549    5.364926    0.225396
 H    1.606365    4.481101   -1.222185
 H    2.605322   -0.141057   -2.546445
 H    4.807157   -1.127177    0.220298
 H    0.817257    2.176625   -1.816538
 H   -6.903256    0.213681   -0.898417
 H   -7.236351    1.431335    1.083291
 H    1.931121   -0.937003    1.035046
 H    3.694273   -0.483141    2.418578
 H   -1.530430   -1.447908    1.116300
 H   -5.433964   -1.662615   -0.733576
 H   -6.162102   -1.089295    1.844126
 H    1.436542   -3.231699    1.063066
 H    3.685170   -3.430305    2.221683
 H   -3.312716   -0.717409   -0.711017
 H   -3.848270   -1.520016    1.764895
 H    3.104822   -4.120270   -0.976155
 H   -4.122000    1.402342    1.297267
 H    1.646722   -2.967590   -2.608673
 H    0.665464   -3.727815   -1.330289
 H   -3.269350    2.964093   -0.459369
 H   -2.836992    1.562988   -1.471060
