59 
5zdf_ligand_xtb.xyz
 N   -1.615352    3.457387   -1.693769
 C   -2.748650    2.853487   -1.987571
 N   -3.376313    1.906581   -1.308384
 C   -2.754619    1.620570   -0.160409
 C   -1.587228    2.233444    0.312982
 C   -0.967775    3.146985   -0.564101
 N    0.208295    3.738079   -0.303816
 N   -1.265431    1.703641    1.540221
 C   -2.180743    0.806745    1.773629
 N   -3.110024    0.702246    0.788480
 P    0.116277   -0.847368   -0.252945
 P    1.528438    0.629946    1.808878
 C   -4.102247   -0.337151    0.624426
 O    0.853641   -2.186765   -0.655177
 O    0.782075    1.032691    3.121881
 C    3.381677    0.270777   -1.354653
 O    2.583777    0.037020   -2.446525
 C   -4.065451   -0.869584   -0.836800
 O   -5.193456   -0.509135   -1.576407
 O    0.217430    0.270136   -1.184688
 O    1.849769    1.713468    0.880958
 C    4.833846   -0.128366   -1.671779
 O    4.855350   -1.238731   -2.528675
 C   -3.967076   -2.393093   -0.646642
 O   -5.222715   -3.005684   -0.629122
 O    0.593373   -0.565913    1.245996
 C    5.402653   -0.548120   -0.297112
 O    6.263900   -1.633522   -0.381065
 C   -3.306501   -2.497983    0.739196
 O   -3.838432   -1.409776    1.478491
 C    4.126869   -0.850408    0.542817
 O    3.002664   -0.604323   -0.284930
 C   -1.771578   -2.453009    0.684121
 O   -1.376557   -1.322641   -0.088771
 C    4.029959    0.022669    1.797920
 O    2.772657   -0.146080    2.419208
 H   -3.214474    3.151780   -2.917722
 H    0.617207    4.236405   -1.078959
 H    0.836073    3.228562    0.307873
 H   -2.230773    0.201738    2.657672
 H   -5.096794    0.067595    0.867266
 H    1.786964   -2.003207   -0.817763
 H   -0.022570    1.518416    2.843277
 H    3.314033    1.310817   -1.002550
 H    1.657789    0.237924   -2.188819
 H   -3.150452   -0.518750   -1.321822
 H   -5.069149    0.416376   -1.836030
 H    5.392801    0.703525   -2.116440
 H    4.049598   -1.185781   -3.065637
 H   -3.334898   -2.845773   -1.422082
 H   -5.824164   -2.438080   -1.133055
 H    5.956458    0.277104    0.161768
 H    6.028548   -2.123434   -1.186255
 H   -3.623153   -3.409973    1.252268
 H    4.094540   -1.907069    0.831141
 H   -1.371651   -2.360858    1.696981
 H   -1.383517   -3.362188    0.219509
 H    4.155499    1.073005    1.517942
 H    4.786524   -0.270087    2.527780
