59 
5ze6_ligand_xtb.xyz
 C  -10.064855    2.646569    0.924388
 O    7.151982    1.140648    1.590865
 O    6.284152   -0.855797    1.343965
 O    6.235956    3.201101    0.427685
 C    3.437357    2.205559   -1.582046
 C    4.397948    2.977746   -0.978632
 C    3.379785    0.838048   -1.353614
 C   -8.868799    2.452448    0.000542
 C   -7.884758    1.424254    0.552861
 C   -6.684877    1.222587   -0.368974
 C   -5.693958    0.205889    0.192766
 C   -4.505363   -0.002921   -0.742928
 C   -3.433264   -0.933372   -0.172205
 C   -3.877174   -2.392940   -0.114450
 C   -2.858067   -3.326350    0.542782
 C   -1.533856   -3.457134   -0.222368
 C   -0.419796   -2.575209    0.339598
 C    0.866019   -2.705729   -0.473664
 C    1.972509   -1.805498    0.068181
 C    3.255779   -1.953507   -0.747732
 O    4.302790   -1.121407   -0.275383
 C    6.302707    0.441890    1.061419
 C    5.335030    2.393197   -0.121332
 C    4.295044    0.229521   -0.511398
 C    5.296338    0.999436    0.130952
 H  -10.604581    1.710418    1.051179
 H   -9.737966    2.987435    1.904477
 H  -10.750197    3.385200    0.515089
 H    5.572988   -1.316400    0.861737
 H    6.829245    2.659067    1.009959
 H    2.714910    2.659108   -2.243073
 H    4.459909    4.040732   -1.143166
 H    2.616077    0.261982   -1.847434
 H   -8.354660    3.407185   -0.133077
 H   -9.218050    2.125687   -0.981713
 H   -8.399787    0.470185    0.689313
 H   -7.534522    1.752882    1.534327
 H   -6.177610    2.179501   -0.515262
 H   -7.034259    0.882952   -1.347101
 H   -6.212342   -0.740886    0.353333
 H   -5.331178    0.554496    1.162709
 H   -4.050190    0.970196   -0.945267
 H   -4.860507   -0.403461   -1.695515
 H   -3.164677   -0.596754    0.832042
 H   -2.545547   -0.856462   -0.802515
 H   -4.082972   -2.744536   -1.128629
 H   -4.807609   -2.461283    0.452016
 H   -3.320135   -4.312804    0.622977
 H   -2.656904   -2.979778    1.558652
 H   -1.696563   -3.211004   -1.273647
 H   -1.194785   -4.494726   -0.183914
 H   -0.221296   -2.864673    1.373995
 H   -0.736320   -1.531767    0.345011
 H    0.662237   -2.441936   -1.514522
 H    1.202703   -3.744792   -0.457634
 H    2.185598   -2.063370    1.107631
 H    1.643834   -0.764275    0.047491
 H    3.070806   -1.774559   -1.812382
 H    3.652815   -2.966819   -0.639031
