59 
5ze6_ligand_dft.xyz
 C   -9.750536    2.477861    0.962456
 O    5.891673    1.787501    2.000910
 O    5.805662    3.065552    0.183828
 O    7.133302    1.407368   -1.657547
 C    4.991067   -1.491881   -1.743730
 C    5.958495   -0.566584   -2.092757
 C    4.218773   -1.350208   -0.591896
 C   -8.907444    2.074390   -0.245866
 C   -7.646044    1.301271    0.139980
 C   -6.794401    0.892457   -1.061451
 C   -5.533649    0.120296   -0.672699
 C   -4.693798   -0.295305   -1.881185
 C   -3.374714   -1.001458   -1.546251
 C   -3.541559   -2.323854   -0.771741
 C   -3.478219   -2.204457    0.763809
 C   -2.082386   -2.428171    1.357289
 C   -1.014708   -1.438584    0.889559
 C    0.335063   -1.657177    1.573196
 C    1.409984   -0.684566    1.088201
 C    2.735645   -0.898054    1.808420
 O    3.744881    0.001493    1.370396
 C    5.691857    1.852969    0.822976
 C    6.165697    0.540610   -1.268417
 C    4.431084   -0.251719    0.240319
 C    5.407002    0.710923   -0.098067
 H  -10.074186    1.596001    1.527437
 H   -9.178016    3.116671    1.644917
 H  -10.646689    3.029409    0.659871
 H    5.337811    3.021414   -0.663506
 H    7.243393    2.112037   -1.002387
 H    4.824134   -2.352940   -2.383962
 H    6.565696   -0.676851   -2.983519
 H    3.463566   -2.090547   -0.361088
 H   -8.622213    2.971610   -0.811379
 H   -9.511904    1.461631   -0.928025
 H   -7.930634    0.402991    0.706580
 H   -7.040450    1.913714    0.823443
 H   -6.510773    1.790410   -1.628757
 H   -7.399519    0.278584   -1.743940
 H   -5.824190   -0.768682   -0.096556
 H   -4.922908    0.738041    0.001875
 H   -4.472441    0.597832   -2.481439
 H   -5.296595   -0.953102   -2.523905
 H   -2.735642   -0.313803   -0.977759
 H   -2.847910   -1.196373   -2.488527
 H   -2.771223   -3.037354   -1.093474
 H   -4.498806   -2.774837   -1.064438
 H   -4.156235   -2.939461    1.214392
 H   -3.846769   -1.219667    1.077088
 H   -1.751594   -3.448652    1.115604
 H   -2.152793   -2.381034    2.452605
 H   -1.356581   -0.411771    1.082494
 H   -0.880792   -1.519711   -0.197406
 H    0.667322   -2.690108    1.395029
 H    0.211871   -1.558136    2.660895
 H    1.087432    0.349990    1.256632
 H    1.550028   -0.797213    0.006156
 H    3.084456   -1.934836    1.717059
 H    2.625754   -0.683122    2.874433
