20 
5zef_ligand_dft.xyz
 N    0.739439    1.846611   -0.021565
 C    0.570882    0.545756    0.732130
 C   -0.906158    0.151169    0.844298
 C   -1.610676   -0.082277   -0.496628
 C   -3.078292   -0.458744   -0.297595
 C    1.388166   -0.460385   -0.080533
 O    1.473900   -1.623385    0.528660
 O    1.856142   -0.172054   -1.158525
 H    1.407995    2.478688    0.426849
 H    1.124276    1.589969   -0.953941
 H   -0.145653    2.347388   -0.139180
 H    1.013960    0.670475    1.722622
 H   -1.426816    0.919920    1.429689
 H   -0.937813   -0.763065    1.445800
 H   -1.099683   -0.879741   -1.049837
 H   -1.557470    0.814821   -1.131213
 H   -3.566622   -0.621993   -1.261134
 H   -3.624371    0.331963    0.227112
 H   -3.170288   -1.379933    0.286008
 H    1.982547   -2.244372   -0.022927
