20 
5zef_ligand_xtb.xyz
 N    0.778315    1.814940   -0.028913
 C    0.565261    0.553891    0.736012
 C   -0.914801    0.182674    0.842860
 C   -1.611410    0.027637   -0.511485
 C   -3.042628   -0.461602   -0.318786
 C    1.369765   -0.500861   -0.055835
 O    1.319820   -1.693911    0.451500
 O    1.968708   -0.145110   -1.042071
 H    1.215242    2.568197    0.507907
 H    1.426202    1.495890   -0.813530
 H   -0.105401    2.144780   -0.436555
 H    0.999561    0.632457    1.736012
 H   -1.433238    0.932783    1.443001
 H   -0.976820   -0.763787    1.381598
 H   -1.066942   -0.687864   -1.130507
 H   -1.645149    0.978977   -1.051604
 H   -3.539629   -0.559781   -1.279084
 H   -3.609395    0.238595    0.289326
 H   -3.053539   -1.430547    0.171924
 H    1.835557   -2.352540   -0.048121
