26 
5zeq_ligand_dft.xyz
 C   -1.873765    0.325208    0.740111
 C   -3.137340    0.313815    0.187530
Cl   -4.116086    1.763015    0.195230
 C   -3.639202   -0.871058   -0.388157
 N   -4.902632   -0.952946   -0.911322
 N   -2.903624   -1.986041   -0.402671
 C   -1.688834   -1.959677    0.141151
 C   -1.106445   -0.842563    0.729553
 C    0.295599   -0.877683    1.280036
 C    1.377549   -0.525047    0.231902
 C    1.128975    0.851911   -0.355032
 O    0.771862    1.084496   -1.480821
 O    1.314633    1.824895    0.565295
 C    2.770824   -0.627865    0.855880
Se    4.208462   -0.017394   -0.315651
 H   -1.484394    1.239564    1.178456
 H   -5.345417   -0.101808   -1.221272
 H   -5.063682   -1.769222   -1.482319
 H   -1.140952   -2.900831    0.103393
 H    0.386454   -0.185145    2.124416
 H    0.516328   -1.879963    1.665684
 H    1.296145   -1.219876   -0.609802
 H    1.154046    2.665026    0.106647
 H    2.977953   -1.653043    1.168864
 H    2.843751    0.021103    1.732429
 H    3.933199   -1.020098   -1.368945
