42 
5zg0_ligand_xtb.xyz
 C    2.385721   -0.135807   -0.658239
 C    0.490026    1.185760    0.075745
 C    3.239254    0.596693    0.160303
 C   -2.630799    3.193917   -0.348670
 C   -1.355425    2.885454   -0.130540
 C   -0.942346    1.508690    0.012724
 C   -4.038824   -1.415111    0.726081
 C    5.036455   -1.968752    0.253934
 C    1.356598    1.919566    0.887320
 C    1.034752    0.163087   -0.698214
 C    2.701739    1.631672    0.930141
 C   -3.658832    2.118254   -0.520250
 C   -1.907541    0.551404    0.126507
 C   -4.285678   -0.143866   -0.057669
 C    6.721285   -0.234667   -0.452376
 C    5.244067   -0.616083   -0.428455
 N   -1.576394   -0.743093    0.512814
 N   -3.253067    0.860461    0.098651
 O   -2.610423   -2.119225   -1.389670
 O   -1.994699   -3.182566    0.737179
 O    4.581534    0.421050    0.281487
 S   -2.498199   -2.043486    0.037218
 H    2.754836   -0.934580   -1.282465
 H   -2.972769    4.208988   -0.468045
 H   -0.596459    3.648443   -0.060381
 H   -0.586768   -0.896418    0.640480
 H   -4.838793   -2.133877    0.580538
 H   -3.856641   -1.240778    1.781205
 H    5.550582   -2.748018   -0.302150
 H    5.435970   -1.932134    1.264661
 H    3.979463   -2.217235    0.312092
 H    0.963348    2.715710    1.501914
 H    0.397007   -0.398297   -1.367874
 H    3.371578    2.197278    1.558985
 H   -3.865674    1.963773   -1.600033
 H   -4.604583    2.423386   -0.053794
 H   -5.227752    0.316837    0.264539
 H   -4.388291   -0.422289   -1.120037
 H    6.849040    0.729130   -0.937997
 H    7.097129   -0.161336    0.564605
 H    7.292626   -0.984249   -0.992208
 H    4.869560   -0.655479   -1.461795
