44 
5zg1_ligand_xtb.xyz
 C    2.317502    0.342273    1.014834
 C    0.549939    1.128531   -0.412426
 C    3.174881    0.173518   -0.070416
 C   -2.407712    3.130094    0.572582
 C   -1.154920    2.815696    0.297047
 C   -0.861295    1.630328   -0.574580
 C   -3.663501   -1.297228    0.980102
 C    5.384990   -0.486028   -1.134767
 C    4.581570   -0.354882    0.161923
 C    1.392925    0.966914   -1.497137
 C    1.030532    0.810552    0.850380
 C    2.685025    0.497856   -1.328177
 C   -3.506183    2.272699    0.020854
 C   -1.849658    0.511409   -0.292317
 C   -4.151500   -0.126305    0.154870
 C    5.331872    0.607565    1.093869
 C    4.488936   -1.743296    0.809842
 N   -1.403078   -0.682508   -0.356309
 N   -3.110768    0.874970    0.011760
 O   -2.935514   -2.443153   -1.284493
 O   -1.563211   -2.936127    0.693525
 S   -2.332041   -1.995497   -0.060045
 H    2.652942    0.099511    2.011713
 H   -2.685084    3.975448    1.180694
 H   -0.313744    3.377780    0.669790
 H   -1.021093    1.921854   -1.622839
 H   -4.431952   -2.049108    1.119455
 H   -3.224229   -1.003389    1.928295
 H    5.500346    0.478386   -1.624333
 H    6.378557   -0.867901   -0.908216
 H    4.906965   -1.181005   -1.820723
 H    1.041695    1.202974   -2.491828
 H    0.385267    0.922997    1.710093
 H    3.302440    0.385455   -2.204333
 H   -3.752580    2.599381   -1.002293
 H   -4.408665    2.373721    0.628312
 H   -5.026951    0.347098    0.609898
 H   -4.434521   -0.517060   -0.832382
 H    6.344973    0.249629    1.264975
 H    5.386842    1.598142    0.646651
 H    4.835422    0.695265    2.056131
 H    3.921711   -2.417188    0.171958
 H    5.485019   -2.157095    0.954004
 H    3.995602   -1.698112    1.776394
