47 
5zhj_ligand_xtb.xyz
 N    2.885121    0.214258   -1.136220
 C    3.028781   -0.700118    0.022041
 C    2.431890   -2.082601   -0.269854
 C    0.919892   -2.154897   -0.106128
 S    0.010780   -1.077569   -1.291885
 C    4.542912   -0.831580    0.240905
 O    4.854001   -1.467758    1.341764
 O    5.313101   -0.387381   -0.569700
 C   -1.532722   -2.007558   -1.503859
 C   -2.593431   -1.687514   -0.450663
 O   -2.027814   -1.587093    0.849700
 C   -3.364872   -0.382552   -0.714912
 O   -4.561713   -0.700185   -1.364581
 C   -3.602655    0.179484    0.708338
 O   -4.792435   -0.292993    1.256601
 C   -2.400424   -0.384094    1.479988
 N   -1.250067    0.502577    1.465199
 C   -0.093490    0.211973    2.134700
 N    0.942792    0.888713    1.742464
 C    0.463797    1.710121    0.752528
 C    1.059801    2.597689   -0.140624
 N    2.452674    2.723902   -0.229737
 N    0.316067    3.222789   -1.035475
 C   -0.986587    2.976965   -1.069590
 N   -1.657953    2.112881   -0.335101
 C   -0.918582    1.479475    0.568503
 H    3.778845    0.145438   -1.661178
 H    2.768379    1.248163   -0.823100
 H    2.083083   -0.056743   -1.718546
 H    2.550785   -0.265090    0.910330
 H    2.713341   -2.391443   -1.279116
 H    2.865898   -2.795553    0.434009
 H    0.587236   -3.172661   -0.302471
 H    0.620367   -1.873439    0.901377
 H    5.815035   -1.559149    1.464474
 H   -1.265661   -3.063183   -1.479023
 H   -1.912453   -1.755157   -2.493359
 H   -3.321394   -2.512411   -0.451847
 H   -2.756325    0.322927   -1.295075
 H   -5.003071    0.108730   -1.651048
 H   -3.597108    1.275053    0.724217
 H   -5.259497   -0.810861    0.580343
 H   -2.659208   -0.604585    2.521315
 H   -0.068471   -0.525324    2.913748
 H    2.903206    2.764605    0.678433
 H    2.712686    3.509721   -0.818211
 H   -1.555586    3.530751   -1.801532
