46 
5zjf_ligand_xtb.xyz
 O    5.341960   -0.086210    0.247745
 O   -2.583251   -2.683353   -0.992128
 O    4.603728   -2.269952    0.240198
 O   -3.959430   -2.799809    0.853132
 C   -0.104018    1.968010    0.419816
 C   -1.281781    2.916187    0.118968
 C    0.831050    1.760289   -0.783314
 C   -2.305149    2.286772   -0.847418
 C    0.698714    2.446854    1.628329
 C   -0.846949    4.274573   -0.427130
 C    1.807353    0.645952   -0.530885
 C   -2.800330    0.950104   -0.374414
 C    3.149399    0.939685   -0.272612
 C   -2.398708   -0.215887   -1.033334
 C    1.374442   -0.672801   -0.532262
 C   -3.634227    0.866982    0.731679
 C    3.997551   -0.111166   -0.027189
 C   -2.842184   -1.415909   -0.536749
 C    3.550580   -1.431431   -0.031312
 C   -3.672876   -1.485916    0.580748
 C    2.235838   -1.737407   -0.282949
 C   -4.088391   -0.350446    1.231275
 C    5.725722   -1.433394    0.414185
 C   -3.281185   -3.553150   -0.127711
 H   -0.537669    0.995941    0.678568
 H   -1.794471    3.082331    1.073216
 H    1.377801    2.682042   -0.982263
 H    0.234926    1.515289   -1.663030
 H   -1.858999    2.184837   -1.837198
 H   -3.149957    2.974229   -0.935749
 H    1.445059    1.702930    1.896225
 H    0.045503    2.601048    2.484275
 H    1.214146    3.379977    1.414757
 H   -1.707886    4.934722   -0.509954
 H   -0.124452    4.747096    0.232092
 H   -0.404606    4.173600   -1.414880
 H    3.512357    1.954285   -0.265761
 H   -1.767366   -0.180282   -1.906038
 H    0.335700   -0.885969   -0.732967
 H   -3.946321    1.776196    1.222535
 H    1.890899   -2.757581   -0.289389
 H   -4.737103   -0.404975    2.089161
 H    6.497356   -1.691304   -0.329701
 H    6.139113   -1.576219    1.426098
 H   -2.568198   -4.237557    0.360036
 H   -4.008986   -4.143448   -0.707939
