49 
5zk3_ligand_dft.xyz
 C    1.505852    0.232457    0.991972
 C    2.602910   -0.472896    0.193627
 C    3.832624    0.184235    0.090727
 C    4.880334   -0.393780   -0.613604
 C    4.714552   -1.637710   -1.220552
 C    3.495717   -2.296786   -1.118712
 C    2.441519   -1.716207   -0.415748
 C    0.884426    1.426724    0.256394
 C    0.217867    2.399969    1.005836
 C   -0.421662    3.461256    0.368603
 C   -0.403275    3.557081   -1.021709
 C    0.260289    2.586602   -1.769926
 C    0.900571    1.524784   -1.134271
 C    0.327480   -0.701121    1.329162
 O    2.004122    0.728232    2.208627
 O    0.056921   -1.097504    2.433654
 O   -0.452211   -0.949233    0.252603
 C   -1.738938   -1.493550    0.513226
 C   -2.606072   -0.467062    1.273607
 N   -3.532467    0.192118    0.286765
 C   -2.746306    0.710465   -0.899335
 C   -2.272123   -0.499435   -1.719240
 C   -2.385118   -1.763385   -0.849738
 C   -3.870755   -2.078069   -0.611365
 C   -4.585255   -0.788105   -0.166288
 H    3.962160    1.146021    0.576590
 H    5.831049    0.124722   -0.686234
 H    5.536118   -2.091530   -1.765568
 H    3.360977   -3.268948   -1.582509
 H    1.497202   -2.247077   -0.353435
 H    0.238962    2.337840    2.089400
 H   -0.912960    4.227681    0.961011
 H   -0.884136    4.394703   -1.517755
 H    0.299630    2.666807   -2.852129
 H    1.427826    0.778910   -1.721053
 H    2.196058   -0.025219    2.784777
 H   -1.645069   -2.403419    1.110201
 H   -2.002426    0.315407    1.735109
 H   -3.222963   -0.937165    2.041506
 H   -3.986719    0.983292    0.746267
 H   -1.915954    1.292754   -0.494631
 H   -3.407419    1.375669   -1.457482
 H   -2.878907   -0.621820   -2.620933
 H   -1.240885   -0.328596   -2.029481
 H   -1.887877   -2.605980   -1.333578
 H   -3.982036   -2.859470    0.146706
 H   -4.331487   -2.451901   -1.528310
 H   -5.131696   -0.305757   -0.979271
 H   -5.270661   -0.946500    0.668381
