48 
5zk3_ligand_xtb.xyz
 C    6.083012   -0.157363   -3.382617
 C    7.050805   -0.984320   -2.540560
 C    8.282215   -1.363252   -3.063213
 C    9.179623   -2.069460   -2.283935
 C    8.857205   -2.403172   -0.978207
 C    7.630075   -2.031975   -0.458104
 C    6.730486   -1.321255   -1.234203
 C    5.897440   -0.710951   -4.783416
 C    5.941370   -2.078921   -5.014787
 C    5.719229   -2.578399   -6.285883
 C    5.444515   -1.718081   -7.334927
 C    5.377488   -0.354896   -7.104552
 C    5.596199    0.146397   -5.833680
 C    6.730596    1.233354   -3.396587
 O    4.819004   -0.039718   -2.774202
 O    6.279610    2.136523   -2.731472
 O    7.811285    1.293640   -4.147353
 C    8.588348    2.497636   -4.097604
 C    9.622010    2.427082   -2.948044
 N   10.975509    2.410911   -3.459804
 C   11.151024    1.277427   -4.353338
 C   10.246502    1.399601   -5.598060
 C    9.357388    2.632726   -5.414430
 C   10.240867    3.878892   -5.314461
 C   11.250416    3.650347   -4.167412
 H    8.530605   -1.106402   -4.082060
 H   10.134402   -2.361565   -2.696844
 H    9.561122   -2.952550   -0.370833
 H    7.370309   -2.292743    0.557190
 H    5.768514   -1.036156   -0.836798
 H    6.146296   -2.752669   -4.196541
 H    5.757702   -3.644326   -6.455974
 H    5.274327   -2.108898   -8.327336
 H    5.149721    0.321198   -7.915676
 H    5.526366    1.210506   -5.658320
 H    4.780756    0.843807   -2.369727
 H    7.900140    3.338749   -3.955061
 H    9.512629    3.281963   -2.278488
 H    9.456616    1.514143   -2.368865
 H   12.205521    1.236532   -4.634999
 H   10.916555    0.374203   -3.786719
 H   10.840849    1.519781   -6.504838
 H    9.621858    0.514989   -5.717394
 H    8.654010    2.719115   -6.246879
 H   10.756345    4.036157   -6.262165
 H    9.620964    4.755338   -5.119436
 H   11.209983    4.465595   -3.441887
 H   12.271188    3.591461   -4.549502
