73 
5zkb_ligand_xtb.xyz
 C  -61.048035  -13.242334   11.120185
 C  -58.900946  -13.980637   11.008675
 C  -57.131963  -15.244122   11.989030
 N  -60.186390  -14.242286   11.103553
 C  -57.230800  -16.357179   12.821220
 C  -56.357123  -16.521152   13.879044
 N  -58.026040  -15.085407   10.910316
 C  -55.373099  -15.574611   14.121918
 C  -55.274277  -14.466236   13.305342
 C  -56.155502  -14.277649   12.241308
 C  -58.278144  -16.037954    9.922915
 N  -57.469324  -17.130838    9.969148
 C  -57.512314  -18.093296    8.891023
 C  -56.693234  -17.672323    7.652168
 C  -56.422020  -18.758768    5.460248
 N  -57.309974  -18.248241    6.480070
 N  -57.021672  -12.408663   10.895389
 C  -55.938131  -13.060422   11.415995
 O  -54.829027  -12.592035   11.249475
 C  -58.383631  -12.677655   10.986014
 C  -55.917240  -17.695556    4.478926
 C  -57.124550  -17.027673    3.830415
 C  -58.000565  -16.423477    4.922580
 C  -58.430214  -17.466785    5.970142
 C  -59.302009  -11.631541   10.991710
 C  -59.540316  -18.414725    5.477784
 C  -61.480948  -18.010802    6.892230
 C  -61.739031  -17.898943    8.395824
 C  -62.990526  -17.080907    8.685827
 C  -60.622771  -20.279411    6.615466
 C  -59.461663  -21.055745    7.241219
 C  -59.669600  -22.561763    7.147525
 C  -60.655933  -11.914793   11.053514
 N  -60.338629  -18.858881    6.605824
 O  -59.130430  -15.864991    9.082570
 H  -62.088677  -13.526456   11.182268
 H  -58.002913  -17.085212   12.624178
 H  -56.445812  -17.388214   14.516031
 H  -54.686737  -15.702410   14.944523
 H  -54.509862  -13.721660   13.468241
 H  -56.622521  -17.083166   10.514007
 H  -58.553527  -18.199909    8.579467
 H  -57.161313  -19.052786    9.272943
 H  -55.664994  -18.031461    7.741789
 H  -56.660529  -16.571402    7.615870
 H  -56.963740  -19.520811    4.888539
 H  -55.582946  -19.256798    5.952486
 H  -56.779308  -11.513239   10.484239
 H  -55.278137  -18.160369    3.725878
 H  -55.326676  -16.948545    5.014758
 H  -57.693135  -17.771243    3.267485
 H  -56.804458  -16.249446    3.133086
 H  -57.433948  -15.637407    5.429193
 H  -58.888791  -15.960275    4.489964
 H  -58.855470  -16.922790    6.818604
 H  -58.949814  -10.610929   10.935629
 H  -60.159090  -17.902705    4.724486
 H  -59.091763  -19.284377    4.998216
 H  -61.267647  -17.009006    6.514589
 H  -62.392211  -18.374897    6.383309
 H  -61.842223  -18.895866    8.828439
 H  -60.879480  -17.412373    8.855452
 H  -63.157246  -17.009762    9.757824
 H  -62.879007  -16.073919    8.291013
 H  -63.867774  -17.536576    8.228374
 H  -61.524048  -20.455645    7.206620
 H  -60.818402  -20.665151    5.599136
 H  -58.534444  -20.771467    6.743037
 H  -59.371649  -20.756251    8.285930
 H  -58.838776  -23.092985    7.606108
 H  -60.586316  -22.854421    7.655810
 H  -59.743523  -22.874847    6.107806
 H  -61.385019  -11.120423   11.050079
