48 
5zlf_ligand_dft.xyz
 C   -5.649801    0.586159   -0.218728
 C   -6.985763    0.968010   -0.340343
 C   -7.954091   -0.025716   -0.410896
 C   -7.602358   -1.381801   -0.362476
 C   -6.276032   -1.783030   -0.241898
 C   -5.328733   -0.774536   -0.173089
 O   -3.979165   -0.971672   -0.053381
 C   -3.412720    0.274031   -0.020284
 C   -4.379800    1.282057   -0.119133
 C   -3.986018    2.618659   -0.114970
 C   -2.630429    2.902998   -0.013825
 C   -1.684212    1.878105    0.079627
 C   -2.044607    0.525980    0.076521
 C   -1.027533   -0.548375    0.168033
 C    0.194047   -0.406517   -0.502864
 C   -1.232744   -1.698537    0.939630
 C   -0.237339   -2.665110    1.036604
 C    0.981155   -2.498756    0.386190
 C    1.209238   -1.360566   -0.388081
 C    2.548873   -1.096044   -1.025454
 C    3.616310   -0.560101   -0.038404
 P    5.098883   -0.056742   -1.060753
 O    4.562456    1.153109   -1.957140
 O    5.612362   -1.231325   -1.786754
 O    6.178657    0.530478   -0.027192
 P    3.038084    0.883757    0.940842
 O    2.794034    2.033835    0.032185
 O    1.886516    0.460934    1.956925
 O    4.256492    1.143603    1.965714
 O    4.021342   -1.535712    0.909309
 H   -7.262436    2.017172   -0.378916
 H   -8.999608    0.249627   -0.505782
 H   -8.380398   -2.136514   -0.421109
 H   -5.989607   -2.828003   -0.205328
 H   -4.719606    3.415336   -0.188355
 H   -2.293786    3.934456   -0.000564
 H   -0.633884    2.141095    0.175110
 H    0.361116    0.470983   -1.123013
 H   -2.170751   -1.832063    1.466490
 H   -0.408528   -3.550329    1.641296
 H    1.764165   -3.242643    0.491773
 H    2.436149   -0.376012   -1.841684
 H    2.967616   -2.006346   -1.468117
 H    3.942554    1.732859   -1.458664
 H    5.822257    1.179311    0.602012
 H    1.071536    0.177522    1.504224
 H    4.474997    0.327393    2.446224
 H    4.597478   -2.166529    0.448768
