95 
5zms_ligand_xtb.xyz
 C    3.820801   -0.533777   -0.875167
 N    2.243936    1.551009    5.157657
 O    2.504092   -2.522171   -0.607469
 C    2.840695   -1.592524   -1.323795
 N    1.925752    1.173453    7.398926
 C    3.289816    0.142072    0.367434
 N    0.126150    1.808144    6.049868
 C    3.425370   -0.459116    1.610452
 C    2.654947    1.374911    0.289478
 C    2.983461    0.180067    2.756709
 C    2.395602    1.434262    2.686666
 C    2.218545    2.012784    1.434284
 C    1.980547    2.222482    3.906571
 C    1.381099    1.560821    6.210804
 N    2.305569   -1.424419   -2.553959
 C    1.430331   -2.405707   -3.184340
 C   -0.000800   -2.250694   -2.643327
 O   -0.994130   -2.059604   -3.359002
 C    1.484937   -2.299364   -4.709457
 C    1.101175   -0.905609   -5.229146
 C    0.566569   -0.905230   -6.664798
 C   -0.668137   -1.775317   -6.885397
 N   -1.682875   -1.545838   -5.832941
 N   -0.081755   -2.330022   -1.327477
 C   -1.268041   -1.942153   -0.588538
 C   -1.357358   -0.415938   -0.737842
 O   -0.672317    0.360974   -0.095112
 C   -1.201197   -2.422668    0.866228
 C    0.085849   -2.080045    1.620239
 C    0.095788   -2.686749    3.024903
 C   -0.770845   -1.957670    4.047745
 N   -0.259405   -0.608884    4.305385
 N   -2.218524    0.008622   -1.680339
 C   -2.364650    1.411267   -2.002603
 C   -3.577071    2.049916   -1.293612
 C   -3.427075    2.106858    0.226751
 C   -2.295509    3.043416    0.673186
 N   -2.239447    3.216187    2.108949
 C   -1.636028    2.378758    2.976592
 N   -1.677582    2.659485    4.275381
 N   -1.002056    1.298274    2.570644
 C   -2.450552    1.607327   -3.506673
 O   -2.329799    0.717936   -4.319002
 O   -2.648858    2.868101   -3.828265
 H    4.001914    0.196928   -1.662863
 H    4.758716   -1.038193   -0.633911
 H    3.220977    1.460813    5.393263
 H    1.369836    1.232841    8.234461
 H    2.921844    1.154078    7.532098
 H   -0.392126    1.759755    6.919940
 H    3.894339   -1.428066    1.684313
 H    2.526822    1.856052   -0.669434
 H    3.124165   -0.298370    3.713976
 H    1.755224    2.985877    1.361256
 H    0.911970    2.427770    3.867508
 H    2.506915    3.187906    3.879966
 H    2.605699   -0.650563   -3.123633
 H    1.777115   -3.400977   -2.871169
 H    2.488719   -2.556522   -5.048220
 H    0.808910   -3.059120   -5.100141
 H    0.363620   -0.450078   -4.566228
 H    1.979819   -0.258497   -5.221690
 H    0.333181    0.125135   -6.937638
 H    1.344203   -1.253116   -7.344557
 H   -1.095788   -1.547111   -7.863320
 H   -0.404127   -2.833481   -6.876444
 H   -1.310023   -1.832243   -4.863698
 H   -1.926173   -0.550590   -5.727520
 H   -2.536273   -2.074172   -6.020144
 H    0.773292   -2.545230   -0.802781
 H   -2.141892   -2.393212   -1.075087
 H   -2.059975   -2.000561    1.390771
 H   -1.320796   -3.508146    0.855759
 H    0.219688   -1.001842    1.680171
 H    0.947299   -2.492607    1.095974
 H   -0.230675   -3.726220    2.971436
 H    1.124153   -2.687815    3.391800
 H   -1.798614   -1.858460    3.689419
 H   -0.796124   -2.561955    4.963686
 H   -0.646831    0.581509    3.262360
 H    0.748423   -0.639476    4.423938
 H   -0.650318   -0.240160    5.167230
 H   -2.681511   -0.656155   -2.283101
 H   -1.451181    1.920285   -1.668801
 H   -4.468490    1.471085   -1.541380
 H   -3.705812    3.059669   -1.683465
 H   -4.367919    2.468267    0.644603
 H   -3.251658    1.106011    0.623613
 H   -1.329855    2.657630    0.340008
 H   -2.443523    4.030042    0.229491
 H   -2.793187    3.962488    2.498835
 H   -2.130876    3.504766    4.578596
 H   -0.973891    2.240535    4.946521
 H   -0.919961    1.073310    1.589128
 H   -2.716359    3.016558   -4.786683
