56 
5zqr_ligand_dft.xyz
 C    1.674751   -0.019749    0.056345
 C    2.986412   -0.758678    0.224106
 C    3.285973   -1.959101    0.827058
 C    4.570374   -2.500052    0.813450
 C    5.545219   -1.786155    0.136083
 C   -6.853874    0.466026    0.330268
 C   -5.358513    0.319746    0.282229
 C   -4.539783    1.168431    1.171046
 C   -2.621478    0.207503    0.259204
 C   -0.457303    0.841116    1.130961
 C    0.893474    0.172833    1.364180
 C    5.309038   -0.581296   -0.516979
 C    4.005662   -0.086848   -0.469980
 C    4.347600    2.103905   -1.566698
 C    5.074533    2.903538   -0.490452
 C    2.176760    1.334400   -0.521237
 C    0.772757   -0.774700   -0.943022
 C   -0.597089   -0.120939   -1.101364
 C   -4.747266   -0.576140   -0.516899
 C   -5.466899   -1.530157   -1.430574
 C   -6.954182   -1.620564   -1.077873
 C   -7.538333   -0.224684   -0.850731
 F    2.314893   -2.646912    1.456682
 F    6.791909   -2.281222    0.110061
 N   -3.149592    1.081408    1.054465
 N   -1.249819    0.040595    0.198027
 N    3.499917    1.042434   -1.076134
 N   -3.362258   -0.632166   -0.537205
 O   -5.058664    1.936394    1.965669
 O    4.113506    3.653201    0.227309
 H    4.794640   -3.435938    1.308058
 H   -7.100475    1.532165    0.363756
 H   -7.220906    0.053098    1.279669
 H   -0.331152    1.864916    0.742461
 H   -1.016940    0.928275    2.061305
 H    1.482617    0.777020    2.062811
 H    0.729626   -0.802866    1.831517
 H    6.118652   -0.079644   -1.032982
 H    5.088500    1.673744   -2.251623
 H    3.726643    2.788383   -2.154354
 H    5.811840    3.561199   -0.977621
 H    5.620482    2.214054    0.170369
 H    2.252108    2.091350    0.269413
 H    1.526836    1.735105   -1.306793
 H    0.638980   -1.800196   -0.580667
 H    1.266481   -0.826667   -1.920257
 H   -1.210231   -0.731752   -1.767298
 H   -0.499149    0.863823   -1.588378
 H   -4.999918   -2.523016   -1.372675
 H   -5.343817   -1.188529   -2.468021
 H   -7.073724   -2.216281   -0.164049
 H   -7.488287   -2.145265   -1.876817
 H   -7.397725    0.375244   -1.760048
 H   -8.617384   -0.288285   -0.675460
 H   -2.919092   -1.436577   -0.953143
 H    4.546699    4.056567    0.987522
