52 
5zqu_ligand_xtb.xyz
 O   -6.693772   -1.513629    1.115526
 C   -6.296860   -0.275855    0.756901
 O   -7.083740    0.627884    0.713963
 C   -4.854762   -0.119131    0.408443
 C   -4.521788    0.896631   -0.470417
 C   -3.865161   -0.946932    0.981283
 C   -2.532968   -0.809885    0.674069
 C   -2.201090    0.172863   -0.252792
 C   -3.180460    1.039583   -0.806766
 N   -2.526999    1.920391   -1.617272
 N   -1.290538    1.663265   -1.591305
 N   -1.034612    0.613791   -0.793008
 C    0.270771    0.122353   -0.595599
 C    1.234061    0.991524   -0.114051
 C    2.542562    0.584475    0.115260
 C    3.534149    1.610989    0.627856
 C    3.452584    2.901197   -0.201313
 C    3.196082    1.935198    2.089936
 C    4.966874    1.076415    0.517103
 C    5.080127   -0.361405    0.994076
 C    4.252803   -1.322848    0.132776
 C    4.939025   -1.556029   -1.220691
 C    4.166147   -2.659387    0.885041
 C    2.869176   -0.754074   -0.118931
 C    1.896103   -1.598006   -0.645698
 C    0.597896   -1.195758   -0.908689
 C   -0.385986   -2.141519   -1.528732
 H   -5.981685   -2.163324    1.049336
 H   -5.281268    1.546015   -0.873061
 H   -4.146290   -1.683444    1.722742
 H   -1.776824   -1.419541    1.143319
 H    0.936301    2.010362    0.075524
 H    3.503831    2.675465   -1.264198
 H    2.534532    3.449346   -0.011772
 H    4.286974    3.551067    0.054453
 H    2.184466    2.325339    2.171084
 H    3.263628    1.047029    2.713290
 H    3.884760    2.683489    2.476221
 H    5.631714    1.712062    1.105889
 H    5.290464    1.140121   -0.523105
 H    4.738913   -0.428731    2.028798
 H    6.126164   -0.674071    0.973780
 H    5.015001   -0.629428   -1.783591
 H    5.939669   -1.955670   -1.070785
 H    4.371902   -2.264156   -1.819765
 H    5.161088   -2.961119    1.205812
 H    3.535625   -2.561194    1.766311
 H    3.764855   -3.452878    0.261261
 H    2.155739   -2.619375   -0.877589
 H   -0.955161   -2.673572   -0.766213
 H   -1.091072   -1.611119   -2.165998
 H    0.136103   -2.881230   -2.130954
