69 
5zwe_ligand_dft.xyz
 O    6.659856   -1.898486   -1.244747
 C    6.836624   -0.922171   -0.546317
 C    8.175261   -0.626699    0.105436
 C    9.206660   -1.727522   -0.096378
 C    5.698939    0.038124   -0.246993
 C    4.836548   -0.529946    0.894165
 C    3.587948    0.304296    1.245365
 C    3.993283    1.683279    1.777725
 C    2.600267    0.364997    0.065893
 C    2.216135   -1.051345   -0.453161
 C    0.764589   -0.964500   -0.981801
 C    0.463910    0.532408   -0.972071
 C    1.231002    1.070305    0.272508
 C    0.564965    0.608771    1.578473
 C    1.244582    2.604711    0.179365
 C   -0.171888    3.185035    0.056634
 C   -0.979539    2.555046   -1.092564
 C   -0.949162    1.044335   -1.038914
 C   -2.022279    0.235865   -1.033659
 C   -3.419834    0.651437   -1.081058
 C   -4.500720   -0.145596   -0.991176
 C   -4.469857   -1.631500   -0.725958
 C   -5.897399    0.427614   -1.012287
 C   -6.625920    0.129543    0.308599
 O   -7.936985    0.635955    0.193874
 C   -6.554374   -1.355222    0.594711
 C   -7.628014   -2.132291    0.699357
 C   -5.140139   -1.899205    0.638327
 O   -4.376693   -1.325356    1.687767
 H    8.532455    0.329950   -0.302762
 H    7.996044   -0.433311    1.172689
 H    8.855723   -2.670448    0.332167
 H   10.155900   -1.462241    0.378339
 H    9.384201   -1.899880   -1.161060
 H    5.102383    0.133296   -1.159283
 H    6.086946    1.027357    0.021971
 H    5.454285   -0.617570    1.798499
 H    4.542857   -1.548828    0.621388
 H    3.091949   -0.236118    2.064232
 H    4.834884    1.597446    2.475168
 H    3.173305    2.163439    2.318122
 H    4.295179    2.358162    0.968369
 H    3.094419    0.907782   -0.754084
 H    2.280557   -1.784472    0.359089
 H    2.915431   -1.386666   -1.225263
 H    0.645939   -1.402303   -1.977128
 H    0.086019   -1.503655   -0.311963
 H    0.987580    0.968357   -1.840316
 H    0.656566   -0.472665    1.723141
 H   -0.503253    0.844191    1.593498
 H    1.028608    1.094826    2.444144
 H    1.831562    2.897912   -0.703445
 H    1.737710    3.054060    1.046714
 H   -0.110576    4.268338   -0.097374
 H   -0.713075    3.036955    0.998750
 H   -1.997224    2.952878   -1.083195
 H   -0.527890    2.869084   -2.045522
 H   -1.838348   -0.834268   -0.996685
 H   -3.610011    1.714289   -1.218087
 H   -5.035285   -2.161336   -1.503170
 H   -3.457393   -2.041604   -0.709766
 H   -5.885047    1.508908   -1.180089
 H   -6.488160   -0.030840   -1.817115
 H   -6.086416    0.653858    1.114881
 H   -8.360506    0.543087    1.056179
 H   -8.631201   -1.733979    0.580163
 H   -7.536991   -3.198786    0.887888
 H   -5.168260   -2.975916    0.832690
 H   -3.959829   -0.524802    1.337753
