67 
5zwe_ligand_xtb.xyz
 O   10.243314    3.062907   27.680589
 C   10.248013    1.966066   28.194344
 C    9.220473    1.618904   29.204157
 C    9.025371    0.427391   29.752142
 C   11.256786    0.894036   27.846814
 C   12.369694    1.380303   26.916007
 C   13.338166    2.352858   27.602945
 C   14.251376    1.582105   28.561671
 C   14.216870    3.191881   26.653890
 C   14.798156    2.471831   25.419264
 C   15.056762    3.569070   24.364207
 C   14.769148    4.877443   25.100498
 C   13.628028    4.495479   26.072949
 C   12.316753    4.281842   25.318776
 C   13.465084    5.617902   27.097722
 C   13.209429    6.957885   26.406692
 C   14.262581    7.272494   25.335073
 C   14.429329    6.135645   24.363224
 C   14.300142    6.210799   23.033114
 C   13.952647    7.380736   22.266458
 C   13.855552    7.467303   20.933498
 C   13.512652    8.763705   20.259398
 C   14.154192    6.376694   19.953140
 C   15.331863    6.797407   19.041173
 O   15.602203    5.813703   18.068351
 C   14.988603    8.104677   18.380969
 C   14.905939    8.266514   17.072686
 C   14.696916    9.200668   19.373114
 O   15.861794    9.426138   20.142980
 H    8.581406    2.452421   29.467388
 H    8.239089    0.264757   30.470744
 H    9.626201   -0.433215   29.510437
 H   10.705889    0.085103   27.358131
 H   11.669995    0.492941   28.773024
 H   12.924124    0.509093   26.560172
 H   11.900138    1.862861   26.062676
 H   12.744587    3.059890   28.190251
 H   14.879487    2.266681   29.127328
 H   13.677875    0.995968   29.275712
 H   14.896352    0.905165   28.004966
 H   15.069220    3.515247   27.264598
 H   14.101005    1.732802   25.030184
 H   15.718542    1.948490   25.678557
 H   14.382435    3.443665   23.518218
 H   16.078201    3.539765   23.985141
 H   15.648534    5.102603   25.719297
 H   11.503883    4.115558   26.020101
 H   12.081004    5.154625   24.715098
 H   12.383452    3.433690   24.644658
 H   12.633886    5.396877   27.770171
 H   14.374724    5.692526   27.700906
 H   13.213693    7.756010   27.153096
 H   12.221265    6.948862   25.945657
 H   15.225232    7.439687   25.830100
 H   13.989004    8.198067   24.830675
 H   14.476276    5.310229   22.463668
 H   13.728035    8.273841   22.835330
 H   13.292987    9.543205   20.993861
 H   12.637325    8.639477   19.616476
 H   13.285129    6.203737   19.310709
 H   14.404382    5.438844   20.449583
 H   16.218484    6.965481   19.673969
 H   15.845389    5.000126   18.522378
 H   14.648835    9.215473   16.633513
 H   15.103968    7.447348   16.405654
 H   14.426870   10.123215   18.832572
 H   15.630261    9.980502   20.896158
