72 
5zwf_ligand_dft.xyz
 O    6.691655    1.640494   -1.097323
 C    6.542097    0.936647   -0.120639
 C    7.493491    0.994266    1.066223
 C    8.357101    2.253076    1.108081
 C    7.555068    3.510265    1.442602
 C    5.403635   -0.064195   -0.016849
 C    4.670557   -0.279165   -1.337291
 C    3.494627   -1.274405   -1.279163
 C    3.994832   -2.684460   -0.940222
 C    2.374962   -0.783554   -0.342329
 C    1.886148    0.649431   -0.705444
 C    0.382067    0.722949   -0.350690
 C    0.131423   -0.564776    0.429607
 C    1.062603   -1.611627   -0.250365
 C    0.548248   -1.985959   -1.649823
 C    1.108380   -2.849006    0.660517
 C   -0.295090   -3.402845    0.944467
 C   -1.260303   -2.335869    1.491124
 C   -1.264227   -1.085683    0.640462
 C   -2.351592   -0.487765    0.125440
 C   -3.734726   -0.923614    0.275262
 C   -4.826297   -0.327733   -0.240493
 C   -4.829839    0.952691   -1.039727
 C   -6.211977   -0.854292    0.047287
 C   -7.000844    0.217436    0.828400
 O   -6.419838    0.429918    2.105231
 C   -7.031097    1.484867   -0.002385
 C   -8.155779    2.003992   -0.484963
 C   -5.656569    2.033393   -0.321918
 O   -5.665267    3.174572   -1.150070
 H    8.124289    0.095567    0.996153
 H    6.917963    0.876634    1.994761
 H    8.843501    2.376442    0.135261
 H    9.149891    2.112333    1.851967
 H    8.204272    4.390654    1.482956
 H    7.059995    3.414197    2.416467
 H    6.788316    3.694941    0.684160
 H    4.723286    0.319663    0.757618
 H    5.802517   -1.003785    0.388853
 H    4.328632    0.692883   -1.704753
 H    5.392457   -0.635770   -2.081913
 H    3.081584   -1.305332   -2.297210
 H    4.193452   -2.798480    0.132111
 H    3.267557   -3.450625   -1.222094
 H    4.924088   -2.904785   -1.478402
 H    2.784420   -0.758274    0.679264
 H    2.467399    1.407284   -0.170760
 H    2.036855    0.843231   -1.773313
 H    0.122924    1.614523    0.227940
 H   -0.221455    0.747886   -1.264554
 H    0.558562   -0.416248    1.436802
 H    1.119982   -2.824813   -2.061791
 H   -0.506444   -2.275623   -1.628027
 H    0.636592   -1.153218   -2.355258
 H    1.585101   -2.568740    1.611392
 H    1.722286   -3.643452    0.225591
 H   -0.715757   -3.830224    0.026563
 H   -0.224886   -4.225969    1.664688
 H   -2.257607   -2.768764    1.601913
 H   -0.928087   -2.054246    2.501898
 H   -2.192634    0.419143   -0.451155
 H   -3.903447   -1.834335    0.847328
 H   -5.303081    0.779948   -2.015775
 H   -3.828559    1.345520   -1.226045
 H   -6.175463   -1.779208    0.632946
 H   -6.743415   -1.063446   -0.890357
 H   -8.023364   -0.128425    1.008999
 H   -5.466847    0.285683    2.014149
 H   -9.124288    1.570948   -0.248950
 H   -8.147014    2.863748   -1.148291
 H   -5.153862    2.261556    0.632361
 H   -6.093512    3.886725   -0.659214
