59 
5zyg_ligand_dft.xyz
 C   -2.365986    1.340659    0.578476
 C   -0.882442   -1.021921    0.909877
 C   -2.226372   -0.997854    1.264058
 C   -2.946577    0.189944    1.106679
 C   -0.259664    0.121776    0.399810
 C    2.009787    1.183087    0.324708
 C    1.177099    0.097277    0.028570
 C   -1.011596    1.284633    0.234120
 C    3.067357   -1.037506   -0.986189
 C    3.354485    1.167958   -0.023159
 O    5.756684   -0.800946   -2.301727
 S    5.607273    0.009125   -1.096667
 O    6.116583    1.378313   -1.036337
 C    6.356591   -0.914566    0.252895
 C    6.332124   -0.173699    1.580136
 O    6.943314   -1.033288    2.519925
 C    3.874274    0.052052   -0.671017
 C    1.725265   -1.009005   -0.633714
 C   -3.167190    2.621859    0.318247
 C   -4.613136    2.516501    0.822790
 C   -2.494400    3.812854    1.025138
 C   -3.207707    2.874769   -1.201150
 C   -2.935314   -2.251839    1.713946
 C   -3.550572   -3.016334    0.518752
 C   -4.534147   -2.155284   -0.233724
 C   -4.212619   -1.586881   -1.467709
 C   -5.118066   -0.724619   -2.072440
 N   -5.692357   -1.902770    0.389920
 C   -6.555684   -1.076544   -0.202486
 C   -6.320590   -0.458041   -1.426999
 H   -0.305482   -1.933479    1.050771
 H   -3.995699    0.184209    1.381979
 H    1.601080    2.041938    0.848503
 H   -0.530264    2.154441   -0.204929
 H    3.483832   -1.881697   -1.526646
 H    4.000333    2.012550    0.194118
 H    7.385917   -1.100795   -0.068022
 H    5.835015   -1.872933    0.323451
 H    5.293274    0.056642    1.861499
 H    6.874653    0.774797    1.473072
 H    6.998642   -0.564420    3.360108
 H    1.083719   -1.843248   -0.900897
 H   -4.653887    2.327542    1.901287
 H   -5.136812    3.459266    0.630398
 H   -5.164629    1.720188    0.310842
 H   -3.063558    4.731809    0.843475
 H   -2.448098    3.647523    2.107016
 H   -1.473915    3.980105    0.665677
 H   -3.682029    2.031828   -1.716041
 H   -3.783295    3.781455   -1.421830
 H   -2.203616    3.003911   -1.618368
 H   -3.742921   -2.001416    2.409671
 H   -2.241208   -2.916846    2.239734
 H   -4.066071   -3.905817    0.895284
 H   -2.750412   -3.346595   -0.153266
 H   -3.254662   -1.803029   -1.929852
 H   -4.886822   -0.265002   -3.029031
 H   -7.485652   -0.897722    0.333661
 H   -7.059493    0.209892   -1.857000
