77 
5zz4_ligand_dft.xyz
 C   -0.809383   -0.960814   -2.511198
 C   -2.136551   -1.129655   -2.140054
 C   -1.958111    0.790720   -0.635663
 C   -0.059521    0.074753   -1.979809
 O   -4.662990   -2.426251   -1.667673
 C   -4.923315   -1.429453   -1.013963
 C   -6.272311   -1.241696   -0.380499
 C   -7.355358   -1.898522   -0.958523
 C   -8.631931   -1.769882   -0.423307
 C   -8.869425   -0.996428    0.716139
 C  -10.261078   -0.834175    1.338740
 C  -10.239199   -1.376011    2.780996
 C  -10.639960    0.659136    1.355140
 C  -11.341155   -1.594365    0.556881
 C   -7.767234   -0.360486    1.302098
 C   -6.491941   -0.476726    0.768319
 N   -4.050645   -0.389756   -0.801312
 C   -2.705351   -0.260466   -1.207312
 C   -2.594185    1.634348    0.444626
 C   -0.630513    0.961824   -1.061187
 C    0.234804    2.082378   -0.600189
 N   -0.311414    3.282906   -0.428649
 N    1.533740    1.796888   -0.443118
 C    2.297315    2.833025   -0.090928
 N    1.870662    4.087068    0.118805
 C    0.558563    4.244007   -0.059570
 N    0.040556    5.473909    0.160137
 N    3.639435    2.664853    0.089163
 C    4.467401    1.541598   -0.042323
 C    5.843257    1.759188    0.114754
 C    6.739776    0.706993    0.022819
 C    6.289105   -0.589113   -0.235911
 C    4.922998   -0.793365   -0.421404
 C    4.009056    0.246156   -0.312072
 C    7.223270   -1.744677   -0.433491
 O    7.076431   -2.517499   -1.370922
 N    8.274063   -1.882870    0.435258
 C    9.260518   -2.913638    0.124915
 C   10.439218   -2.777700    1.095429
 O   10.739837   -1.419034    1.320903
 C    9.717071   -0.750258    2.035091
 C    8.338189   -1.379711    1.794549
 H   -0.365592   -1.640813   -3.231486
 H   -2.735863   -1.929821   -2.550328
 H    0.973242    0.221312   -2.275783
 H   -7.182310   -2.514625   -1.834815
 H   -9.448421   -2.289886   -0.911351
 H   -9.963649   -2.435922    2.794554
 H   -9.524478   -0.834780    3.409214
 H  -11.229983   -1.273278    3.238532
 H   -9.933410    1.252638    1.944235
 H  -10.657808    1.067747    0.339022
 H  -11.634962    0.792037    1.795347
 H  -11.421797   -1.238195   -0.476024
 H  -11.146710   -2.672270    0.537815
 H  -12.314406   -1.443075    1.035778
 H   -7.899625    0.232619    2.202499
 H   -5.663824    0.004397    1.283535
 H   -4.450221    0.424383   -0.363523
 H   -3.328740    2.339823    0.033571
 H   -3.102932    0.996187    1.177699
 H   -1.859742    2.234760    0.976111
 H   -0.905623    5.646889   -0.137313
 H    0.674095    6.248760    0.268854
 H    4.099052    3.529602    0.337604
 H    6.212984    2.764945    0.299981
 H    7.803959    0.901680    0.126171
 H    4.571121   -1.792106   -0.659783
 H    2.950969    0.068773   -0.440662
 H    9.590388   -2.764886   -0.906085
 H    8.818391   -3.917683    0.185843
 H   11.333567   -3.230294    0.661872
 H   10.234480   -3.296486    2.045296
 H    9.730912    0.286382    1.682915
 H    9.936656   -0.750743    3.114085
 H    8.166790   -2.208396    2.496749
 H    7.548386   -0.650305    1.970853
