40 
6a1c_ligand_dft.xyz
 C   -3.984608    1.803042   -0.006817
 C   -4.020640    0.332021    0.127636
 C   -2.887619   -0.387655    0.128574
 C   -1.554190    0.219102   -0.015860
 C   -1.474098    1.531775   -0.295803
 C   -2.675481    2.385392   -0.561089
 C   -1.845025    4.533809   -1.044802
 C   -0.335081   -0.572818    0.211523
 C    2.112094   -2.251877   -0.056337
Br   -2.983620   -2.265706    0.348597
 O   -2.515360    3.701076   -0.126639
 O   -4.945795    2.497110    0.229942
 N    0.776409   -0.137538   -0.242777
 N    1.898633   -0.890603    0.015534
 C    3.160895   -0.343303    0.127542
 N    4.048972   -1.302156    0.156578
 N    3.391385   -2.501629    0.029772
 S    0.855053   -3.446463   -0.333454
 C    1.925813   -4.851726   -0.750225
 C    3.458224    1.090880    0.220799
 C    2.584390    2.004917    0.818871
 C    2.924931    3.351207    0.892006
 C    4.140050    3.795919    0.379032
 C    5.020236    2.886123   -0.202217
 C    4.683170    1.541055   -0.282661
 H   -4.989875   -0.120145    0.302380
 H   -0.496295    2.001047   -0.366312
 H   -2.839161    2.353232   -1.660445
 H   -0.816181    4.197565   -1.240593
 H   -2.386700    4.588056   -2.000372
 H   -1.810454    5.527671   -0.596181
 H   -0.419430   -1.487798    0.798429
 H    2.528247   -4.621757   -1.629695
 H    2.579102   -5.090881    0.088780
 H    1.253836   -5.686778   -0.958513
 H    1.647066    1.665257    1.245240
 H    2.242047    4.052087    1.362862
 H    4.403798    4.847605    0.438267
 H    5.972390    3.225835   -0.598061
 H    5.360547    0.822929   -0.732605
