54 
6a73_ligand_dft.xyz
 C   -0.863054    1.244699   -0.500326
 C   -1.406497   -0.087825    0.007664
 C   -0.560733   -1.302590   -0.284487
 C    0.893082   -1.081226    0.034627
 C    1.507379    0.183369   -0.534093
 C    0.669579    1.480155   -0.422467
 O   -1.542734    2.198527    0.290180
 P   -2.292511    3.498916   -0.295607
 O   -3.047417    3.000856   -1.601247
 O   -1.356725    4.621862   -0.531113
 O   -3.370653    3.753520    0.831448
 O   -2.644645   -0.319282   -0.655961
 P   -4.085211   -0.129521    0.036694
 O   -4.969645   -1.090519   -0.850145
 O   -3.948767   -0.762369    1.486326
 O   -4.538868    1.286358    0.045298
 O   -0.971654   -2.355001    0.581409
 P   -1.925953   -3.569063    0.123110
 O   -3.367657   -3.208943    0.150683
 O   -1.515097   -4.682072    1.164199
 O   -1.392650   -3.997869   -1.310671
 O    1.648018   -2.124592   -0.560268
 P    2.079950   -3.497533    0.139344
 O    1.068015   -4.578084   -0.004473
 O    2.325659   -3.157723    1.682676
 O    3.471777   -3.741249   -0.548663
 O    2.704606    0.349978    0.194964
 P    4.169617    0.190361   -0.460980
 O    4.566723   -1.207087   -0.731855
 O    4.110107    1.115872   -1.757746
 O    5.033777    0.926054    0.639811
 O    0.992840    2.178937    0.766696
 P    1.995096    3.442936    0.603246
 O    1.277711    4.434770   -0.378974
 O    3.370943    3.116968    0.143834
 O    1.997349    4.010464    2.086976
 H   -1.160637    1.328613   -1.551662
 H   -1.547530   -0.013534    1.090778
 H   -0.673637   -1.594220   -1.334275
 H    1.022985   -1.076903    1.121791
 H    1.708565    0.004499   -1.596807
 H    0.930590    2.109006   -1.280474
 H   -3.754380    2.363413   -1.350565
 H   -3.967211    2.978110    0.911334
 H   -4.607347   -2.002857   -0.820908
 H   -3.779732   -1.727620    1.406292
 H   -0.552288   -4.867257    1.096243
 H   -0.470052   -4.329508   -1.230344
 H    3.173625   -2.718758    1.844941
 H    3.943038   -2.886708   -0.742130
 H    3.921287    2.037390   -1.479667
 H    4.654710    1.818750    0.801801
 H    0.277563    4.524800   -0.369495
 H    1.118997    4.236868    2.423452
