62 
6aa4_ligand_dft.xyz
 C   -3.977906    4.339459    1.397477
 C   -3.696633    3.523340    0.133199
 C   -4.808909    3.734871   -0.898165
 C   -3.511776    2.044741    0.495419
 C   -3.163333    1.143205   -0.698057
 C   -2.848859   -0.267270   -0.256311
 C   -1.526664   -0.747544   -0.134628
 C   -0.347934    0.116544   -0.500849
 O   -0.317182    1.358343    0.244297
 C    0.952254   -0.611928   -0.336261
 C    2.165781    0.047897   -0.614711
 O    2.152397    1.360417   -0.955189
 C    3.397668   -0.600322   -0.563872
 C    4.680307    0.129500   -0.867159
 C    5.261904    0.821353    0.373950
 C    6.533906    1.636783    0.105336
 C    6.936101    2.419202    1.358498
 C    7.694840    0.758770   -0.370743
 C    3.396043   -1.941630   -0.156637
 O    4.607257   -2.556238   -0.078860
 C    2.223725   -2.613882    0.175662
 C    1.015003   -1.934123    0.077443
 O   -0.100844   -2.644919    0.406651
 C   -1.330346   -2.057495    0.313100
 C   -2.385808   -2.881047    0.697901
 C   -3.675519   -2.394679    0.597676
 O   -4.725671   -3.156329    0.978603
 C   -3.899147   -1.104427    0.095230
 O   -5.221374   -0.699377    0.014395
 C   -5.828536   -1.010238   -1.236362
 H   -4.067073    5.407567    1.170465
 H   -3.178794    4.216767    2.137154
 H   -4.917595    4.017175    1.863404
 H   -2.751715    3.880738   -0.301240
 H   -5.755329    3.314252   -0.534277
 H   -4.577307    3.261179   -1.857749
 H   -4.968000    4.802020   -1.088221
 H   -2.708650    1.961043    1.236111
 H   -4.427492    1.665630    0.967547
 H   -2.318369    1.577646   -1.238131
 H   -4.008431    1.122877   -1.392429
 H   -0.446051    0.472572   -1.533833
 H   -0.196102    1.121026    1.174682
 H    1.322055    1.741933   -0.612367
 H    4.493079    0.881432   -1.641059
 H    5.403409   -0.584520   -1.271253
 H    4.493200    1.486765    0.787339
 H    5.473295    0.063506    1.141560
 H    6.304858    2.362765   -0.688655
 H    6.128765    3.081060    1.691383
 H    7.169579    1.733349    2.182840
 H    7.824354    3.034263    1.175058
 H    8.604041    1.353832   -0.512722
 H    7.473525    0.262527   -1.320820
 H    7.915882   -0.019547    0.370675
 H    4.478799   -3.469215    0.204036
 H    2.226916   -3.648460    0.504752
 H   -2.193286   -3.880128    1.069494
 H   -5.498219   -2.568911    0.976137
 H   -6.858260   -0.652736   -1.178691
 H   -5.821524   -2.091899   -1.420199
 H   -5.313198   -0.508169   -2.062978
