43 
6aan_ligand_dft.xyz
 C   -1.308279   -2.078737   -0.207416
 C   -3.134089   -0.548965    0.278031
 C   -2.818687   -0.612423    1.644256
 C   -1.757987   -1.406421    2.074221
 C   -1.005887   -2.138452    1.155515
 O   -0.816477    3.372001   -1.024135
 C    0.337633    3.439142   -0.338720
 O    1.093086    4.368152   -0.355411
 C    0.572984    2.191319    0.510946
 N   -0.351944    1.083359    0.090685
 C    2.030559    1.738455    0.432400
 C    2.362270    0.564548    1.359075
 C    3.713088   -0.084040    1.035809
 C    3.763060   -0.824973   -0.307081
 N    2.808759   -1.921328   -0.396633
 C    1.571332   -1.780288   -0.892446
 O    1.106730   -0.727934   -1.338771
 O    0.886044   -2.931734   -0.840570
 C   -0.494085   -2.859910   -1.213429
 C   -2.369669   -1.286435   -0.638224
 C   -4.189610    0.301228   -0.185253
 C   -5.062513    1.034096   -0.578302
 H   -3.412641   -0.048077    2.355546
 H   -1.528247   -1.470193    3.133291
 H   -0.184329   -2.760120    1.498608
 H   -0.925898    4.197939   -1.525861
 H    0.305502    2.456322    1.539754
 H   -0.671540    0.521692    0.888475
 H    0.123188    0.413187   -0.564500
 H   -1.188629    1.456870   -0.368815
 H    2.243205    1.483455   -0.610578
 H    2.648291    2.605640    0.680810
 H    2.374579    0.917385    2.396887
 H    1.585078   -0.210570    1.311858
 H    4.499283    0.680463    1.029074
 H    3.968741   -0.786832    1.836557
 H    4.760773   -1.244896   -0.456101
 H    3.572240   -0.151907   -1.146174
 H    3.075686   -2.843129   -0.082456
 H   -0.811649   -3.903712   -1.250409
 H   -0.585567   -2.424849   -2.211534
 H   -2.609905   -1.222676   -1.695931
 H   -5.851652    1.667041   -0.922057
