47 
6aao_ligand_xtb.xyz
 C  264.115981   35.389320  139.155305
 C  264.831192   35.168415  136.823856
 C  261.814750   36.335196  137.868985
 C  261.980440   36.447224  139.394803
 O  254.656569   33.390931  144.690347
 C  255.565798   33.336044  145.670612
 O  255.652337   32.405710  146.427606
 C  256.466014   34.566024  145.706548
 N  257.248572   34.646333  146.921444
 C  257.394855   34.526824  144.481613
 C  258.241227   35.794750  144.401854
 C  259.185748   35.810491  143.201609
 C  260.322908   34.792962  143.321472
 N  261.275582   34.927229  142.240749
 C  262.474363   35.541076  142.432007
 O  262.871173   35.886844  143.514883
 O  263.264015   35.728582  141.356923
 C  262.909367   35.370874  140.028612
 C  264.171800   34.656422  138.052320
 C  263.715199   35.960064  136.099562
 C  262.947617   36.941426  137.002821
 H  264.791852   36.213234  139.323697
 H  265.651179   35.840835  137.075430
 H  265.203538   34.379482  136.170473
 H  260.887272   36.856207  137.619943
 H  261.665286   35.288090  137.603639
 H  260.991522   36.393042  139.858653
 H  262.401432   37.422022  139.647523
 H  254.108920   32.589127  144.690226
 H  255.827860   35.454589  145.640811
 H  256.640761   34.710999  147.730746
 H  257.796898   33.798142  147.028811
 H  256.786428   34.423452  143.581334
 H  258.039390   33.650781  144.569454
 H  258.813772   35.893532  145.323486
 H  257.572156   36.654520  144.332046
 H  259.632436   36.803659  143.120425
 H  258.617900   35.619339  142.286123
 H  259.934214   33.771046  143.312180
 H  260.876537   34.960386  144.247011
 H  260.921161   34.769174  141.312927
 H  262.435078   34.380131  139.997653
 H  263.501140   33.817370  137.918978
 H  264.169187   36.522502  135.280884
 H  263.007710   35.254535  135.659166
 H  263.658988   37.466282  137.639216
 H  262.499873   37.690778  136.346234
