50 
6aao_ligand_dft.xyz
 C   -2.769032   -0.189808   -1.203034
 C   -5.266513   -0.919454   -1.151781
 C   -3.773062    0.253474    1.875232
 C   -2.740267   -0.747826    1.351902
 O    3.955998   -2.168745    1.378528
 C    4.477335   -1.595790    0.449945
 O    5.761319   -1.301725    0.342351
 C    3.680166   -1.094292   -0.750590
 N    2.292262   -1.639062   -0.568857
 C    3.664703    0.436201   -0.844602
 C    3.229464    1.134791    0.449284
 C    2.866870    2.607627    0.238120
 C    1.587482    2.836310   -0.574374
 N    0.391839    2.283882    0.044531
 C   -0.099767    1.065416   -0.240495
 O    0.469066    0.257365   -0.993214
 O   -1.246403    0.836437    0.377099
 C   -1.973744   -0.393997    0.086227
 C   -3.814332   -1.286436   -1.489578
 C   -5.643988   -0.681108    0.317691
 C   -4.993910    0.546221    0.987082
 H   -3.252365    0.790898   -1.168340
 H   -2.040676   -0.144389   -2.019872
 H   -5.532036   -0.019773   -1.724517
 H   -5.907066   -1.721286   -1.538006
 H   -4.135467   -0.153333    2.827307
 H   -3.272110    1.196867    2.121198
 H   -3.218625   -1.717631    1.176533
 H   -1.998626   -0.920568    2.141551
 H    6.226703   -1.624251    1.133783
 H    4.099956   -1.520014   -1.664779
 H    2.239793   -2.016414    0.391699
 H    1.544770   -0.896975   -0.705297
 H    2.094508   -2.406792   -1.212728
 H    4.673669    0.755544   -1.122511
 H    3.004326    0.699925   -1.676026
 H    2.369829    0.625769    0.903715
 H    4.040038    1.070669    1.184134
 H    2.754049    3.085946    1.217117
 H    3.690456    3.124895   -0.269648
 H    1.424792    3.909765   -0.699489
 H    1.668892    2.409999   -1.577490
 H   -0.176295    2.870076    0.638664
 H   -1.225918   -1.176093   -0.085594
 H   -3.782033   -1.516779   -2.559843
 H   -3.537079   -2.220617   -0.982185
 H   -6.731780   -0.554542    0.343009
 H   -5.443887   -1.586147    0.907672
 H   -4.740196    1.287123    0.220338
 H   -5.734604    1.039748    1.625602
