20 
6abp_ligand_dft.xyz
 C   -1.393156   -0.339070   -0.236658
 C   -0.474709    0.798365    0.189961
 C    0.857266    0.671279   -0.531189
 C    1.456837   -0.714537   -0.286252
 C    0.414155   -1.790528   -0.578642
 O   -2.582755   -0.191359    0.463582
 O   -1.000799    2.069336   -0.130611
 O    1.783635    1.627501   -0.056898
 O    1.876434   -0.832123    1.051470
 O   -0.810876   -1.574173    0.095061
 H   -1.564425   -0.292949   -1.330801
 H   -0.308869    0.688863    1.270405
 H    0.681458    0.808281   -1.610290
 H    2.303835   -0.861071   -0.976537
 H    0.248307   -1.841147   -1.668104
 H    0.783558   -2.758316   -0.235450
 H   -3.171870   -0.912991    0.210381
 H   -1.849541    2.146085    0.324090
 H    1.298299    2.460049    0.026141
 H    2.291778    0.016687    1.266003
