18 
6afa_ligand_xtb.xyz
 C   -0.284338    0.544342    0.174748
 C   -1.371615    1.387136    0.183714
 C   -2.636965    0.832287    0.025712
 C   -2.800094   -0.533982   -0.128652
 C   -1.707813   -1.392269   -0.143435
 N    0.787998   -1.459966    0.002786
 C   -0.455187   -0.833561    0.005279
 C    1.183225    0.819802    0.347067
 C    1.809437   -0.568073    0.114538
 O    1.695074    1.794018   -0.523713
 O    2.989306   -0.811105    0.036363
 H   -1.238664    2.450805    0.299815
 H   -3.503285    1.475733    0.024193
 H   -3.792314   -0.943461   -0.244590
 H   -1.835816   -2.456216   -0.270752
 H    0.926714   -2.441290   -0.183882
 H    1.389194    1.104421    1.397178
 H    2.643244    1.632378   -0.616485
