18 
6afc_ligand_xtb.xyz
 O   -3.447917    0.402276    0.038615
 C   -2.245601    0.354730    0.115672
 N   -1.382921    1.403642    0.006728
 C   -0.055164    0.991089    0.006669
 C    1.088708    1.749564   -0.144674
 C    2.310397    1.090559   -0.135873
 C    2.350699   -0.283777    0.017680
 F    3.551353   -0.897143    0.015170
 C    1.208695   -1.058371    0.179659
 C    0.002599   -0.397693    0.174197
 C   -1.398770   -0.912506    0.345735
 O   -1.735479   -1.956279   -0.527213
 H   -1.681345    2.348973   -0.178969
 H    1.041503    2.819515   -0.270033
 H    3.233153    1.635867   -0.252257
 H    1.274484   -2.127840    0.290351
 H   -1.553932   -1.228151    1.395490
 H   -2.697811   -1.969125   -0.613813
