28 
6afr_ligand_dft.xyz
 C   -0.296607    1.445835    0.719487
 C    3.846137    0.178339   -0.381733
 C    2.023100   -0.674289   -0.992072
 C   -1.174932   -2.174536    0.348251
 C   -2.487377   -2.076455   -0.161180
 C   -3.043717   -0.837241   -0.359900
 C   -2.284061    0.336529   -0.051552
 C   -0.969482    0.224947    0.458056
 C   -0.412663   -1.073932    0.664553
 C   -2.253700    2.624163   -0.022486
 C   -0.935271    2.636448    0.482772
 C    0.972128   -1.240837    1.232838
 C    3.206557   -0.142935    0.783678
 F    5.038824    0.750210   -0.492278
 N   -2.910537    1.517122   -0.283556
 N    2.012884   -0.698336    0.363280
 N    3.127958   -0.141348   -1.476979
 O   -4.284387   -0.683651   -0.840159
 H    0.724186    1.439507    1.089249
 H    1.193882   -1.042852   -1.578730
 H   -0.755901   -3.166715    0.496802
 H   -3.059163   -2.966370   -0.398366
 H   -2.774319    3.558804   -0.217837
 H   -0.439782    3.582781    0.670505
 H    1.171214   -2.301610    1.418084
 H    1.064687   -0.722264    2.193801
 H    3.476670   -0.043948    1.822497
 H   -4.428609    0.281714   -0.887721
