49 
6agk_ligand_xtb.xyz
 C    0.020141   -2.267999    1.687377
 O   -1.308138   -2.344903    1.229168
 C   -1.889675   -1.210692    0.747840
 C   -1.273209    0.024357    0.705383
 C   -1.949780    1.118531    0.168756
 C   -1.368122    2.465407    0.048678
 O   -2.064618    3.452578   -0.126171
 C    0.118429    2.623650    0.112861
 C    0.650285    3.889478    0.361862
 C    2.027023    4.033831    0.360581
 C    2.822411    2.924626    0.133117
 C    2.207153    1.687977   -0.086267
 C    2.952812    0.442698   -0.307742
 C    2.331121   -0.612842   -0.970122
 C    3.002582   -1.804255   -1.169829
 C    4.299486   -1.988357   -0.718271
 C    5.044056   -3.269117   -0.918051
 C    4.921715   -0.928723   -0.046499
 O    6.194214   -1.122327    0.403310
 C    4.255445    0.269078    0.154186
 N    0.884470    1.567204   -0.109509
 C   -3.261808    0.958651   -0.273406
 C   -3.902998   -0.268520   -0.226832
 O   -5.196402   -0.447378   -0.654076
 C   -5.901696    0.669724   -1.138110
 C   -3.212061   -1.385064    0.276125
 O   -3.660075   -2.659675    0.386809
 C   -4.916210   -3.052027   -0.116499
 H    0.704164   -1.930144    0.901850
 H    0.109914   -1.603927    2.553537
 H    0.283151   -3.281946    1.984945
 H   -0.271418    0.149089    1.072834
 H   -0.015117    4.719556    0.537468
 H    2.476494    5.002036    0.530419
 H    3.896419    3.020421    0.103030
 H    1.322052   -0.477835   -1.326230
 H    2.509475   -2.613910   -1.687940
 H    4.432788   -3.996236   -1.445051
 H    5.955061   -3.086447   -1.486147
 H    5.342566   -3.680518    0.045119
 H    6.506747   -0.325412    0.847558
 H    4.754174    1.060672    0.698259
 H   -3.757344    1.832051   -0.664233
 H   -5.990725    1.451433   -0.377757
 H   -5.433372    1.085877   -2.035372
 H   -6.893494    0.296143   -1.389844
 H   -5.736963   -2.559364    0.408531
 H   -5.003397   -2.853984   -1.186798
 H   -4.964900   -4.126805    0.059224
