64 
6ajg_ligand_dft.xyz
 C   -4.891415    1.874848   -0.410492
 C   -3.727084    0.664754    1.489983
 C   -1.260644   -3.358867    1.153067
 C   -4.063955   -0.442359   -0.741146
 C    0.096203   -3.019414   -0.944847
 C   -3.336196   -1.718886   -0.400268
 C    1.197923   -4.023507   -0.699112
 C    2.484819   -2.741815    0.952360
 C    3.049118   -1.325439    0.892915
 C   -1.815986   -1.511565   -0.520095
 C   -0.036159    3.474063   -0.088087
 C    0.366324    1.350912   -1.354989
 C    2.169307    3.082813   -1.226917
 C    0.227047    1.321985    1.159649
 C    2.037402    3.051186    1.268186
 N    2.479650   -3.400028   -0.352929
 N    2.310501   -0.545636   -0.092435
 C   -4.216576    0.614454    0.064868
 C   -0.933289   -2.684803   -0.155014
 C   -0.324953    1.963649   -0.125355
 C    1.482499    3.710852   -0.003941
 C    1.884943    1.572878   -1.266259
 C    1.746986    1.541549    1.240838
 C    2.439598    0.903979    0.007548
 H   -4.208440    2.731786   -0.338162
 H   -5.224557    1.792536   -1.449178
 H   -5.763887    2.113579    0.211511
 H   -4.545868    0.931057    2.170371
 H   -3.297766   -0.280408    1.831475
 H   -2.957387    1.439837    1.603957
 H   -2.211934   -3.900800    1.087667
 H   -0.495556   -4.070648    1.469621
 H   -1.376547   -2.611695    1.949504
 H   -4.437729   -0.362466   -1.761646
 H    0.228418   -2.440965   -1.861954
 H   -3.653172   -2.524416   -1.072501
 H   -3.588817   -2.045590    0.615036
 H    1.354272   -4.619665   -1.605801
 H    0.938490   -4.732893    0.092993
 H    1.464432   -2.667197    1.361782
 H    3.070064   -3.332806    1.669356
 H    4.107057   -1.347835    0.596918
 H    3.009156   -0.903221    1.910537
 H   -1.560933   -0.671281    0.139941
 H   -1.585785   -1.176156   -1.537708
 H   -0.535903    3.932000    0.776219
 H   -0.441045    3.955932   -0.987828
 H   -0.022415    1.816384   -2.270112
 H    0.140090    0.281504   -1.433088
 H    3.251696    3.262383   -1.183217
 H    1.802659    3.552132   -2.149309
 H   -0.005856    0.249547    1.189541
 H   -0.258390    1.765440    2.039290
 H    1.580450    3.501688    2.159281
 H    3.119351    3.225475    1.339376
 H    2.696361   -2.702312   -1.060004
 H    4.723798   -0.723392   -2.172366
 H    1.331813   -0.817829   -0.058584
 H    4.060392   -0.704439   -1.831717
 H   -1.406656    1.790047   -0.193755
 H    1.685427    4.788289    0.021377
 H    2.376133    1.119451   -2.133966
 H    2.134833    1.083334    2.158743
 H    3.517232    1.115656    0.066589
