42 
6ajh_ligand_xtb.xyz
 C    2.280081   -0.537473   -0.291926
 C   -3.562848    0.926869   -0.048968
 C   -4.917599    0.661128    0.054336
 C   -2.609921   -0.097632   -0.094160
 C   -0.168243   -0.568703   -0.241857
 C   -5.336847   -0.663468    0.114565
 C   -3.062691   -1.414802   -0.033874
 C   -4.411759   -1.690742    0.069790
 C    5.542375    0.631553    0.412471
 C    4.282821    1.496000    0.450420
 C    3.308100    0.928854    1.481892
 C    2.932794   -0.502067    1.097825
 C    4.193131   -1.365369    1.058350
 C    5.165045   -0.797778    0.024291
 C    4.506140   -0.796237   -1.355206
 C    3.244740    0.067406   -1.317277
 C    3.628237    1.496494   -0.930483
 N    0.992663    0.126248   -0.311675
 O   -0.232924   -1.776889   -0.245418
 N   -1.279646    0.267140   -0.187070
 F   -6.647513   -0.941213    0.217260
 F   -5.800003    1.668615    0.096409
 F   -3.135693    2.210782   -0.106173
 H    2.066884   -1.579069   -0.556333
 H   -2.337876   -2.210450   -0.069723
 H   -4.762389   -2.708640    0.117832
 H    6.025066    0.635556    1.392145
 H    6.251146    1.039774   -0.311374
 H    4.551795    2.521744    0.727191
 H    2.415590    1.556412    1.544007
 H    3.774330    0.928529    2.469540
 H    2.226312   -0.910001    1.828674
 H    3.929768   -2.392965    0.800385
 H    4.663840   -1.376544    2.043648
 H    6.067333   -1.417949   -0.005652
 H    4.248897   -1.816479   -1.646553
 H    5.201536   -0.400046   -2.098231
 H    2.765663    0.067615   -2.302393
 H    4.326865    1.894276   -1.669908
 H    2.751482    2.148956   -0.932238
 H    0.992384    1.128500   -0.220377
 H   -1.118814    1.264321   -0.224681
