33 
6ajv_ligand_xtb.xyz
 C    4.538905   -1.338389   -0.059506
 C    3.353992   -1.907183    0.403214
 C    2.227062   -1.126405    0.527680
 C    2.232604    0.233350    0.217706
 C    3.431837    0.801757   -0.248889
 C    4.566053    0.009052   -0.388410
 C    1.030152    1.085541    0.397185
 C   -0.302157    0.374315    0.221704
 C   -1.451042    1.372610    0.043411
 O    3.450455    2.101961   -0.597236
 C   -2.766165    0.654342   -0.034386
 C   -3.292750    0.258869   -1.258372
 C   -4.484728   -0.433261   -1.333886
 C   -5.178433   -0.748819   -0.170566
 C   -4.660464   -0.362462    1.058885
 C   -3.465589    0.330633    1.120081
 O    1.094208    2.260498    0.668780
 O   -6.353094   -1.430919   -0.281191
 O    5.630725   -2.130413   -0.175624
 H    3.344810   -2.953926    0.657741
 H    1.322533   -1.580297    0.899272
 H    5.483642    0.455793   -0.756024
 H   -0.486894   -0.226138    1.116566
 H   -0.247980   -0.304047   -0.631521
 H   -1.279259    1.949995   -0.866416
 H   -1.442398    2.065299    0.886353
 H    4.330826    2.362994   -0.894726
 H   -2.763449    0.501958   -2.168354
 H   -4.897826   -0.736803   -2.282651
 H   -5.196688   -0.603447    1.968116
 H   -3.075295    0.629434    2.082497
 H   -6.729615   -1.572957    0.595512
 H    6.383593   -1.620571   -0.499297
