36 
6ajy_ligand_xtb.xyz
 C    2.973800   -2.256824    2.031927
 O    2.525005   -1.090537    1.391052
 C    3.308402   -0.534201    0.417589
 C    4.496105   -1.087483   -0.041701
 C    5.219691   -0.454064   -1.039720
 C    4.768656    0.732014   -1.583295
 C    3.585103    1.285690   -1.121567
 C    2.844575    0.674401   -0.125618
 C    1.553074    1.265508    0.356640
 C    0.355351    0.522645   -0.242975
 C   -0.953937    1.216649    0.092681
 O   -0.985083    2.350001    0.510233
 C   -2.180747    0.413349   -0.140161
 C   -2.218566   -0.630754   -1.064903
 C   -3.365964   -1.350689   -1.308921
 C   -4.532304   -1.046199   -0.609899
 O   -5.646562   -1.771340   -0.868382
 C   -4.519073   -0.020508    0.323365
 C   -3.362846    0.715378    0.562253
 O   -3.349559    1.692796    1.486370
 H    3.050144   -3.098297    1.334681
 H    3.941232   -2.102709    2.521060
 H    2.222875   -2.485615    2.787178
 H    4.869076   -2.013553    0.367247
 H    6.140950   -0.898065   -1.387235
 H    5.332627    1.226268   -2.359772
 H    3.228825    2.216469   -1.538943
 H    1.492321    2.317663    0.076343
 H    1.497397    1.195042    1.444040
 H    0.333539   -0.505154    0.119565
 H    0.456379    0.501756   -1.331919
 H   -1.330244   -0.873484   -1.624889
 H   -3.387505   -2.148016   -2.033242
 H   -6.382852   -1.460139   -0.327553
 H   -5.422520    0.218292    0.874655
 H   -4.220575    1.792698    1.890434
