45 
6ak6_ligand_dft.xyz
 N   -2.673408    1.271071    0.252640
 C   -2.369671    1.969995   -0.896488
 N   -1.396459    2.927653   -0.750121
 C   -0.678715    3.223017    0.401526
 C   -1.178425    2.569286    1.586316
 C   -2.109061    1.605072    1.458962
 O   -2.911289    1.756089   -1.973321
 N    0.358808    3.980525    0.270908
 C   -3.571048    0.095258    0.103839
 C   -3.074655   -0.868750   -1.008688
 O   -3.863145   -0.840934   -2.162257
 C   -3.208946   -2.244949   -0.345890
 C   -3.031543   -1.921259    1.135966
 O   -3.598812   -0.615526    1.304989
 O   -4.503857   -2.754090   -0.526825
 C   -1.598156   -1.956497    1.640406
 O   -0.847207   -0.954218    0.935442
 P    0.652387   -1.189514    0.489698
 O    0.517403   -2.238363   -0.684911
 O    1.614009   -1.526853    1.564789
 O    0.959061    0.207812   -0.255092
 P    2.198201    1.251502    0.044120
 O    1.986528    2.342940   -1.055998
 O    2.286893    1.648216    1.452764
 O    3.476348    0.483397   -0.570448
 P    4.005499   -1.050643   -0.482036
 O    3.124871   -1.959683   -1.257708
 O    4.240581   -1.358404    1.037056
 O    5.485068   -0.919976   -1.031185
 H   -1.115619    3.390775   -1.605599
 H   -0.715720    2.771684    2.542322
 H   -2.458336    1.013315    2.293120
 H    0.807473    4.127018    1.172743
 H   -4.575862    0.462003   -0.124598
 H   -2.022757   -0.665822   -1.232053
 H   -3.767408    0.057081   -2.520905
 H   -2.443301   -2.943251   -0.710981
 H   -3.628208   -2.610652    1.739702
 H   -4.803659   -2.422787   -1.387782
 H   -1.170036   -2.951791    1.483542
 H   -1.555912   -1.712748    2.704701
 H    1.421997   -2.383276   -1.065863
 H    1.449140    3.120277   -0.685731
 H    3.367319   -1.479495    1.491415
 H    5.536695   -1.187544   -1.958780
