39 
6akw_ligand_dft.xyz
 C    1.655038   -1.142230   -0.119749
 C    0.277965   -1.083936   -0.283904
 C   -0.405668    0.136584   -0.398645
 C   -2.719966   -0.096883    0.404016
 C   -2.329861   -0.501421    1.691341
 C   -3.271921   -0.787610    2.663011
 C   -4.636296   -0.669921    2.396973
 C   -5.033355   -0.278939    1.130548
 C   -4.104596   -0.007572    0.116298
 C   -4.562795    0.415451   -1.234585
 O   -3.899476    1.075773   -2.005722
 O   -5.799798    0.032925   -1.608536
 N   -1.791343    0.203524   -0.572891
 C    0.384330    1.297102   -0.383847
Cl   -0.391561    2.849450   -0.534437
Cl   -0.609370   -2.579957   -0.353197
 C    2.419040    0.026995   -0.119380
 C    1.765096    1.252401   -0.264141
 C    3.880191   -0.033742    0.025304
 C    4.755243   -0.884552   -0.586305
 C    4.596693   -1.970787   -1.590200
 O    5.999023   -0.625078   -0.167123
 N    5.978696    0.412768    0.746947
 C    4.725508    0.770359    0.857167
 C    4.340120    1.878953    1.782951
 H    2.132073   -2.107625    0.007757
 H   -1.273872   -0.569565    1.928678
 H   -2.935602   -1.088896    3.650591
 H   -5.372384   -0.866591    3.168528
 H   -6.094564   -0.137472    0.938561
 H   -6.140603   -0.631774   -0.996035
 H   -2.149159    0.792860   -1.319771
 H    2.329647    2.177315   -0.288966
 H    4.675216   -2.957023   -1.120036
 H    3.621064   -1.895797   -2.076044
 H    5.378752   -1.898555   -2.350936
 H    4.117382    2.797399    1.229721
 H    3.448430    1.611565    2.357799
 H    5.161376    2.088263    2.471467
