49 
6aol_ligand_xtb.xyz
 O    6.033347   -0.849297   -0.096132
 C    4.734777   -1.139199   -0.047573
 C    4.390473   -2.475154   -0.222684
 C    3.072111   -2.881491   -0.154376
 O    2.771777   -4.176898   -0.321203
 C    2.091339   -1.915136    0.109769
Cl    0.453774   -2.511433    0.253123
 C    2.378680   -0.569530    0.265805
 C    1.250458    0.371833    0.573818
 C    0.529343    0.820054   -0.713200
 C   -0.609654    1.745039   -0.381455
 C   -1.922998    1.300073   -0.203718
 C   -2.266193   -0.163541   -0.382627
 C   -3.723140   -0.476842   -0.205882
 C   -4.597219   -0.394535   -1.283907
 C   -5.943106   -0.672777   -1.131685
 C   -6.407648   -1.036415    0.118733
 F   -7.720826   -1.312473    0.277027
 C   -5.565302   -1.126757    1.211048
 C   -4.222403   -0.844584    1.038083
 C   -2.905298    2.222011    0.135359
 C   -2.607290    3.561993    0.303314
 C   -1.308631    4.003604    0.128630
 C   -0.325588    3.094203   -0.211459
 C    3.724480   -0.160735    0.151054
 C    4.179003    1.236048    0.199450
 O    3.258315    2.165669   -0.066832
 C    3.722821    3.508512   -0.076219
 O    5.342118    1.554569    0.406028
 H    6.154086    0.109347    0.106239
 H    5.167507   -3.199676   -0.396694
 H    1.812022   -4.299544   -0.224942
 H    1.613013    1.251734    1.099472
 H    0.533405   -0.132083    1.225088
 H    0.182039   -0.058669   -1.255812
 H    1.250752    1.342911   -1.342320
 H   -1.689188   -0.746743    0.338408
 H   -1.957931   -0.473720   -1.385406
 H   -4.220224   -0.105773   -2.254086
 H   -6.628128   -0.612866   -1.962600
 H   -5.961192   -1.413844    2.172356
 H   -3.553417   -0.908852    1.883815
 H   -3.922630    1.887291    0.273042
 H   -3.389823    4.257115    0.568782
 H   -1.063736    5.047866    0.255123
 H    0.691232    3.429363   -0.351354
 H    3.976128    3.828994    0.936413
 H    4.610485    3.599846   -0.705095
 H    2.910337    4.111514   -0.473312
