49 
6aom_ligand_dft.xyz
 O    4.125436   -3.033007    0.016305
 C    3.745649   -1.754848    0.051116
 C    4.710862   -0.846781    0.477405
 C    4.420888    0.502269    0.531535
 O    5.386143    1.335655    0.950238
 C    3.145694    0.946989    0.129829
Cl    2.882295    2.689239    0.180584
 C    2.149635    0.076373   -0.297143
 C    0.839217    0.666983   -0.773970
 C   -0.156311    0.937269    0.376195
 C   -1.230899    1.930417   -0.012300
 C   -2.381120    1.560833   -0.727745
 C   -2.658831    0.128403   -1.127191
 C   -3.497168   -0.663940   -0.136851
 C   -3.472422   -0.400558    1.233835
 C   -4.201300   -1.186926    2.122088
 C   -4.970431   -2.248090    1.654680
 C   -5.010542   -2.514819    0.288767
 C   -4.281619   -1.726386   -0.596151
 C   -3.322016    2.539320   -1.058048
 C   -3.138536    3.870514   -0.706591
 C   -1.994323    4.241203   -0.007420
 C   -1.056552    3.274425    0.333184
 C    2.436819   -1.314577   -0.300155
 C    1.455309   -2.377695   -0.590272
 O    0.170106   -2.029575   -0.512159
 C   -0.771998   -3.094881   -0.690007
 O    1.769850   -3.540898   -0.827781
 H    3.380217   -3.557187   -0.355065
 H    5.693994   -1.203484    0.758274
 H    5.057793    2.246598    0.924910
 H    0.382163    0.016304   -1.518806
 H    1.053954    1.613852   -1.276028
 H    0.395848    1.341413    1.231353
 H   -0.586606   -0.013389    0.704111
 H   -1.716372   -0.407911   -1.284939
 H   -3.168918    0.122782   -2.097293
 H   -2.889445    0.435534    1.609087
 H   -4.169758   -0.964834    3.184813
 H   -5.540082   -2.859016    2.348461
 H   -5.615465   -3.333565   -0.090133
 H   -4.320118   -1.937885   -1.662778
 H   -4.216849    2.243906   -1.601011
 H   -3.883471    4.612828   -0.977154
 H   -1.833794    5.277425    0.275112
 H   -0.163518    3.561528    0.883195
 H   -0.728056   -3.473074   -1.713859
 H   -0.555716   -3.909432    0.003278
 H   -1.747129   -2.659836   -0.477024
