30 
6ap6_ligand_xtb.xyz
 C   -2.335669    1.958391    1.213192
 C   -1.070130    1.467494    0.957305
 C   -0.906930    0.291093    0.229451
 C    1.528443    0.406236   -0.190659
 C    1.569867    1.748603   -0.601063
 C    2.764699    2.390958   -0.818128
 C    3.969424    1.716886   -0.645938
 C    3.954858    0.396331   -0.257564
 C    2.756459   -0.283204   -0.013562
 C    2.758435   -1.698789    0.401825
 O    1.802430   -2.437774    0.291825
 O    3.886871   -2.181672    0.947494
 N    0.348208   -0.247289   -0.022805
 C   -2.027845   -0.427631   -0.222650
 C   -1.828488   -1.700589   -0.984719
 C   -3.283691    0.090996    0.063593
Cl   -4.714325   -0.737630   -0.459160
 C   -3.450722    1.276278    0.764169
 H   -2.455180    2.870872    1.776605
 H   -0.202506    1.979531    1.343946
 H    0.639282    2.261435   -0.786665
 H    2.766906    3.419793   -1.145409
 H    4.906150    2.217617   -0.833255
 H    4.901360   -0.124965   -0.185162
 H    4.569118   -1.505083    1.048689
 H    0.433741   -1.261107    0.030097
 H   -1.138864   -1.541759   -1.812653
 H   -1.405748   -2.470919   -0.338614
 H   -2.771573   -2.065797   -1.378906
 H   -4.443283    1.648359    0.960620
