25 
6apz_ligand_dft.xyz
 C    2.003432   -1.614895   -0.288163
 C    3.253462    0.825080    0.235514
 C    1.878145    0.782664    0.011921
 C   -3.109321   -0.208777    0.634740
 C   -2.530437    0.460486   -0.609488
 C   -1.051161    0.739540   -0.436185
 C   -0.219277   -0.528883   -0.511018
 C    1.252901   -0.435303   -0.250039
 C    3.370644   -1.564805   -0.061960
 C    4.001741   -0.350667    0.199154
 O   -2.512349   -0.514903    1.634435
 O   -4.438797   -0.391912    0.487578
 O   -3.186653    1.693938   -0.832754
 O   -0.732876   -1.593321   -0.799750
 O    3.803663    2.043508    0.482380
 H    1.496707   -2.550690   -0.493983
 H    1.328748    1.717033    0.048944
 H   -2.678238   -0.230788   -1.450036
 H   -0.733397    1.427939   -1.228479
 H   -0.877329    1.244325    0.519571
 H    3.959634   -2.476533   -0.087520
 H    5.075084   -0.318935    0.374556
 H   -4.760992   -0.785828    1.313911
 H   -4.127277    1.505042   -0.943454
 H    4.752377    1.943320    0.624510
