40 
6aqf_ligand_xtb.xyz
 C    4.532457    0.889703    0.390803
 C    5.752117    1.516719    0.244093
 C    6.920682    0.761596    0.205194
 O    8.106172    1.414215    0.061225
 C    6.843232   -0.620647    0.314446
 C    5.613224   -1.237540    0.459076
 C    4.443521   -0.493735    0.503578
 C    3.101657   -1.155586    0.623853
 C    2.438680   -1.271762   -0.760477
 N    1.102253   -1.798342   -0.686753
 C    0.009489   -1.037394   -0.515099
 N   -1.129460   -1.677448   -0.293668
 N    0.169479    0.305698   -0.617289
 C   -0.896552    1.053521   -0.500279
 N   -0.834730    2.393281   -0.554605
 N   -2.099771    0.478311   -0.291201
 N   -3.319228    1.029981   -0.151184
 C   -2.204126   -0.915766   -0.185308
 N   -3.464523   -1.223420    0.018304
 C   -4.099700   -0.025449    0.030593
 C   -5.518213    0.059576    0.225709
 C   -6.430236   -0.950370    0.411745
 C   -7.683545   -0.320137    0.550286
 C   -7.443203    1.017823    0.439073
 O   -6.140756    1.257057    0.242953
 H    3.629317    1.481060    0.424132
 H    5.825985    2.589203    0.159901
 H    8.831253    0.777951    0.054086
 H    7.748160   -1.213903    0.286842
 H    5.569024   -2.313774    0.544390
 H    2.447344   -0.561244    1.264122
 H    3.205422   -2.150175    1.061555
 H    3.036901   -1.921285   -1.404653
 H    2.372740   -0.280669   -1.211461
 H    0.968366   -2.779692   -0.498015
 H    0.030680    2.837785   -0.797889
 H   -1.699832    2.905718   -0.537076
 H   -6.206178   -1.995838    0.440676
 H   -8.631158   -0.792505    0.709912
 H   -8.096396    1.867444    0.481108
