38 
6arn_ligand_dft.xyz
 C    4.302385    1.490852   -0.294809
 C   -1.138064   -1.375974    0.428196
 C   -2.347895   -1.459683   -0.490154
 O   -2.075354    3.435989   -0.660940
 C   -2.953696    2.368251   -0.388703
 C   -2.267072    1.031457   -0.622856
 O   -1.146922    1.022896    0.258830
 C   -0.343812   -0.115910    0.114700
 O    0.696104   -0.043811    1.048599
 C    1.876974    0.488208    0.589172
 C    2.145110    1.840231    0.707583
 C    3.365550    2.349247    0.263854
 C    4.040053    0.124898   -0.415757
 C    2.823315   -0.384926    0.028486
 O    2.450252   -1.691748   -0.036981
 C    3.304025   -2.594636   -0.708745
 O   -0.370277   -2.539755    0.222034
 O   -3.189450   -2.535113   -0.123518
 C   -3.176103   -0.177832   -0.403312
 O   -3.798505   -0.082768    0.855355
 H    5.254755    1.877484   -0.644101
 H   -1.480477   -1.292208    1.469304
 H   -1.985373   -1.588410   -1.522564
 H   -1.283791    3.261980   -0.134528
 H   -3.804703    2.467218   -1.068600
 H   -3.329597    2.396139    0.642065
 H   -1.902014    1.000627   -1.663531
 H    0.069262   -0.168362   -0.907779
 H    1.387851    2.476130    1.153569
 H    3.576317    3.409352    0.357148
 H    4.788167   -0.527630   -0.851363
 H    3.479113   -2.278902   -1.744240
 H    4.264627   -2.697415   -0.189844
 H    2.785944   -3.553871   -0.705920
 H    0.522428   -2.358299    0.556818
 H   -2.611134   -3.289071    0.056097
 H   -3.927918   -0.188862   -1.209707
 H   -4.114869   -0.976526    1.054211
