39 
6aro_ligand_xtb.xyz
 C    2.400770   -1.608157    0.199292
 C   -2.581123   -2.158205    0.878627
 C   -3.887017   -1.882313    1.312166
 C   -4.432647   -0.667838    0.997090
 C   -3.422164    2.374834   -0.871012
 C   -4.192927    1.519225   -0.133900
 C   -3.675942    0.272474    0.265970
 C   -2.345841   -0.091080   -0.087956
 C   -1.551500    0.843473   -0.811510
 C   -2.104675    2.040277   -1.203645
 O   -0.275147    0.565871   -1.215684
 C    0.647677    0.088388   -0.282645
 C    1.345125   -1.162496   -0.826206
 C    3.378870   -0.456456    0.469865
 C    2.589531    0.802048    0.859371
 O    1.575532    1.121761   -0.077376
 C    3.497089    2.036113    0.931800
 O    2.778596    3.176948    1.310628
 O    4.160019   -0.205065   -0.665338
 O    3.128669   -2.705307   -0.296327
 O    0.458978   -2.218536   -1.084140
 N   -1.842993   -1.307265    0.218777
 H    1.889053   -1.887153    1.136328
 H   -2.122907   -3.117837    1.080473
 H   -4.438313   -2.623992    1.868218
 H   -5.441068   -0.413648    1.291592
 H   -3.817938    3.326296   -1.192067
 H   -5.204889    1.775960    0.141916
 H   -1.494287    2.720738   -1.775608
 H    0.156879   -0.159996    0.678606
 H    1.848019   -0.892598   -1.764772
 H    4.028392   -0.734348    1.317185
 H    2.119954    0.622200    1.842461
 H    4.270294    1.881154    1.685776
 H    3.966248    2.165990   -0.050083
 H    2.037620    3.255630    0.696953
 H    4.406928   -1.071270   -1.021363
 H    2.494882   -3.268971   -0.761204
 H   -0.402442   -2.014393   -0.663789
