25 
6asu_ligand_xtb.xyz
 C   -1.281104   -0.085804   -0.030538
 C   -3.646253   -0.924393   -0.185216
 C    5.260520   -0.864765   -0.112539
 C    3.833296   -0.424135   -0.041748
 C    2.861455   -1.265906    0.493310
 C    1.537439   -0.884052    0.546151
 C    1.144136    0.368582    0.072452
 C    2.118019    1.217417   -0.456536
 C    3.439213    0.819552   -0.519803
 C   -0.257805    0.799048    0.133731
 C   -2.667150    0.256301    0.026494
 O   -0.514286    2.092083    0.336763
 O   -3.188879    1.347698    0.223040
 O   -4.897368   -0.498846   -0.112465
 O   -3.308878   -2.059231   -0.383993
 H   -1.067510   -1.121429   -0.236546
 H    5.562867   -1.339112    0.818963
 H    5.382815   -1.596292   -0.911643
 H    5.921342   -0.025502   -0.313850
 H    3.152316   -2.233934    0.873878
 H    0.803310   -1.543922    0.980599
 H    1.840771    2.180666   -0.865410
 H    4.174455    1.485307   -0.947664
 H    0.299586    2.595002    0.479310
 H   -4.845262    0.474509    0.061051
