28 
6au9_ligand_dft.xyz
 C    0.550963    1.335794   -0.037194
 C    4.902927   -0.909810   -0.379044
 C    2.644831   -0.507361    0.010000
 C   -4.736049    0.652512   -0.023679
 C   -3.506419   -0.226411    0.008360
 C   -2.261666    0.302035   -0.009546
 C   -1.104326   -0.584440    0.023310
 C    0.272857   -0.036510    0.006155
 C    1.862303    1.782668   -0.041277
 C    2.915356    0.871889   -0.006396
 C    5.172465    0.394728    0.345299
 C    1.333012   -0.948083    0.023573
 O   -5.887816   -0.022214   -0.000592
 O   -4.678588    1.852826   -0.066191
 O   -3.784485   -1.525965    0.054410
 O   -1.273683   -1.817713    0.066493
 O    4.183097    1.356342    0.003255
 O    3.647008   -1.433458    0.019068
 H   -0.245685    2.069959   -0.059061
 H    5.649134   -1.664737   -0.124444
 H    4.912103   -0.744759   -1.464656
 H   -2.181069    1.378558   -0.048326
 H    2.098475    2.841088   -0.060945
 H    6.132476    0.823876    0.052492
 H    5.164976    0.229948    1.430124
 H    1.129607   -2.012846    0.041511
 H   -5.689495   -0.973848    0.033156
 H   -2.892314   -1.987861    0.071236
