52 
6aum_ligand_xtb.xyz
 F   -8.899386    0.372830   -0.779732
 C   -8.410023    1.474890   -0.177456
 F   -8.607393    1.272902    1.140156
 F   -9.205061    2.480721   -0.529120
 O   -7.174393    1.771768   -0.503887
 C   -6.123376    0.873794   -0.217518
 C   -6.295700   -0.365935    0.370990
 C   -5.185447   -1.158815    0.600267
 C   -4.857428    1.316048   -0.573249
 C   -3.753739    0.521962   -0.343386
 C   -3.906688   -0.731137    0.249807
 N   -2.838685   -1.584866    0.508602
 C   -1.491488   -1.369491    0.276936
 O   -1.039908   -0.360594   -0.217981
 N   -0.723877   -2.419537    0.684827
 C    0.720431   -2.473203    0.501115
 C    1.410409   -1.327311    1.246597
 C    2.921890   -1.415719    1.075149
 C    3.293866   -1.367863   -0.409529
 C    2.610616   -2.515903   -1.151550
 C    1.098509   -2.433715   -0.983253
 O    4.692833   -1.538646   -0.594498
 C    5.551397   -0.518840   -0.383705
 C    5.202373    0.787558   -0.044693
 C    6.182802    1.745614    0.135962
 C    7.530042    1.431517   -0.015131
 C    8.635151    2.409427    0.158183
 O    9.744616    2.224228   -0.264364
 O    8.348655    3.539639    0.836545
 C    7.873682    0.125200   -0.374030
 C    6.906477   -0.833145   -0.549287
 H   -7.267937   -0.733490    0.656817
 H   -5.322304   -2.126693    1.060542
 H   -4.755231    2.286299   -1.029985
 H   -2.769590    0.861602   -0.617058
 H   -3.100795   -2.457899    0.943364
 H   -1.174081   -3.257281    1.011437
 H    1.051612   -3.425416    0.929915
 H    1.151835   -1.372576    2.306097
 H    1.041618   -0.383182    0.845653
 H    3.295643   -2.354091    1.491829
 H    3.407168   -0.598765    1.611945
 H    2.964736   -0.417288   -0.849924
 H    2.987943   -3.459590   -0.752946
 H    2.876049   -2.469126   -2.208258
 H    0.725184   -1.501940   -1.408951
 H    0.621054   -3.264264   -1.506721
 H    4.169932    1.075908    0.073519
 H    5.861906    2.753594    0.367962
 H    7.440824    3.550540    1.165336
 H    8.918587   -0.109985   -0.504749
 H    7.163380   -1.844355   -0.821409
