52 
6aum_ligand_dft.xyz
 F   -8.188491    1.500756    1.212164
 C   -7.893023    1.995977    0.001537
 F   -6.975109    2.954756    0.183134
 F   -8.986447    2.547789   -0.506390
 O   -7.478078    1.040945   -0.857072
 C   -6.323426    0.337724   -0.501762
 C   -6.437651   -0.832743    0.232811
 C   -5.292088   -1.555500    0.531153
 C   -5.087503    0.786087   -0.939974
 C   -3.937506    0.063982   -0.644130
 C   -4.033728   -1.117412    0.100205
 N   -2.929260   -1.921525    0.427254
 C   -1.584748   -1.633864    0.245411
 O   -1.171862   -0.586169   -0.227165
 N   -0.763454   -2.650255    0.679488
 C    0.686550   -2.621242    0.482747
 C    1.346309   -1.483273    1.271429
 C    2.866862   -1.512835    1.098782
 C    3.245107   -1.443448   -0.380522
 C    2.616818   -2.596425   -1.153575
 C    1.094162   -2.586446   -0.998002
 O    4.655537   -1.554240   -0.560739
 C    5.459698   -0.492956   -0.336941
 C    5.025702    0.789165    0.013194
 C    5.960025    1.805259    0.187826
 C    7.324608    1.570631    0.026673
 C    8.368713    2.620310    0.224463
 O    9.518245    2.372278    0.484008
 O    7.968844    3.907403    0.095394
 C    7.748209    0.275417   -0.296500
 C    6.832255   -0.739751   -0.485499
 H   -7.413151   -1.169812    0.564282
 H   -5.379760   -2.474206    1.106321
 H   -5.025949    1.703199   -1.515175
 H   -2.969441    0.411817   -0.973861
 H   -3.147485   -2.723012    1.000030
 H   -1.170616   -3.571567    0.738222
 H    1.046422   -3.566357    0.911183
 H    1.082429   -1.575666    2.330004
 H    0.943815   -0.529379    0.917035
 H    3.283518   -2.442944    1.507835
 H    3.325813   -0.689462    1.655446
 H    2.892175   -0.498427   -0.817424
 H    3.036514   -3.536670   -0.771860
 H    2.896563   -2.523810   -2.209182
 H    0.672908   -1.683378   -1.451802
 H    0.659225   -3.446727   -1.519603
 H    3.975707    1.008756    0.163426
 H    5.594061    2.781407    0.498726
 H    7.082313    3.941778   -0.286158
 H    8.811792    0.086716   -0.397306
 H    7.149030   -1.743182   -0.748864
