29 
6avi_ligand_xtb.xyz
 C    3.726558   -0.220042    0.355439
 O    4.476276    0.613624    0.770022
 C    2.217593   -0.152435    0.477329
 O    4.192404   -1.304062   -0.295705
 C    1.602920    0.245761   -0.871831
 C    0.077958    0.137581   -0.879904
 C   -0.597573    1.094979    0.100738
 C   -2.108476    1.195935   -0.112771
 C   -2.850323   -0.106948    0.178295
 C   -4.363510    0.061436    0.062082
 C   -5.100954   -1.244096    0.333146
 H    1.970310    0.591312    1.233315
 H    1.826732   -1.123894    0.793003
 H    3.482248   -1.896564   -0.575386
 H    2.001786   -0.397632   -1.662143
 H    1.899093    1.270447   -1.103532
 H   -0.208932   -0.890187   -0.648709
 H   -0.274274    0.362187   -1.889348
 H   -0.161291    2.088945   -0.023048
 H   -0.406427    0.772008    1.125639
 H   -2.308434    1.502555   -1.142297
 H   -2.500782    1.976283    0.543897
 H   -2.602773   -0.445552    1.187375
 H   -2.528618   -0.879977   -0.521961
 H   -4.609564    0.415493   -0.941705
 H   -4.698448    0.821596    0.771376
 H   -4.795962   -2.009523   -0.377410
 H   -4.883745   -1.603732    1.336644
 H   -6.175510   -1.103283    0.244618
