50 
6ay5_ligand_dft.xyz
 C    4.608756   -0.268990    0.160150
 C    5.243920   -1.240397    0.971912
 C    0.813116   -0.241510    0.109661
 C    3.202902    0.169933    0.129502
 C    2.907968    1.532039    0.052037
 C    1.612186    2.031459   -0.009999
 C    0.533168    1.126422    0.007676
 C    2.115598   -0.717080    0.153006
 C    2.336110   -2.201706    0.254103
 N    6.773962   -0.401468   -0.222805
 C    5.647848    0.243813   -0.597377
 C    8.102549   -0.264930   -0.776404
 C   -1.025259    3.002220    0.267556
 C   -0.032184    3.878289   -0.489475
 C    1.388448    3.527136   -0.058159
 C   -1.881729    0.766051   -0.335886
 C   -1.852656   -0.087078   -1.448646
 C   -2.945547   -0.884256   -1.764110
 C   -4.089415   -0.811127   -0.981366
 C   -4.129185    0.048715    0.120969
 C   -3.029939    0.829017    0.460301
 C   -6.287165   -0.860440    0.290061
 C   -5.622612    0.794507    1.982297
 F    1.261398   -2.889154   -0.219948
 F    2.490376   -2.570078    1.565342
 N   -0.784623    1.597986   -0.037203
 N   -5.339119    0.004976    0.802234
 N    6.546630   -1.316133    0.732987
 O   -7.395864   -1.045681    0.730197
 S   -5.604838   -1.681737   -1.158618
 H    4.796554   -1.869048    1.728602
 H    0.000290   -0.956140    0.140884
 H    3.732578    2.241924    0.055053
 H    3.222929   -2.539651   -0.289047
 H    5.655172    0.998845   -1.370905
 H    8.329185   -1.100166   -1.445106
 H    8.161975    0.672669   -1.332217
 H    8.826618   -0.251804    0.039729
 H   -2.048432    3.239801   -0.031736
 H   -0.939226    3.190199    1.349378
 H   -0.242948    4.935242   -0.296743
 H   -0.160887    3.702931   -1.563656
 H    2.119160    3.990165   -0.730588
 H    1.577581    3.947675    0.939012
 H   -0.963339   -0.118900   -2.068442
 H   -2.907689   -1.542052   -2.626274
 H   -3.050480    1.466554    1.337626
 H   -4.927095    0.540747    2.788766
 H   -5.541687    1.862481    1.755389
 H   -6.641124    0.564809    2.294686
