37 
6b1c_ligand_xtb.xyz
 C    3.009521    2.272862   -0.493183
 C    1.698336    1.874027   -0.469689
 C    1.404073    0.519342   -0.214618
 N   -2.136153   -0.105552   -0.069688
 C    0.021803    0.066687   -0.199629
 C   -1.128035    0.791802    0.060117
 N   -1.618994   -1.300673   -0.398844
 C   -3.513302    0.071479    0.079868
 C   -4.048935    1.212340    0.668852
 C   -5.416589    1.354371    0.797495
 C   -6.280984    0.362549    0.345482
 N   -0.359829   -1.208333   -0.468525
 C   -5.714936   -0.776079   -0.232200
 C   -4.357304   -0.939312   -0.373204
 C    3.617753    0.000511   -0.000390
 N    2.344705   -0.374836    0.012596
 N    5.937850   -0.623006    0.233367
 C    6.972595   -1.602142    0.488778
 O   -7.615682    0.518030    0.473188
 C    6.303381    0.659262   -0.028208
 C    4.608668   -1.051112    0.277781
 C    5.409245    1.641025   -0.268403
 C    4.020838    1.327841   -0.257159
 F   -6.561903   -1.742168   -0.668980
 O    4.345833   -2.206307    0.533076
 H    3.278085    3.300961   -0.693387
 H    0.901057    2.576337   -0.659753
 H   -1.281264    1.817338    0.317589
 H   -3.404905    1.992547    1.040811
 H   -5.841506    2.233973    1.252262
 H   -3.946114   -1.829302   -0.819887
 H    7.648097   -1.674380   -0.364482
 H    7.541578   -1.333575    1.380147
 H    6.482093   -2.561773    0.647963
 H   -8.070882   -0.257394    0.115641
 H    7.367777    0.845957   -0.028943
 H    5.732089    2.649129   -0.469736
