50 
6b1e_ligand_dft.xyz
 O   -1.375199   -0.017232    2.003570
 C   -1.774910    0.209882    0.860841
 N   -2.886598   -0.309932    0.337520
 C   -3.741761   -1.213233    1.132217
 C   -4.992871   -1.351043    0.265187
 C   -4.453893   -1.214285   -1.162321
 C   -3.381107   -0.112969   -1.028820
 C   -3.973762    1.272740   -1.245507
 N   -4.235978    2.152507   -0.372593
 C   -0.948984    1.183265   -0.002618
 N    0.297905    1.428685    0.770504
 C    1.584798    0.763151    0.298511
 C    2.039706    1.386681   -1.024025
 C    3.362415    0.717939   -1.446798
 C    4.428103    0.961374   -0.367223
 C    3.958536    0.351535    0.962332
 C    2.636459    1.015788    1.388021
 C    3.732138   -1.159406    0.793058
 C    3.131826   -0.792382   -1.616615
 C    2.668361   -1.408318   -0.286609
 O    2.350721   -2.774852   -0.420062
 C    1.352336   -0.741490    0.144131
 H   -3.926193   -0.777843    2.116245
 H   -3.223305   -2.167350    1.271778
 H   -5.699796   -0.544597    0.485071
 H   -5.502637   -2.301495    0.430757
 H   -5.222311   -0.948868   -1.891766
 H   -3.981578   -2.145899   -1.488453
 H   -2.578920   -0.267965   -1.760283
 H   -4.204284    1.503771   -2.289604
 H   -3.999605    1.810825    0.566552
 H   -1.487901    2.123209   -0.140402
 H   -0.709683    0.780148   -0.986030
 H    0.052088    1.037568    1.711763
 H    0.470805    2.430602    0.873910
 H    1.286263    1.239613   -1.807891
 H    2.186409    2.468165   -0.902232
 H    3.684717    1.154216   -2.396728
 H    5.376649    0.505970   -0.671791
 H    4.612331    2.035983   -0.248864
 H    4.704953    0.530052    1.741758
 H    2.788191    2.094638    1.527924
 H    2.293820    0.597859    2.343526
 H    4.671938   -1.645034    0.501334
 H    3.406388   -1.618751    1.733418
 H    2.378972   -0.994140   -2.387993
 H    4.062197   -1.276470   -1.938584
 H    3.154971   -3.255003   -0.656283
 H    1.010319   -1.184560    1.085859
 H    0.599393   -0.962172   -0.621644
