59 
6b30_ligand_xtb.xyz
 C   -4.977511   -2.084985   -1.273844
 C   -3.857490   -1.288384   -1.339382
 C   -2.817605   -1.432758   -0.421148
 C   -2.936214   -2.403351    0.560941
 C   -4.055629   -3.216553    0.630420
 C   -1.484976    4.436976   -0.311494
 C   -0.287404   -0.944321    0.030831
 C    2.938810    0.468902   -1.034837
 C    4.892432   -0.575603   -0.064428
 C    2.667585   -1.407769    0.438130
 C   -6.405105   -4.805345    0.664892
 O   -6.236174   -3.795678   -0.301024
 C   -5.091562   -3.062820   -0.282687
 C   -1.647734   -0.486452   -0.544729
 N   -1.969855    0.801205    0.085371
 C   -2.572370    0.746892    1.395630
 C   -1.574775    1.915673   -0.550109
 O   -0.858995    1.887079   -1.546730
 C   -2.040312    3.233636   -0.048951
 C   -2.334910    5.458917    0.293785
 O   -2.268918    6.662480    0.324052
 N   -3.324742    4.714624    0.902423
 O   -3.181407    3.355006    0.679706
 O   -0.168706   -1.706495    0.966372
 N    0.727596   -0.324112   -0.611232
 C    2.104670   -0.434501   -0.380307
 C    4.307263    0.394664   -0.873509
 C    4.040151   -1.465696    0.583200
Si    6.773285   -0.724249    0.150852
 C    7.192528   -0.644369    2.011648
 C    7.332864   -2.403822   -0.565557
 C    7.669516    0.686697   -0.765573
 H   -5.782938   -1.975876   -1.982598
 H   -3.784936   -0.538731   -2.114591
 H   -2.139621   -2.550815    1.271473
 H   -4.104171   -3.964312    1.405797
 H   -0.598343    4.626022   -0.878438
 H    2.502220    1.227785   -1.669834
 H    2.032256   -2.109514    0.952026
 H   -6.411931   -4.393901    1.679449
 H   -7.373400   -5.256105    0.453508
 H   -5.625839   -5.570037    0.587454
 H   -1.502436   -0.269840   -1.610212
 H   -3.660834    0.691333    1.326799
 H   -2.294323    1.618078    1.983383
 H   -2.205873   -0.145081    1.902242
 H   -4.194558    5.011323    1.312570
 H    0.471336    0.399864   -1.280162
 H    4.934830    1.105178   -1.389773
 H    4.461321   -2.230714    1.218906
 H    6.878966    0.299035    2.448544
 H    6.698067   -1.438654    2.562162
 H    8.260489   -0.746032    2.179265
 H    8.402590   -2.547436   -0.446927
 H    7.106438   -2.476558   -1.625207
 H    6.833664   -3.230025   -0.068686
 H    8.743775    0.614916   -0.625896
 H    7.358318    1.661130   -0.401915
 H    7.478213    0.653522   -1.833718
