69 
6b33_ligand_dft.xyz
 C   -2.201043   -1.813800   -0.762082
 C   -1.521823   -2.929101   -1.278364
 C   -0.249926   -3.258986   -0.840500
 C    0.393274   -2.490965    0.136168
 C    2.732607   -3.021179   -0.277918
 N    4.016794   -2.976937    0.259511
 C    5.102244   -2.765030   -0.687376
 C    4.382940   -2.494023    1.577956
 C    2.636027    1.930053    0.398786
 C    1.354776    1.937301    0.956541
 C    0.756485    3.819042   -0.458120
 C   -5.110926   -3.136455   -1.925781
 C   -4.110847   -2.069815   -2.366758
 C   -4.693580   -1.066938   -3.364688
 N   -3.471498   -1.416798   -1.198815
 N    1.696319   -2.778203    0.606583
 O    2.554909   -3.286431   -1.456367
 C    5.378777   -1.271546   -0.772700
 O    5.677498   -0.702257    0.508146
 C    4.760179   -1.006525    1.542345
 C    3.498907   -0.123243    1.508159
 O    2.511266   -0.430368    2.163527
 N    3.621445    0.988079    0.740758
 C    0.430186    2.870859    0.516657
 C   -0.230799    4.763751   -0.890094
 N   -1.053015    5.511456   -1.218641
 C    2.052614    3.810872   -0.991808
Cl    2.514698    4.968136   -2.201497
 C    2.982661    2.875567   -0.571590
 C   -0.288121   -1.419724    0.687094
 C   -1.567241   -1.081909    0.249179
 C   -2.233381    0.065843    0.874265
 O   -1.696355    0.785056    1.707910
 N   -3.541563    0.270566    0.470284
 C   -4.329481    1.317085    1.139953
 C   -5.209146    0.759908    2.230730
 C   -4.597874    0.388480    3.555800
 C   -5.485652    1.599179    3.448517
 C   -4.212598   -0.483164   -0.498232
 O   -5.394588   -0.281472   -0.718177
 H   -1.980789   -3.575334   -2.014839
 H    0.253814   -4.117254   -1.264849
 H    5.990314   -3.301605   -0.334667
 H    4.805558   -3.158692   -1.658868
 H    5.261968   -3.061641    1.902898
 H    3.600595   -2.671252    2.315081
 H    1.073372    1.224624    1.716264
 H   -5.497884   -3.669414   -2.800397
 H   -4.634966   -3.864858   -1.260824
 H   -5.949424   -2.673712   -1.400395
 H   -3.288997   -2.555464   -2.891999
 H   -4.918559   -1.598087   -4.295428
 H   -5.605744   -0.603313   -2.992068
 H   -3.963564   -0.283483   -3.591059
 H    1.928828   -2.233387    1.428530
 H    4.500309   -0.776389   -1.212982
 H    6.252549   -1.053670   -1.390439
 H    5.280478   -0.753739    2.473634
 H    4.528420    1.083552    0.299078
 H   -0.569237    2.849169    0.936757
 H    3.974825    2.880178   -1.011856
 H    0.159858   -0.812838    1.465568
 H   -4.927456    1.817121    0.377005
 H   -3.606601    2.022780    1.550723
 H   -6.022713    0.137516    1.869944
 H   -4.985085   -0.488193    4.065709
 H   -3.531196    0.551250    3.676616
 H   -6.479168    1.554049    3.883202
 H   -5.016029    2.577202    3.510218
