49 
6b3v_ligand_dft.xyz
 C    6.838987   -0.355939    0.570632
 C    6.221104   -1.407156   -0.120911
 C    4.892391   -1.276104   -0.430139
 C    2.071948   -0.781287   -0.967707
 C   -4.986091   -1.523241    0.704574
 C   -8.346280   -0.613112   -0.174122
 C   -7.316918   -0.563270    0.962697
 C   -7.605491    0.602924    1.917310
 C   -5.897178   -0.506620    0.428440
 C   -5.459739    0.568404   -0.353660
 C   -4.161993    0.621512   -0.839546
 C   -3.252628   -0.401622   -0.560815
 C   -1.849746   -0.360594   -1.109655
 C   -1.018163    0.807343   -0.566549
 C    1.164771    1.906092   -0.460121
 C    2.234528    1.253610    0.405377
 C    4.244730   -0.079997   -0.039866
 C    8.232354   -0.423080    0.922777
 C    0.991307   -0.087838   -1.802187
 C   -3.681930   -1.471895    0.217325
 N    0.278957    0.896191   -1.016516
 N    2.938489    0.202763   -0.338697
 N    4.906944    0.871037    0.655166
 N    6.177641    0.739046    0.949135
 N    9.356938   -0.520618    1.183050
 O   -1.480900    1.631599    0.201557
 H    6.780530   -2.297460   -0.386695
 H    4.373840   -2.079268   -0.936910
 H    2.651551   -1.415854   -1.639983
 H    1.597802   -1.423852   -0.208193
 H   -5.296756   -2.370785    1.311073
 H   -9.360622   -0.714151    0.227723
 H   -8.315141    0.303673   -0.774186
 H   -8.154519   -1.458291   -0.842888
 H   -7.412080   -1.493920    1.537332
 H   -6.883809    0.626249    2.739794
 H   -7.547458    1.564123    1.393785
 H   -8.611632    0.514059    2.342098
 H   -6.143604    1.381487   -0.584505
 H   -3.843225    1.474808   -1.431276
 H   -1.875061   -0.285258   -2.205262
 H   -1.340533   -1.303918   -0.878260
 H    1.635074    2.459995   -1.282534
 H    0.564423    2.592950    0.135507
 H    1.762260    0.813551    1.296473
 H    2.966413    1.988467    0.733915
 H    0.312342   -0.836539   -2.208979
 H    1.471422    0.419846   -2.649405
 H   -2.992581   -2.280424    0.450828
