54 
6b4h_ligand_dft.xyz
 C    1.233755    0.842473   -0.522348
 C   -0.143672    1.554557   -0.471285
 C   -1.359365    0.596163   -0.515691
 C   -1.178642   -0.788942    0.094681
 C    0.119190   -1.474982   -0.261893
 C    1.319790   -0.590920   -0.015658
 O    2.126867    1.576302    0.292766
 P    3.561469    2.108572   -0.188930
 O    4.603124    1.049543   -0.213320
 O    3.288415    2.773899   -1.611143
 O    3.815464    3.252661    0.865470
 O   -0.234148    2.376337    0.678213
 P    0.031571    3.957321    0.454165
 O    1.406609    4.318513    0.017060
 O   -1.050355    4.426598   -0.584204
 O   -0.286416    4.518125    1.905410
 O   -2.416730    1.151440    0.226262
 P   -3.719503    1.899951   -0.332588
 O   -3.490032    3.345086   -0.561570
 O   -4.751822    1.527491    0.796981
 O   -4.115546    1.133192   -1.673351
 O   -2.204325   -1.621229   -0.437213
 P   -3.609757   -1.944081    0.271586
 O   -3.952733   -1.064226    1.408365
 O   -4.653202   -1.671741   -0.938435
 O   -3.584589   -3.496441    0.453547
 O    0.278489   -2.584423    0.609417
 P    0.167652   -4.121472    0.125158
 O   -1.224036   -4.610027    0.008945
 O    1.035780   -4.837993    1.235103
 O    0.971790   -4.181998   -1.245220
 O    2.436082   -1.144484   -0.703540
 P    3.616295   -1.976104    0.008542
 O    3.283141   -3.414610    0.172807
 O    4.817520   -1.692879   -0.978387
 O    3.908485   -1.225174    1.377077
 H    1.568648    0.837516   -1.565100
 H   -0.215376    2.189028   -1.361096
 H   -1.647851    0.455782   -1.564289
 H   -1.268278   -0.707865    1.182583
 H    0.099218   -1.794158   -1.309834
 H    1.502666   -0.557713    1.063128
 H    2.660394    3.516855   -1.500803
 H    3.033815    3.853133    0.882667
 H   -1.980094    4.055279   -0.524304
 H   -1.149945    4.251990    2.251846
 H   -4.574574    0.625451    1.171871
 H   -4.476418    0.236623   -1.523904
 H   -4.714917   -2.410349   -1.560541
 H   -2.683584   -3.933272    0.332187
 H    1.950173   -4.483908    1.233644
 H    1.923737   -4.001209   -1.076003
 H    4.976571   -0.726910   -1.048526
 H    4.270931   -0.330879    1.192306
