66 
6b4w_ligand_xtb.xyz
 C    3.929321   32.340360   19.789935
 C    3.814528   32.554501   18.330331
 C    4.032378   33.239213   16.335983
 C    4.375312   33.864062   15.145141
 C    3.720889   33.457113   14.002875
 C    3.055051   32.224169   16.344826
 N    4.478893   33.404900   17.629084
 N    1.122724   30.805338   11.174062
 N    1.012749   34.711529   10.290455
 O    2.926858   31.795024   17.629703
 C    2.395978   31.816469   15.204856
 C    2.736585   32.457301   14.016229
 C    2.071405   32.068715   12.777565
 C    1.730643   30.796403   12.404637
 C    1.045567   32.082792   10.734761
 C    1.634264   32.920085   11.710512
 C    1.561796   34.293303   11.418873
 C    1.935902   36.563174   11.996664
 C    2.852632   37.298516   12.977890
 O    2.051521   35.172433   12.287725
 C   -1.750970   34.313912    4.605265
 O   -1.167096   34.321260    5.886130
 C   -0.846179   35.532834    6.441673
 C   -1.078009   36.756726    5.851353
 C   -0.727599   37.945824    6.495788
 C   -1.016292   39.208851    5.763272
 O   -1.151148   39.243503    4.552843
 N   -1.133254   40.317124    6.535902
 C   -1.413961   41.617211    5.982859
 C   -0.111549   37.884386    7.738562
 C    0.132445   36.661619    8.337508
 C   -0.233790   35.475431    7.715757
 N   -0.033972   34.222563    8.255274
 C    0.520533   33.812826    9.428032
 N    0.497869   32.492380    9.596000
 C    1.949537   37.574726   14.175009
 C    0.639045   37.997983   13.515873
 C    0.512534   37.078290   12.293838
 H    4.662953   33.031043   20.192129
 H    2.964735   32.505541   20.267411
 H    4.236831   31.315775   19.993541
 H    5.129835   34.633706   15.126354
 H    3.970167   33.911468   13.057733
 H    0.789301   30.002109   10.669410
 H    1.638796   31.049657   15.234637
 H    1.903917   29.872461   12.920714
 H    2.224250   36.719212   10.951868
 H    3.717695   36.690282   13.232008
 H    3.190357   38.234200   12.531301
 H   -1.901829   33.264085    4.357956
 H   -2.715706   34.830134    4.602089
 H   -1.091882   34.772195    3.862213
 H   -1.531644   36.842251    4.876923
 H   -1.086408   40.233250    7.537331
 H   -2.370152   41.999780    6.346819
 H   -0.623947   42.326022    6.240459
 H   -1.459519   41.504417    4.900712
 H    0.217040   38.781083    8.243490
 H    0.611899   36.598708    9.297989
 H   -0.364036   33.457550    7.680554
 H    1.807788   36.653135   14.740237
 H    2.352350   38.336992   14.839461
 H    0.710852   39.038476   13.194368
 H   -0.213943   37.907565   14.186020
 H    0.088393   37.597780   11.436562
 H   -0.127235   36.224272   12.515661
