50 
6b5i_ligand_dft.xyz
 C   -5.694594   -2.820813   -1.423663
 C   -3.312641   -2.789025    0.046232
 C   -3.239250   -1.650645    0.840886
 C   -2.043094   -0.946625    0.916595
 C   -0.925803   -1.383806    0.198147
 C   -1.016170   -2.542313   -0.584231
 C   -2.207187   -3.248848   -0.663394
 C    0.369981   -0.678044    0.268187
 C    2.050712    0.769451    0.334162
 C    0.675829    0.714462    0.376644
 C   -0.215697    1.901146    0.503471
 C   -0.380417    4.235721   -0.398046
 C    0.158774    5.089047   -1.368691
 C   -0.333104    6.378782   -1.513975
 C   -1.362860    6.844382   -0.702445
 C   -1.875448    5.977245    0.248836
 C   -1.414603    4.681675    0.426857
 C    3.838159   -0.956932    0.147979
 C    4.101968   -2.207856   -0.409361
 C    5.410316   -2.655298   -0.493873
 C    6.459705   -1.854845   -0.028918
 C    6.184709   -0.606699    0.537021
 C    4.875077   -0.161048    0.633577
 C    7.816279   -2.315219   -0.126783
 F   -2.868808    6.403489    1.041093
 N    1.485492   -1.386972    0.158345
 N    2.499448   -0.503191    0.215129
 N    0.175493    2.945631   -0.298893
 N    8.912031   -2.683889   -0.208147
 O   -4.571846   -5.028905   -0.532520
 O   -5.626496   -3.426290    1.136246
 O   -1.169789    1.945698    1.261472
 S   -4.861853   -3.670724   -0.082458
 H   -5.094960   -2.910399   -2.331008
 H   -6.659618   -3.315456   -1.555254
 H   -5.838682   -1.774395   -1.149586
 H   -4.104445   -1.332747    1.413643
 H   -1.971255   -0.059648    1.534545
 H   -0.142198   -2.885844   -1.126881
 H   -2.282701   -4.155185   -1.255070
 H    2.719415    1.615804    0.387143
 H    0.963934    4.741732   -2.011152
 H    0.092000    7.030581   -2.270479
 H   -1.764412    7.846429   -0.796869
 H   -1.854315    4.041792    1.177586
 H    3.278493   -2.815354   -0.763089
 H    5.624629   -3.626342   -0.926485
 H    6.996246    0.006120    0.913476
 H    4.670141    0.791339    1.109741
 H    0.890612    2.733315   -0.978679
