35 
6b7e_ligand_dft.xyz
 C   -2.061569    2.902742   -0.394540
 C   -3.269072    2.336968    0.016129
 C   -3.346535    0.974432    0.266865
 C   -0.764046   -1.716427   -2.187878
 C    0.945074   -2.579922   -0.563859
 C    0.788772   -0.280683    1.980364
 C    2.827925    0.317878    1.967422
 C    2.411137    0.373704    0.663696
 C    3.144360    0.797454   -0.545460
 C    0.202154   -0.148399   -0.478254
 C   -0.934351    2.106597   -0.560965
 C   -1.011055    0.737320   -0.320845
 C   -2.216257    0.172813    0.097884
 C   -2.311782   -1.280097    0.420863
 C   -0.207818   -1.607309   -0.766120
 F    3.165150   -0.184765   -1.502717
 F    2.543686    1.877272   -1.143212
 N    1.086413   -0.015648    0.680049
 N    1.812145   -0.093539    2.782909
 O   -3.275520   -1.778465    0.945942
 O   -1.225866   -2.042172    0.165444
 H   -1.999045    3.969652   -0.585551
 H   -4.146868    2.962235    0.144449
 H   -4.268039    0.510186    0.601349
 H   -1.168752   -2.720365   -2.339126
 H    0.032499   -1.547419   -2.919163
 H   -1.560987   -0.990094   -2.372750
 H    1.258001   -2.601280    0.482589
 H    1.799174   -2.283332   -1.177911
 H    0.629470   -3.586431   -0.850394
 H   -0.192129   -0.615400    2.287265
 H    3.807814    0.557186    2.359216
 H    4.177245    1.066785   -0.312550
 H    0.779726    0.192007   -1.337638
 H    0.011926    2.540700   -0.870034
