43 
6b7h_ligand_xtb.xyz
 O    0.529986    2.378069   -0.218294
 C    1.059939   -0.869595   -0.778822
 O    3.703896   -1.409612    2.601200
 C    1.900033   -0.855037    0.488078
 C    2.512084    1.140599   -0.793242
 N   -0.308305   -0.556010   -0.501310
 C    4.259060   -1.521029    1.399097
 C    3.385948   -0.990435    0.303831
 C    2.752070    0.373856    0.494751
 C    1.696485    2.399340   -0.451003
 O   -1.042974   -2.398548   -1.556253
 C   -1.308975   -1.388306   -0.939353
 C   -2.689596   -0.960707   -0.616104
 C   -2.988982   -0.091139    0.423422
 C   -4.312616    0.257105    0.694509
 O   -4.488774    1.106924    1.737638
 C   -5.801885    1.475913    2.097845
 C   -5.334108   -0.268876   -0.092577
 C   -5.029061   -1.141189   -1.124707
 C   -3.721614   -1.494835   -1.387915
 C    1.734427    0.176387   -1.706516
 O    5.354990   -1.961185    1.190600
 N    3.831597    1.545382   -1.406236
 O    2.472527    3.485392   -0.407537
 H    1.031751   -1.860559   -1.250618
 H    4.277698   -1.787747    3.287754
 H    1.446458   -1.232879    1.390525
 H   -0.529669    0.339430   -0.095374
 H    3.763101   -1.275028   -0.670273
 H    2.962528    0.924517    1.399184
 H   -2.231228    0.315467    1.075299
 H   -6.301367    2.019521    1.290412
 H   -5.695387    2.131185    2.960412
 H   -6.399975    0.604100    2.378048
 H   -6.364576   -0.013765    0.094840
 H   -5.828361   -1.549947   -1.723430
 H   -3.474446   -2.181896   -2.181282
 H    2.411317   -0.320986   -2.399568
 H    0.970406    0.693101   -2.285991
 H    4.524400    0.798895   -1.247459
 H    3.738776    1.717308   -2.415414
 H    4.150789    2.418234   -0.956167
 H    1.968288    4.274808   -0.144686
