37 
6b97_ligand_xtb.xyz
 C   -2.909201   -0.643287    0.397215
 C   -1.715247   -1.018837   -0.256564
 N   -4.448801    0.878067    0.890033
 C    1.155765   -1.630852   -0.448180
 C    3.004437   -0.200784   -1.026168
 C    2.365207   -0.474261    1.281307
 C    1.355153   -1.332774    0.894587
 C    4.296673    1.000735    0.765554
 C    0.431342   -4.024044   -0.549248
 C   -3.919811   -1.172449    1.230023
Cl   -0.632728    2.186426   -2.019331
 C   -1.559986    1.113466   -1.070391
 N   -2.641414    1.610112   -0.523059
 C   -3.305604    0.703660    0.205932
 C   -5.225300    2.078948    0.987342
 N   -4.815561   -0.256141    1.505391
 N   -1.070882   -0.112343   -0.991437
 N   -1.184106   -2.246869   -0.180690
 C    0.052466   -2.579987   -0.862092
 C    3.189979    0.091330    0.317135
 F    4.890693    1.658017   -0.238198
 F    5.276966    0.321144    1.399903
 F    3.876755    1.932371    1.639191
 C    1.987810   -1.059321   -1.400368
 H    3.643288    0.248453   -1.770485
 H    2.515964   -0.236264    2.323481
 H    0.709001   -1.763554    1.645175
 H   -0.359614   -4.701778   -0.863079
 H    0.605730   -4.148635    0.517271
 H    1.343100   -4.287676   -1.077858
 H   -4.024190   -2.163190    1.626122
 H   -4.716671    2.848114    0.410237
 H   -6.226380    1.910739    0.587961
 H   -5.309583    2.386276    2.030420
 H   -1.641664   -2.945739    0.380545
 H   -0.111044   -2.463711   -1.941537
 H    1.831979   -1.275108   -2.445870
