43 
6bbu_ligand_xtb.xyz
 C   -2.615246    3.336267   11.821203
 C   -3.137150    2.475563   10.823917
 N   -5.763481    0.455224    5.889181
 C   -4.794662    0.949149    8.912528
 C   -6.022110    0.194142    8.357321
 C   -5.239791   -0.165957    7.082730
 C   -7.781292   -1.437452    5.584995
 C   -9.082970   -1.689131    4.847028
 C  -10.277327   -1.130595    5.610049
 C   -5.880134    3.106723    8.340629
 C   -2.312026    1.312396   10.850306
 C   -1.382483    1.497535   11.827087
 O   -8.144115    1.074985    6.420222
 S   -7.373276    0.336028    5.465565
 O   -7.425921    0.736232    4.092245
 C   -3.999674    0.561103    7.640031
 N   -4.942660    2.355114    9.148349
 C   -4.238639    3.004754   10.104947
 N   -4.627905    4.259553   10.365739
 N   -1.571780    2.715396   12.421267
 N   -3.047702    4.566732   12.102701
 C   -4.032034    4.951815   11.318376
 H   -5.181276    0.340370    5.074348
 H   -4.412425    0.492828    9.824703
 H   -6.897120    0.802112    8.161118
 H   -6.306144   -0.666349    8.959422
 H   -5.090746   -1.246274    6.939810
 H   -7.850901   -1.673593    6.642485
 H   -6.948137   -1.961995    5.124633
 H   -9.010753   -1.204996    3.871248
 H   -9.212145   -2.763297    4.687993
 H  -11.188915   -1.260049    5.032508
 H  -10.396909   -1.644140    6.562008
 H  -10.132469   -0.072130    5.805002
 H   -5.557549    4.145331    8.323137
 H   -5.906563    2.704152    7.329544
 H   -6.886279    3.073028    8.764130
 H   -2.362894    0.453397   10.211982
 H   -0.591315    0.847038   12.145890
 H   -3.136209   -0.077301    7.810560
 H   -3.703197    1.418552    7.041823
 H   -1.020359    3.114115   13.161311
 H   -4.408318    5.954625   11.474930
