99 
6beb_ligand_xtb.xyz
 C    2.789306   -2.338100   -0.348625
 C    3.369068   -1.473742    0.572775
 C    2.629177   -0.986553    1.647056
 C    1.291663   -1.280730    1.780227
 C   -0.725895   -2.447195    0.872249
 C   -1.287882   -3.276931   -0.063962
 C   -0.559367   -3.871486   -1.097485
 C    0.783162   -3.564574   -1.160909
 C    1.423969   -2.691464   -0.231278
 C    0.647963   -2.126020    0.835462
 C   -1.822692   -2.034719    1.825818
 C   -3.094402   -2.586823    1.098750
 C   -4.070138   -3.292686    2.032702
 C   -1.230916   -4.789789   -2.080677
 C    5.433266   -0.141088    0.961586
 C    6.582142    0.323985    0.112370
 C    6.460644    1.302751   -0.791384
 C    5.302385    2.121513   -1.095687
 C    4.159188    2.203619   -0.413229
 C    3.093053    3.216936   -0.708272
 C    1.659135    2.735959   -0.373076
 C    1.012625    1.925454   -1.514718
 C   -0.455785    1.535000   -1.209766
 C   -1.380287    2.749312   -0.957468
 C   -2.802127    2.310827   -0.530687
 C   -3.433998    1.119117   -1.264612
 C   -4.808557    0.798239   -0.628154
 C   -5.239674   -0.598554   -0.998415
 C   -4.665820   -1.655029   -0.439187
 C    7.866167   -0.396309    0.377157
 C    3.413697    4.477647    0.112910
 C    1.802059    0.656755   -1.826203
 C   -1.401021    3.735098   -2.123770
 C   -3.619386    1.358412   -2.758839
 C   -2.836648    2.903802    1.772490
 C   -2.695490    2.339253    3.162469
 C   -6.879433    1.839349   -0.221721
 N    4.669535   -1.048190    0.296257
 O    3.601018   -2.759136   -1.366597
 O    1.537198   -4.124448   -2.167446
 O   -2.631273   -3.495104    0.113016
 O   -1.915048   -0.665721    2.106715
 O   -3.672764   -1.464247    0.479333
 O   -5.737276    1.784348   -1.032847
 O   -2.736707    1.939860    0.857181
 O   -3.008179    4.068245    1.515596
 O   -0.536987    0.612485   -0.147909
 O    1.597319    1.976218    0.816875
 O    5.247361    0.240796    2.098400
 O    0.663264   -0.727440    2.842181
 H    3.093966   -0.342280    2.372970
 H   -1.709879   -2.531345    2.799311
 H   -3.580562   -4.146556    2.492352
 H   -4.391439   -2.593362    2.799735
 H   -4.937072   -3.639592    1.475800
 H   -0.802778   -5.793633   -2.045258
 H   -2.282907   -4.863641   -1.822834
 H   -1.157130   -4.406736   -3.100513
 H    7.344175    1.557400   -1.366843
 H    5.431624    2.768088   -1.957224
 H    3.995746    1.601692    0.465169
 H    3.118515    3.489941   -1.768234
 H    1.056185    3.651073   -0.238396
 H    1.007674    2.565670   -2.401482
 H   -0.827728    0.997472   -2.090564
 H   -0.998186    3.285853   -0.081575
 H   -3.469618    3.178468   -0.612852
 H   -2.797934    0.248654   -1.095206
 H   -4.689865    0.828294    0.466646
 H   -6.010720   -0.715933   -1.740033
 H   -4.910606   -2.678204   -0.690058
 H    8.671099   -0.008993   -0.242952
 H    7.749516   -1.463528    0.185054
 H    8.135572   -0.280205    1.426696
 H    2.692995    5.266293   -0.094929
 H    3.395721    4.262032    1.180021
 H    4.407549    4.840658   -0.136563
 H    1.802727    0.004640   -0.959382
 H    1.341320    0.127044   -2.656949
 H    2.829353    0.892810   -2.088298
 H   -2.194780    4.462948   -1.976907
 H   -0.459757    4.276608   -2.179386
 H   -1.563197    3.234484   -3.072931
 H   -2.666735    1.408234   -3.276446
 H   -4.168662    2.280474   -2.922686
 H   -4.192631    0.537805   -3.182262
 H   -1.722045    2.626627    3.555012
 H   -2.763751    1.256692    3.139345
 H   -3.458178    2.767587    3.807124
 H   -7.425576    0.888437   -0.222849
 H   -7.514691    2.622029   -0.632774
 H   -6.617725    2.089871    0.814907
 H    4.984646   -1.341728   -0.619867
 H    3.090501   -3.352252   -1.936014
 H    0.967655   -4.692036   -2.700899
 H   -1.945593   -0.156671    1.274098
 H    0.082466    0.920414    0.533637
 H    2.157021    2.382826    1.486717
 H   -0.301342   -0.671361    2.693406
