68 
6bfd_ligand_xtb.xyz
 C   -1.748465    1.671125    0.333732
 N    0.999668   -1.101163   -1.060241
 C   -0.726574    0.777997    0.111165
 C   -1.080805   -0.564864   -0.072835
 C   -0.029488   -1.582028   -0.343336
 O   -0.070420   -2.727208    0.097137
 N   -3.023160    1.370771    0.399744
 C   -3.378067    0.077596    0.264111
 C   -2.409936   -0.924644    0.016912
 N   -4.686807   -0.170963    0.397955
 C   -5.368689   -1.437937    0.213583
 C   -6.673549   -1.389845    0.999211
 C   -5.595634   -1.708958   -1.283077
 C   -6.075966   -3.127637   -1.561639
 S   -1.204332    3.385179    0.526108
 O   -0.386809    3.420790    1.711252
 O   -0.546618    3.738332   -0.707422
 C   -2.694452    4.372168    0.749808
 C    2.138223   -1.837971   -1.567645
 C    3.007781   -2.484783   -0.466527
 O    2.383854   -3.615103    0.097379
 C    3.493994   -1.583756    0.706662
 C    2.483868   -0.715842    1.451594
 C    3.124428   -0.580296    2.830388
 C    3.614138   -1.999758    3.111004
 N    3.918762   -2.558598    1.763647
 C    2.923073   -0.920761   -2.531867
 C    3.255059    0.426157   -1.943915
 C    4.495698    0.671644   -1.366288
 C    4.763924    1.886126   -0.757049
 C    3.791747    2.872073   -0.708198
 C    2.570209    2.663193   -1.325689
 C    2.315949    1.455513   -1.955652
 H    0.946636   -0.138400   -1.364302
 H    0.282608    1.151307    0.114027
 H   -2.693005   -1.954774   -0.117825
 H   -5.267281    0.648105    0.505022
 H   -4.734177   -2.228756    0.629439
 H   -6.477297   -1.139692    2.038901
 H   -7.344278   -0.643752    0.578872
 H   -7.169429   -2.354578    0.969453
 H   -4.653228   -1.539709   -1.809868
 H   -6.322798   -0.991881   -1.668337
 H   -7.059738   -3.299863   -1.135180
 H   -6.140464   -3.293809   -2.633596
 H   -5.385353   -3.856690   -1.143499
 H   -3.164228    4.047715    1.668021
 H   -2.400340    5.412768    0.807548
 H   -3.330566    4.194546   -0.106392
 H    1.769069   -2.698338   -2.148106
 H    3.908474   -2.866940   -0.969649
 H    1.393558   -3.463464    0.119161
 H    4.337487   -0.968602    0.390643
 H    2.343810    0.246746    0.968872
 H    1.523302   -1.219679    1.545760
 H    2.419630   -0.232492    3.580019
 H    3.958925    0.119253    2.793012
 H    2.829952   -2.596770    3.576903
 H    4.497078   -2.021859    3.747120
 H    3.296093   -3.382410    1.502666
 H    4.892888   -2.844618    1.668037
 H    3.833310   -1.435307   -2.840531
 H    2.304648   -0.779286   -3.420106
 H    5.270252   -0.081667   -1.427474
 H    5.736843    2.064403   -0.323865
 H    3.994951    3.809860   -0.216258
 H    1.807565    3.426889   -1.317223
 H    1.386298    1.347003   -2.500223
