65 
6bfp_ligand_xtb.xyz
 C    6.023009    3.214046    0.756104
 C    3.652796    1.829583    0.114691
 C    2.571326   -0.267087   -0.387160
 C    3.784159   -0.912250   -0.198464
 C    6.219446   -0.892660    0.349377
 C    6.531402   -2.120384   -0.047907
 C    1.353362   -1.012441   -0.839959
 C    0.040165   -3.014406   -0.176261
 C   -0.951001   -2.921267   -1.147848
 C   -2.089656   -4.815768   -0.177716
 C   -1.085303   -4.911151    0.781464
 C   -0.036205   -4.017099    0.788401
 C   -3.211336   -5.789253   -0.181265
 N   -4.422323   -5.281834   -0.560994
 C    1.229576    1.835342   -0.404463
 C    1.144645    2.908847   -1.290659
 C   -1.182525    3.063406   -0.806358
 C    0.051512    1.465804    0.267679
 C   -0.012720    0.362647    1.282427
 C   -2.531214    3.691479   -1.014165
 N   -3.517943    2.992630   -0.432787
 C   -4.900008    3.408832   -0.419734
 C   -6.797968    3.444692    1.363595
 O    6.018950    1.812153    0.629335
 C    4.865890    1.179938    0.300433
 C    2.504094    1.120790   -0.227933
 C    4.941868   -0.223001    0.141028
 O    0.672637   -0.617289   -1.764526
 N    1.130956   -2.142438   -0.116647
 C   -2.007291   -3.810607   -1.136737
 N   -3.125154   -7.032086    0.077000
 C   -0.066473    3.541024   -1.489346
 N   -1.110395    2.057424    0.051477
 O    1.051113    0.256954    2.112229
 O   -0.944665   -0.378501    1.393988
 O   -2.679101    4.714041   -1.657700
 C   -5.367755    3.689100    0.990075
 C   -5.725576    2.536681    1.881754
 H    5.727722    3.702713   -0.177295
 H    5.369681    3.548435    1.568325
 H    7.051599    3.482099    0.991315
 H    3.574256    2.898480    0.242786
 H    3.837043   -1.981148   -0.336876
 H    6.958184   -0.292835    0.861867
 H    5.850759   -2.750316   -0.595193
 H    7.502494   -2.538976    0.151046
 H   -0.895476   -2.148780   -1.895653
 H   -1.141454   -5.679536    1.539745
 H    0.727946   -4.087054    1.550232
 H   -5.200861   -5.909544   -0.441962
 H   -4.598512   -4.304641   -0.402098
 H    2.025842    3.216158   -1.835078
 H   -3.243745    2.185648    0.112451
 H   -5.518438    2.623395   -0.867798
 H   -4.963523    4.308882   -1.037725
 H   -7.462071    3.065519    0.601882
 H   -7.273332    4.127782    2.050225
 H    1.744790   -2.301232    0.671956
 H   -2.769411   -3.737920   -1.898345
 H   -2.181633   -7.353282    0.267248
 H   -0.181118    4.372490   -2.166397
 H    1.729023    0.924977    1.937316
 H   -4.869897    4.533898    1.449499
 H   -5.662996    1.539804    1.472278
 H   -5.463640    2.591225    2.926986
