62 
6bfx_ligand_xtb.xyz
 O    0.771364   -0.879792    2.236254
 C   -0.072661   -0.054917    1.871501
 O    2.640259   -0.808215   -1.934737
 C   -4.304925    1.729108   -0.648528
 C   -4.380601   -1.009277   -0.357014
 N    2.239112   -2.144073    0.477337
 C   -5.484155   -0.228359   -0.057526
 C   -3.219957   -0.403057   -0.819304
 C   -5.472724    1.150079   -0.189207
 C   -3.181869    0.979738   -0.962467
 C    1.318869   -0.985069   -1.466919
 C    1.238228   -2.253359   -0.617637
 C    3.620823   -1.827812    0.035843
 C    3.558021   -0.593762   -0.890345
 C   -0.254133    1.253770    2.571731
 C    4.259186   -3.020450   -0.659023
 C    3.486609    4.234203   -0.564823
 C    3.295977    2.851226    1.514319
 C    1.433595    2.865091   -0.169550
 C   -1.994857   -1.230615   -1.108567
 C    3.607204    1.758917   -0.715340
 C   -0.144182   -2.629649    0.015253
 C   -1.242504   -1.548631    0.198519
 C    2.949929    2.930101    0.026583
 N   -0.869327   -0.276753    0.814644
 O    0.084729   -3.315340    1.217740
 O    3.230165    0.511860   -0.118306
 F   -6.593654   -0.827095    0.383138
 F   -4.239703    3.059636   -0.782497
 H   -4.444934   -2.079437   -0.241308
 H    1.869716   -1.430633    1.171702
 H    2.217469   -3.039065    0.987991
 H   -6.339977    1.743805    0.046607
 H   -2.309436    1.484399   -1.350398
 H    0.711292   -1.083831   -2.365981
 H    1.006491   -0.106695   -0.890917
 H    1.549753   -3.095376   -1.244247
 H    4.189621   -1.551216    0.928077
 H    4.528310   -0.465060   -1.391659
 H    0.711004    1.647309    2.881185
 H   -0.781372    1.984339    1.966305
 H   -0.831774    1.066817    3.477746
 H    5.325290   -2.847934   -0.772637
 H    3.839999   -3.167728   -1.651115
 H    4.128040   -3.926460   -0.071499
 H    4.562271    4.306921   -0.427588
 H    3.021986    5.083985   -0.072468
 H    3.271526    4.294648   -1.628955
 H    4.368917    2.946157    1.658548
 H    2.980501    1.896231    1.927008
 H    2.806437    3.654739    2.058248
 H    0.949632    3.674326    0.370660
 H    1.182260    2.958523   -1.223927
 H    1.051099    1.917865    0.202045
 H   -1.345741   -0.689992   -1.794338
 H   -2.293553   -2.167908   -1.576295
 H    3.298618    1.760773   -1.766733
 H    4.699669    1.846627   -0.670469
 H   -0.597373   -3.374310   -0.649617
 H   -1.963109   -2.041387    0.872466
 H   -1.548686    0.445446    0.600472
 H    0.190399   -2.664731    1.938854
