58 
6bg3_ligand_xtb.xyz
 F    3.962717    1.173342    1.361038
 C    4.707320    0.713833    0.339063
 F    5.981111    0.775284    0.726280
 F    4.558352    1.618623   -0.650984
 C    4.280737   -0.659864   -0.100244
 C    2.922500   -0.944551   -0.105694
 C    5.218271   -1.591197   -0.517646
 C    4.778490   -2.833609   -0.945092
 C    3.430777   -3.136908   -0.947877
 C    2.493510   -2.197479   -0.521229
 N    1.137701   -2.566548   -0.548746
 C    0.085793   -1.928159    0.025078
 O    0.201817   -0.882885    0.663434
 N   -1.109922   -2.553352   -0.163477
 C   -2.412844   -2.171725    0.362132
 C   -3.101669   -1.078243   -0.491071
 C   -2.520841    0.331249   -0.266625
 O   -4.469873   -1.165551   -0.159550
 C   -5.373520   -0.455756   -0.995585
 O   -5.464537    0.879310   -0.592448
 C   -6.711163   -1.174430   -0.939972
 C   -2.387642   -1.774412    1.853769
 C   -2.727474   -0.301145    2.060372
 N   -1.960265    0.496588    1.089595
 C   -1.815955    1.925308    1.457748
 C   -0.920735    2.639472    0.479458
 C    0.452864    2.424328    0.518435
 C    1.281617    3.063071   -0.386699
 C    0.745687    3.922076   -1.332532
 C   -0.620481    4.143267   -1.372031
 C   -1.452631    3.501152   -0.471139
 H    2.216573   -0.200811    0.220465
 H    6.269087   -1.350737   -0.505261
 H    5.492964   -3.570296   -1.275579
 H    3.101627   -4.110621   -1.280795
 H    0.968428   -3.465501   -0.979114
 H   -1.111424   -3.378513   -0.740370
 H   -3.042638   -3.058105    0.251930
 H   -2.975981   -1.325791   -1.557538
 H   -1.732434    0.537459   -0.991895
 H   -3.330082    1.052210   -0.413852
 H   -4.976259   -0.434258   -2.021136
 H   -6.141865    0.963298    0.090844
 H   -7.047385   -1.240822    0.092610
 H   -6.611122   -2.179272   -1.337210
 H   -7.442816   -0.628545   -1.528618
 H   -3.109160   -2.377057    2.402254
 H   -1.399344   -1.986230    2.262680
 H   -2.461101    0.002530    3.073438
 H   -3.793611   -0.125462    1.903760
 H   -0.991106    0.043841    1.037710
 H   -2.808560    2.382940    1.479814
 H   -1.381590    1.967679    2.459344
 H    0.876193    1.768832    1.265472
 H    2.346792    2.901992   -0.350564
 H    1.395240    4.424136   -2.032144
 H   -1.040187    4.818340   -2.101457
 H   -2.517372    3.682044   -0.500598
