48 
6bkx_ligand_xtb.xyz
 C    9.218587   52.713896  -71.606779
 C    9.798511   51.316914  -71.412312
 C   10.876625   51.031203  -72.412759
 C   11.806223   50.015615  -72.220995
 C   16.571142   48.389824  -76.539608
 C   16.044469   47.446430  -74.405885
 C    8.065377   54.213914  -73.301672
 C    6.576427   54.043432  -72.973410
 C    8.378015   53.553251  -75.730878
 C    8.392974   54.018476  -77.097107
 C   16.831555   47.461758  -75.544811
 C   15.535208   49.291290  -76.395307
 C   15.004150   48.343928  -74.249670
 C   14.740468   49.277725  -75.248298
 C   11.010224   51.743130  -73.606723
 C   12.790609   50.443681  -74.204033
 C    8.152664   54.693710  -74.738224
 C    9.680903   52.775324  -75.431817
 C    8.861000   52.921405  -73.078050
 C   10.120084   52.914334  -73.963289
 C   10.970258   54.184546  -73.809473
 N    8.428998   54.368189  -78.184052
 N   12.751552   49.714218  -73.088645
 N   11.953938   51.448993  -74.485545
 N   13.715046   50.212248  -75.167095
 O    7.994211   55.840987  -75.056300
 H    9.945395   53.462530  -71.288201
 H    8.330041   52.829182  -70.984038
 H    9.003355   50.572493  -71.532030
 H   10.196441   51.204076  -70.401149
 H   11.792393   49.411663  -71.321451
 H   17.177706   48.412329  -77.432968
 H   16.241174   46.726049  -73.625551
 H    8.459190   55.011867  -72.664358
 H    6.447764   53.774814  -71.928048
 H    6.045427   54.974481  -73.157194
 H    6.127987   53.263238  -73.586212
 H    7.514746   52.885322  -75.613994
 H   17.641502   46.757246  -75.657978
 H   15.334697   50.014429  -77.173912
 H   14.391209   48.333693  -73.364902
 H    9.527702   51.721274  -75.672232
 H   10.481274   53.139878  -76.076262
 H    8.241733   52.068810  -73.385405
 H   11.209678   54.377603  -72.766717
 H   11.904157   54.048997  -74.350478
 H   10.461709   55.054091  -74.217923
 H   13.625504   50.840515  -75.955260
