16 
6bky_ligand_xtb.xyz
Br    3.302757    0.511552   -0.001661
 C    1.413984    0.484244   -0.000825
 C    0.698728   -0.714664    0.000561
Br    1.636888   -2.348742    0.002979
 C    0.703880    1.671648   -0.001213
 N    1.101000    2.980430   -0.002730
 C   -0.001467    3.822946    0.000804
 O   -0.002097    5.020467    0.001663
 N   -1.103247    2.979404    0.003430
 C   -0.704919    1.671047    0.001695
 C   -1.414184    0.483262    0.001057
Br   -3.302981    0.509526   -0.000021
 C   -0.698130   -0.715134    0.000194
Br   -1.635303   -2.349822   -0.002163
 H    2.054619    3.305610   -0.008214
 H   -2.057081    3.303698    0.006711
