16 
6bky_ligand_dft.xyz
Br    3.286977    0.555610    0.000161
 C    1.411652    0.455824   -0.000394
 C    0.701325   -0.753159   -0.000075
Br    1.656029   -2.371400   -0.000272
 C    0.700063    1.638668   -0.000300
 N    1.099971    2.956691   -0.000444
 C   -0.000101    3.814417    0.000196
 O   -0.000130    5.021738    0.001187
 N   -1.100102    2.956603   -0.000814
 C   -0.700160    1.638594   -0.000506
 C   -1.411718    0.455715   -0.000335
Br   -3.287121    0.555508   -0.000218
 C   -0.701304   -0.753268   -0.000540
Br   -1.655782   -2.371758    0.000579
 H    2.052103    3.286953    0.001299
 H   -2.052255    3.286787    0.001004
