55 
6bl1_ligand_dft.xyz
 C   -2.714850    2.204932   -0.939632
 C   -1.668963    2.280127    0.176972
 C   -1.116013    3.627196    0.319929
 C   -0.555093    1.250748   -0.103383
 C   -1.545234   -0.569964    1.314136
 C   -2.158210   -1.222086    3.987538
 C   -2.845268   -0.910691    1.693781
 C   -0.424346   -2.428469   -0.989759
 C   -0.038211   -1.164315   -0.547998
 C    5.518819   -0.331892   -0.113213
 C    5.645487    1.989278    0.531774
 C   -0.852985   -0.899979    3.623073
 C   -3.149855   -1.231303    3.016155
 C    6.260085    0.757520    0.321915
 C    4.281481    2.111990    0.291186
 C   -0.553055   -0.581797    2.305298
 C    3.526333    1.030069   -0.152060
 C    0.618506   -3.256397   -1.394193
 C    4.143586   -0.209234   -0.353110
 C    2.149743   -1.669945   -0.881070
 C   -1.874374   -2.814533   -0.968012
 C   -2.790656   -1.676006   -1.464384
 C   -3.321462    0.821108   -1.139142
 C   -2.211644   -0.258991   -1.233560
 C   -1.122267   -0.182004   -0.116331
 C   -4.243458    0.812426   -2.356220
 N   -0.633813    4.669427    0.457619
 N    1.897617   -2.905663   -1.348665
 N    1.233648   -0.776252   -0.494441
 N    3.479561   -1.355552   -0.817554
 O   -3.016687    3.163623   -1.607755
 H   -2.159475    2.009356    1.122837
 H    0.229862    1.350668    0.647515
 H   -0.092370    1.472411   -1.071461
 H   -2.395290   -1.467605    5.018072
 H   -3.643018   -0.945772    0.963098
 H    6.006867   -1.291830   -0.265783
 H    6.223146    2.841421    0.875291
 H   -0.062626   -0.899353    4.367374
 H   -4.171651   -1.488677    3.278830
 H    7.324488    0.638041    0.501032
 H    3.786598    3.067016    0.441974
 H    0.475303   -0.354732    2.036984
 H    2.469152    1.140818   -0.341859
 H    0.411818   -4.256241   -1.775521
 H   -2.149223   -3.066869    0.063819
 H   -2.039115   -3.719092   -1.562659
 H   -2.967411   -1.795796   -2.537507
 H   -3.770830   -1.777595   -0.985735
 H   -3.921333    0.637352   -0.237124
 H   -1.648568   -0.008439   -2.144419
 H   -3.669791    0.955611   -3.277778
 H   -4.969736    1.625432   -2.293263
 H   -4.786590   -0.133420   -2.430111
 H    4.065622   -2.132137   -1.088414
