57 
6bln_ligand_dft.xyz
 C    3.490974    0.575869    0.409347
 C    2.212238    1.171242    0.923250
 C    4.057037    3.092820    0.118091
 N    6.808586   -1.720714   -0.922817
 C    1.151518    0.233389    1.358718
 C   -0.183485    0.421212    0.998885
 N    5.836518   -0.882777   -0.531051
 C   -1.208953   -0.434553    1.397897
 C   -3.294978   -1.097385    0.324396
 C   -4.630199   -0.608859   -0.077773
 C   -5.333114    0.492887    0.330679
 N    5.613493    1.480268   -0.488387
 C   -6.607528    0.608103   -0.293063
 C   -6.848496   -0.424786   -1.162245
 C   -8.096056   -0.581639   -1.985666
 N    1.976383    2.436434    0.990061
 C    6.611383   -3.151139   -0.809203
 C   -9.209011    0.318382   -1.431511
 C   -8.686164    1.728008   -1.139237
 C   -7.612248    1.703899   -0.044838
 C   -0.867782   -1.522675    2.199378
 C    6.340474    0.322886   -0.765417
 C    0.448167   -1.775156    2.547900
 C    1.440935   -0.900482    2.125875
 C    7.636658    0.273500   -1.306238
 C    7.908411   -1.076247   -1.394478
 C    9.112641   -1.806882   -1.885798
 C    4.419800    1.634309   -0.001334
 F   -0.543548    1.447851    0.220928
 F   -1.831614   -2.322383    2.652696
 N    2.866239    3.415239    0.609209
 N   -2.532078   -0.167598    1.012708
 O    4.951068    3.875888   -0.268735
 O   -2.903744   -2.221582    0.073886
 S   -5.533163   -1.540823   -1.223796
 H    3.992774   -0.071006    1.144623
 H   -4.974002    1.195035    1.076949
 H    6.000759    2.433765   -0.670044
 H   -8.423045   -1.627467   -1.999268
 H   -7.883365   -0.307334   -3.028034
 H    7.333488   -3.584703   -0.111498
 H    5.601499   -3.311722   -0.434995
 H    6.718271   -3.629832   -1.786390
 H   -9.603234   -0.120439   -0.505795
 H  -10.037310    0.357143   -2.146795
 H   -9.509020    2.384240   -0.836851
 H   -8.260040    2.151024   -2.058508
 H   -7.105723    2.674580    0.011087
 H   -8.087496    1.546869    0.933488
 H    0.673213   -2.635481    3.167275
 H    2.465020   -1.088979    2.432892
 H    8.275855    1.095733   -1.590832
 H    9.548198   -2.435535   -1.101331
 H    8.869903   -2.452546   -2.737055
 H    9.873298   -1.093899   -2.208958
 H    3.308084   -0.102105   -0.438284
 H   -2.745982    0.805975    0.851471
