57 
6bln_ligand_xtb.xyz
 C    3.683330    0.587652    0.840132
 C    2.219969    0.913536    0.549931
 C    3.992135    3.102145    0.318997
 N    7.023372   -1.521238   -0.688537
 C    1.194119   -0.068384    0.840365
 C   -0.157876    0.196231    0.606028
 N    6.045647   -0.749513   -0.211470
 C   -1.178524   -0.716109    0.876586
 C   -3.418897   -1.204376    0.008196
 C   -4.738417   -0.598980   -0.155543
 C   -5.251981    0.593130    0.286290
 N    5.785355    1.616725    0.076270
 C   -6.597806    0.784137   -0.082888
 C   -7.096332   -0.269014   -0.800683
 C   -8.480052   -0.350880   -1.344986
 N    1.928379    2.060061    0.062086
 C    6.867471   -2.944761   -0.719658
 C   -9.369732    0.679561   -0.646726
 C   -8.676741    2.039682   -0.614321
 C   -7.429961    1.979246    0.266786
 C   -0.810440   -1.937246    1.443918
 C    6.485657    0.501102   -0.320596
 C    0.519750   -2.245490    1.665954
 C    1.505640   -1.331115    1.360936
 C    7.781008    0.523694   -0.876025
 C    8.090384   -0.800179   -1.100988
 C    9.304082   -1.434608   -1.668951
 C    4.547033    1.746342    0.567938
 F   -0.551890    1.384219    0.105838
 F   -1.747175   -2.809074    1.841061
 N    2.739065    3.019510   -0.170994
 N   -2.500453   -0.364258    0.616131
 O    4.689788    4.100810    0.320963
 O   -3.151609   -2.327372   -0.354469
 S   -5.922232   -1.511424   -1.036062
 H    3.711180    0.385639    1.916682
 H   -4.703742    1.314710    0.867139
 H    6.264444    2.507042   -0.051353
 H   -8.879400   -1.358679   -1.213720
 H   -8.456465   -0.149337   -2.421241
 H    7.636841   -3.429910   -0.115715
 H    5.886791   -3.180851   -0.313150
 H    6.933549   -3.317621   -1.743593
 H   -9.569184    0.353801    0.376076
 H  -10.323988    0.753465   -1.170240
 H   -9.359447    2.800826   -0.233142
 H   -8.391103    2.320860   -1.630029
 H   -6.837561    2.889865    0.153173
 H   -7.725407    1.910116    1.318847
 H    0.764226   -3.203793    2.095340
 H    2.533204   -1.597693    1.542562
 H    8.383253    1.383962   -1.079914
 H    9.756976   -2.114399   -0.947394
 H    9.056729   -2.006835   -2.562883
 H   10.029151   -0.670630   -1.932603
 H    4.054052   -0.301630    0.319486
 H   -2.674708    0.629160    0.560082
