15 
6bmi_ligand_dft.xyz
 N   -0.546559    1.585662    0.145158
 C   -0.209170    0.236986    0.727707
 C    1.079018   -0.298507    0.090995
 O    1.397761   -1.447338    0.160208
 C   -1.389210   -0.688890    0.442053
 O   -1.685424   -0.451397   -0.917300
 O    1.778584    0.686807   -0.489370
 H   -1.058560    1.401370   -0.735257
 H    0.303855    2.119043   -0.069098
 H   -1.149618    2.137776    0.761320
 H   -0.037060    0.356543    1.800524
 H   -2.237183   -0.444859    1.095832
 H   -1.066704   -1.716039    0.637267
 H   -2.343518   -1.077799   -1.243088
 H    2.603506    0.322213   -0.856441
