48 
6bmr_ligand_xtb.xyz
 C    2.986563    0.139389   -1.125506
 C    3.855196   -0.252913    0.041184
 C    5.073122   -0.885430   -0.195206
 C    5.908011   -1.262071    0.842192
 C    5.530621   -1.003920    2.148238
 C    4.328253   -0.370259    2.404670
 C    3.501745    0.000841    1.358307
 C   -0.843052    1.348925    0.270899
 C   -2.007127    1.722167    0.936393
 C   -2.240222    3.054362    1.213365
 C   -1.319470    4.028200    0.847534
 C   -2.613863   -1.386782    0.284301
 C   -3.567557   -0.670691   -0.438120
 C   -4.933107   -0.918140   -0.223865
 C   -7.157438   -0.365482   -0.888905
 C   -5.325923   -1.878241    0.691480
 C   -4.367234   -2.602896    1.387648
 C   -3.024940   -2.368276    1.184215
 N   -0.541832    0.039036   -0.055617
 C    0.723750   -0.319809   -0.461545
 N    1.679369    0.612097   -0.723564
Cl    5.564639   -1.204526   -1.821521
 C    1.434200    1.966412   -0.615588
 C    0.117837    2.318512   -0.050887
 C   -0.142156    3.658447    0.234007
 O    2.274121    2.784355   -0.930215
 N    0.830694   -1.613396   -0.579685
 N   -0.369058   -2.136562   -0.277818
 C   -1.197033   -1.177972    0.022558
 O   -5.772588   -0.142191   -0.989936
 O   -3.178926    0.261014   -1.349421
 H    2.847877   -0.724660   -1.781284
 H    3.465441    0.953276   -1.680917
 H    6.843993   -1.751913    0.624117
 H    6.177858   -1.296182    2.960724
 H    4.030551   -0.161811    3.421060
 H    2.569119    0.500752    1.574421
 H   -2.713990    0.969871    1.246053
 H   -3.147601    3.336218    1.726149
 H   -1.517160    5.067073    1.061530
 H   -7.416624   -1.392095   -1.164115
 H   -7.523694   -0.153221    0.120209
 H   -7.618881    0.325556   -1.592545
 H   -6.371188   -2.076702    0.865322
 H   -4.684387   -3.356937    2.090676
 H   -2.272547   -2.933270    1.709320
 H    0.612140    4.383378   -0.031558
 H   -3.975870    0.607742   -1.774144
