47 
6bmv_ligand_dft.xyz
 C   -0.519484    4.313355    1.544454
 C    0.658535    3.813991    1.016319
 C    0.679568    2.566530    0.389064
 C   -0.505273    1.826695    0.281057
 C   -1.687278    2.310640    0.841551
 C    0.796844    0.039994   -0.715534
 C    1.988391    2.046166   -0.082435
 C    5.022301   -1.430396   -0.136875
 C    5.645054   -2.195165    0.841428
 C    5.093585   -2.251283    2.116455
 C    3.930946   -1.543036    2.397123
 C   -2.782655   -0.359568   -0.620638
 C   -3.468450   -1.372920    0.043285
 C   -4.862382   -1.399662    0.085535
 C   -5.661424   -2.460491    0.779361
 C   -5.573607   -0.396681   -0.577187
 C   -4.911471    0.612216   -1.256884
 C   -3.516585    0.628849   -1.294509
 C   -1.685108    3.549898    1.464372
 N   -0.411498    0.584231   -0.370362
 N    1.967919    0.750146   -0.580519
 O    3.023078    2.681362   -0.008051
 C    3.213185    0.110005   -0.982911
 C    3.851898   -0.712126    0.117451
 C    3.322014   -0.783549    1.404298
Cl    5.745128   -1.373193   -1.733235
 N    0.674293   -1.171495   -1.181303
 N   -0.671292   -1.449139   -1.177160
 C   -1.315798   -0.415614   -0.709952
 O   -5.011115   -3.259744    1.649323
 O   -6.841459   -2.610636    0.592010
 O   -2.811449    1.571821   -1.956564
 H   -0.532624    5.282324    2.031929
 H    1.592438    4.361545    1.082070
 H   -2.593728    1.721216    0.809857
 H    6.552048   -2.738464    0.600138
 H    5.575395   -2.847648    2.884618
 H    3.494317   -1.579761    3.390071
 H   -2.860794   -2.157512    0.487163
 H   -6.657445   -0.429649   -0.553643
 H   -5.476240    1.381261   -1.778068
 H   -2.607749    3.920968    1.899769
 H    3.889358    0.908388   -1.295503
 H    2.995806   -0.523801   -1.845894
 H    2.414773   -0.233977    1.634079
 H   -4.105544   -2.957010    1.790602
 H   -3.412417    2.190699   -2.389497
