46 
6bqa_ligand_xtb.xyz
 C   -3.922054   13.854602    8.255659
 N  -10.268516   18.844503    5.397708
 O  -11.963892   20.375560    5.266864
 C   -4.971557   16.029465    8.184876
 N  -10.084605   22.335755    6.449059
 C   -5.175304   17.320817    7.455022
 C   -6.468818   17.732306    7.170629
 C   -6.709744   18.961577    6.562977
 C   -5.625259   19.780627    6.255257
 C   -4.336612   19.384337    6.562303
 C   -4.104219   18.159098    7.162226
 C   -8.079415   19.384042    6.252643
 C   -8.987160   18.514631    5.731436
 C  -10.805777   20.115517    5.570891
 C  -11.148355   17.808973    4.894646
 C  -11.705413   16.948796    6.037398
 C  -12.609787   15.883262    5.507859
 C  -12.412529   14.589065    5.672066
 C   -9.858891   21.032298    6.128389
 C   -8.958414   22.852477    6.997050
 C   -7.983542   21.890221    7.033934
 C   -8.541397   20.717363    6.475484
 O   -5.460795   15.849850    9.286161
 N   -4.213476   15.090742    7.568241
 C   -3.711349   15.178060    6.221685
 H   -4.351139   13.914481    9.253928
 H   -4.359006   13.005966    7.723413
 H   -2.841832   13.709813    8.328437
 H  -10.962415   22.806318    6.302226
 H   -7.294428   17.093663    7.447152
 H   -5.796945   20.725017    5.761763
 H   -3.505168   20.033874    6.330141
 H   -3.098236   17.857390    7.414515
 H   -8.714268   17.491084    5.520089
 H  -11.970688   18.312620    4.380244
 H  -10.602521   17.183493    4.183158
 H  -10.882001   16.500707    6.597931
 H  -12.266627   17.601674    6.711387
 H  -13.466763   16.242243    4.953468
 H  -13.090089   13.852746    5.275199
 H  -11.566748   14.209454    6.222363
 H   -8.918140   23.872132    7.328128
 H   -6.995649   22.005808    7.431675
 H   -4.000533   14.281484    5.666073
 H   -4.118145   16.049818    5.715659
 H   -2.618782   15.242271    6.220592
