85 
6bsl_ligand_xtb.xyz
 C    9.220054   14.898034   -4.916164
 C    7.641282   16.292169   -3.446836
 C    7.509671   17.570597   -2.628222
 C    7.926750   13.531102  -11.007842
 C    8.353450   13.159611   -9.593423
 C    8.268851   14.354869   -8.648039
 C    8.764331   14.015554   -7.244285
 C    8.679839   15.222777   -6.310883
 C    9.076339   16.083509   -3.935009
 N    9.941299   15.862648   -2.799596
 O    9.659011   14.704972   -2.054884
 C   11.131020   16.415803   -2.542863
 O   11.860609   15.992445   -1.666354
 C   10.715561   14.614134   -5.035944
 O   11.462500   15.343812   -5.660166
 N   11.156173   13.521622   -4.378479
 C   12.551501   13.118113   -4.489780
 N   12.901232   12.942184   -5.870686
 C   12.742636   11.745785   -6.502951
 O   12.693482   10.678058   -5.924893
 C   12.629389   11.878935   -7.963839
 C   12.669491   10.945391   -8.970149
 C   12.369561   11.634218  -10.157868
 C   12.149771   12.949128   -9.805763
 O   12.316960   13.091080   -8.475951
 C   11.735392   14.107209  -10.571397
 C   11.507698   15.326142   -9.928629
 C   11.078538   16.407714  -10.663594
 C   10.843566   16.319102  -12.033940
 C   10.453879   17.578722  -12.722133
 O   10.746889   18.671844  -12.269773
 N    9.723969   17.444994  -13.857855
 C    9.488742   18.585925  -14.697993
 C   10.586581   18.746090  -15.774067
 C   11.912557   18.891107  -15.062048
 O   12.689271   17.991221  -14.878939
 O   12.110178   20.132774  -14.637429
 C    8.120312   18.541517  -15.356934
 O    7.790598   19.232724  -16.281116
 O    7.311226   17.644894  -14.792118
 C   11.079603   15.095221  -12.686065
 O   10.825269   15.012725  -14.025359
 C   11.627401   14.164955  -14.835714
 C   13.095903   14.565259  -14.805178
 C   11.530512   14.010415  -11.945827
 H    8.702238   14.030363   -4.499206
 H    6.975481   16.338982   -4.307884
 H    7.356204   15.432857   -2.838295
 H    6.487784   17.688400   -2.277749
 H    8.166719   17.540796   -1.762647
 H    7.769520   18.439304   -3.229192
 H    8.002667   12.670944  -11.668838
 H    6.896770   13.880781  -11.015976
 H    8.561136   14.323603  -11.398920
 H    7.717610   12.353806   -9.219266
 H    9.380150   12.788011   -9.613090
 H    8.870829   15.170817   -9.053741
 H    7.233340   14.699402   -8.594251
 H    8.170241   13.193563   -6.836195
 H    9.800896   13.676866   -7.306068
 H    9.274847   16.037793   -6.727622
 H    7.642751   15.554058   -6.244657
 H    9.445813   16.990635   -4.424164
 H   10.428568   14.663903   -1.444665
 H   11.347450   17.290508   -3.166241
 H   10.505802   12.916730   -3.904689
 H   12.694308   12.170282   -3.969414
 H   13.186305   13.899442   -4.057556
 H   12.831506   13.789476   -6.420977
 H   12.888682    9.904444   -8.853419
 H   12.313778   11.209576  -11.138840
 H   11.671618   15.413632   -8.866242
 H   10.916709   17.365577  -10.192522
 H    9.623514   16.525432  -14.260085
 H    9.518749   19.469773  -14.042233
 H   10.372468   19.634532  -16.365831
 H   10.612833   17.861305  -16.410888
 H   12.898883   20.190090  -14.075540
 H    6.437491   17.661900  -15.215141
 H   11.216818   14.303420  -15.839368
 H   11.492901   13.113191  -14.554374
 H   13.642750   14.015020  -15.565393
 H   13.185524   15.632232  -14.997231
 H   13.533522   14.353279  -13.832245
 H   11.712982   13.067175  -12.433367
