55 
6bsm_ligand_dft.xyz
 C   -4.160038   -5.201863    0.080068
 C   -2.739134   -4.667958    0.262408
 C   -2.427768   -3.414340   -0.560889
 C   -3.251938   -2.191081   -0.155845
 C   -2.929034   -0.970233   -1.028580
 C   -3.475183    0.357903   -0.470338
 C   -3.740660    1.357200   -1.598840
 N   -3.874655    2.752458   -1.111319
 O   -3.415416    3.666672   -1.726016
 C   -4.875559    3.096979   -0.003098
 O   -5.736559    2.333852    0.255875
 C   -2.554103    1.079671    0.511388
 O   -2.644676    2.329301    0.583656
 N   -1.718287    0.374311    1.245245
 C   -0.664144    0.921348    2.093994
 N    0.620101    0.729898    1.469157
 C    0.997356   -0.526932    1.090566
 O    0.230308   -1.485520    1.191845
 C    2.341192   -0.656149    0.529536
 C    2.979124   -1.743896    0.036832
 C    4.267041   -1.285483   -0.403999
 C    5.364624   -1.899134   -1.020717
 C    6.448203   -1.099052   -1.334339
 C    6.460505    0.271996   -1.034780
 C    5.387361    0.904970   -0.418824
 O    5.468887    2.238497   -0.201882
 C    4.845612    2.771569    0.954729
 C    4.288818    0.088664   -0.121920
 O    3.108086    0.477241    0.447774
 H   -4.293038   -6.144794    0.618141
 H   -4.375129   -5.389805   -0.978255
 H   -4.915326   -4.503706    0.457853
 H   -2.553225   -4.458110    1.323921
 H   -2.024117   -5.447663   -0.022618
 H   -1.364427   -3.167654   -0.448090
 H   -2.596148   -3.626127   -1.626096
 H   -4.325186   -2.399927   -0.238129
 H   -3.073378   -1.981501    0.908248
 H   -3.359280   -1.138253   -2.023130
 H   -1.845823   -0.878449   -1.182166
 H   -4.414640    0.168405    0.062913
 H   -2.933225    1.397878   -2.332703
 H   -4.687755    1.138950   -2.104854
 H   -4.662649    4.106790    0.366198
 H   -1.596633   -0.622525    1.078739
 H   -0.713356    0.391694    3.049225
 H   -0.844686    1.982964    2.252949
 H    1.257535    1.503630    1.352186
 H    2.574101   -2.744362   -0.006621
 H    5.359392   -2.960058   -1.244540
 H    7.319229   -1.534031   -1.812978
 H    7.325052    0.880206   -1.278553
 H    5.043196    2.149400    1.834915
 H    3.764489    2.876832    0.815116
 H    5.286204    3.758138    1.102601
