53 
6bt0_ligand_dft.xyz
 C    3.352600    0.256304    0.120606
 C    1.204271    0.818366    1.185775
 C    1.305628    2.084768    0.635827
 C    4.160068   -0.914010    0.009932
 C    2.417830    2.461585   -0.147788
 C    3.541469   -1.889563    0.738534
 C    3.429055    1.556761   -0.392041
 C    4.093140   -3.244778    0.989252
 C    2.240617   -0.079181    0.921886
Cl   -5.436061    0.325714    0.334831
 C   -3.905353    1.112007    0.525311
 C   -3.312541    1.265729    1.779675
Cl   -4.058654    0.635168    3.215758
 C   -2.093713    1.929338    1.896975
 C   -3.251282    1.595176   -0.606393
 C   -2.030642    2.243658   -0.491255
 C   -1.448332    2.421166    0.765187
 S    0.071302    3.342871    0.943373
Br    4.909231    2.044699   -1.457244
 O    4.697418   -3.872797    0.163352
 O    3.901083   -3.740883    2.236609
 N    2.375591   -1.392295    1.326501
 C    1.229694   -2.183790    1.774096
 C    0.077379   -2.135806    0.792238
 C   -1.225272   -1.930574    1.241888
 C   -2.276683   -1.845028    0.337856
 C    0.314105   -2.273063   -0.575521
 C   -0.731231   -2.155560   -1.480720
 C   -2.031455   -1.913508   -1.032245
 C   -3.210578   -1.806128   -1.959089
 O   -4.245775   -2.401465   -1.695571
 N   -3.075606   -1.044014   -3.091978
 C   -4.172304   -1.028875   -4.041849
 C   -2.015777   -0.090289   -3.356736
 H    0.344401    0.532437    1.780465
 H    5.104248   -1.017108   -0.504219
 H    2.465668    3.458414   -0.571550
 H   -1.655039    2.067159    2.879225
 H   -3.717804    1.459340   -1.575949
 H   -1.533012    2.626261   -1.376089
 H    3.601094   -3.036466    2.828535
 H    0.904357   -1.811831    2.752215
 H    1.567943   -3.213383    1.915346
 H   -1.424853   -1.829122    2.306267
 H   -3.295858   -1.714566    0.685944
 H    1.323820   -2.447889   -0.938535
 H   -0.532530   -2.258067   -2.543387
 H   -4.836295   -1.864781   -3.828709
 H   -4.745053   -0.094643   -3.966533
 H   -3.778284   -1.115047   -5.060561
 H   -1.402477    0.072850   -2.471237
 H   -1.370883   -0.423205   -4.180124
 H   -2.459072    0.871351   -3.646729
