35 
6bt6_ligand_dft.xyz
 N    6.580281    2.013958   -0.000178
 C    4.269076   -0.572602   -0.000002
 C    2.962809   -0.057395   -0.000034
 C    1.878172   -0.923740    0.000082
 C    2.118638   -2.336196    0.000236
 C   -0.596543   -1.110399   -0.000065
 C   -2.873006    1.999344    0.000019
 C   -4.111236    1.415062   -0.000137
 C   -1.188840    3.267435    0.000221
 C   -5.549224   -0.629077   -0.000059
 F   -6.254962   -0.249168    1.080317
 F   -6.256776   -0.245989   -1.078118
 F   -5.504797   -1.968572   -0.002050
 C   -4.180819   -0.005030   -0.000273
 N   -2.497300    3.336244    0.000157
 N   -0.616956    2.008003    0.000168
 C   -1.685384    1.196872    0.000032
 C   -3.047507   -0.797150   -0.000259
 C   -1.764320   -0.221879   -0.000106
 O   -0.664096   -2.332989   -0.000148
 N    0.611972   -0.413934    0.000109
 C    3.420023   -2.852600    0.000230
 C    4.495566   -2.001429    0.000114
 C    5.391482    0.251148   -0.000074
 N    5.380018    1.638364   -0.000132
 N    6.708175   -0.196990   -0.000052
 N    7.441729    0.823533   -0.000117
 H    2.815259    1.017435   -0.000140
 H    1.255619   -2.991630    0.000348
 H   -5.016565    2.013354   -0.000177
 H   -0.558484    4.149051    0.000339
 H   -3.127025   -1.877526   -0.000370
 H    0.522115    0.618852    0.000170
 H    3.564193   -3.926923    0.000334
 H    5.517693   -2.363555    0.000107
