66 
6bto_ligand_xtb.xyz
 C    9.623508   13.926492   -5.133185
 C   10.339830   15.865994   -3.772890
 C   11.031462   13.761658   -5.685241
 C    4.048173   11.928501   -7.571461
 C    4.889809   12.575525   -6.478657
 C    6.365635   12.637131   -6.864515
 C    7.219794   13.288286   -5.779074
 C    8.680217   13.371631   -6.213656
 C    9.362795   15.409667   -4.833309
 O   10.193592   15.697745   -2.571834
 N   11.415408   16.516433   -4.253525
 O   12.428532   16.830884   -3.337905
 O   11.562943   14.662860   -6.337868
 N   11.631207   12.582261   -5.509384
 C   11.284979   11.522056   -4.567671
 C   12.032979   11.841954   -3.263747
 C   13.505441   11.597319   -3.663143
 C   13.400715   11.127451   -5.120706
 C   12.087777   10.345523   -5.111120
 C   12.996444   12.323405   -5.983959
 C   12.962839   11.982153   -7.487711
 O   13.157319   10.865690   -7.921318
 N   12.678942   13.052557   -8.246725
 C   12.339828   12.934869   -9.645203
 C   13.142232   13.888770  -10.518175
 O   13.283163   13.764548  -11.702931
 O   13.638083   14.919011   -9.828773
 C   10.868073   13.244898   -9.853458
 C    9.997818   12.276844  -10.332302
 C    8.651873   12.564375  -10.483691
 C    8.168183   13.820234  -10.160295
 C    9.033496   14.788777   -9.678715
 C   10.378799   14.503790   -9.524876
 H    9.501475   13.365550   -4.204492
 H    3.001617   11.893031   -7.278778
 H    4.126651   12.493438   -8.497762
 H    4.386250   10.912263   -7.761817
 H    4.781824   12.006864   -5.552322
 H    4.523587   13.587113   -6.289709
 H    6.474969   13.204041   -7.791655
 H    6.731467   11.625481   -7.055563
 H    7.142916   12.707595   -4.856698
 H    6.832588   14.287801   -5.576425
 H    9.021088   12.370271   -6.492423
 H    8.761751   13.997477   -7.105100
 H    9.486064   15.997819   -5.741809
 H    8.353532   15.530830   -4.443152
 H   11.759693   16.384278   -5.196787
 H   12.018620   16.611097   -2.475018
 H   10.212629   11.375030   -4.473539
 H   11.851675   12.866264   -2.939571
 H   11.713880   11.172123   -2.466370
 H   13.958339   10.822715   -3.045774
 H   14.111011   12.498120   -3.572365
 H   14.272363   10.605140   -5.504020
 H   11.780158   10.025742   -6.103045
 H   12.097598    9.496375   -4.432783
 H   13.622935   13.209034   -5.832307
 H   12.453813   13.929587   -7.781431
 H   12.559158   11.908290   -9.958706
 H   14.126107   15.517125  -10.417158
 H   10.374459   11.297397  -10.585970
 H    7.979955   11.805805  -10.856342
 H    7.119569   14.046153  -10.286936
 H    8.660549   15.770763   -9.426044
 H   11.048822   15.260098   -9.143105
