54 
6bu0_ligand_xtb.xyz
 C   -1.108466    0.275031   -0.559122
 C   -0.331109    1.599207   -0.585046
 C    0.466469    1.809548    0.714243
 C    1.342619    0.592645    1.005480
 C    0.547793   -0.708999    1.028686
 C   -0.186951   -0.909248   -0.291929
 O   -2.036222    0.411118    0.479583
 P   -3.417101   -0.391293    0.766430
 O   -3.956328    0.508515    1.905562
 O   -3.311030   -1.817652    1.078155
 O   -4.329244   -0.069925   -0.500154
 O   -1.200174    2.671711   -0.797066
 P   -2.516846    3.043690    0.034629
 O   -3.731802    2.572636   -0.850838
 O   -2.625379    2.753737    1.479489
 O   -2.467780    4.589511   -0.274642
 O    1.249026    2.964855    0.603073
 P    2.690916    3.115396   -0.110221
 O    2.708905    4.686076   -0.188011
 O    3.878484    2.592345    0.568605
 O    2.521098    2.671737   -1.635719
 O    2.271095    0.547408   -0.038412
 P    3.469035   -0.528426   -0.316451
 O    4.516222    0.478517   -0.900088
 O    4.071154   -1.046971    1.026333
 O    3.038132   -1.527051   -1.307132
 O    1.503758   -1.705445    1.238764
 P    1.670093   -3.244590    0.782763
 O    3.026339   -3.575161    1.207010
 O    0.522457   -4.070893    1.459795
 O    1.381978   -3.392495   -0.769427
 O   -0.897127   -2.102636   -0.105770
 P   -1.921686   -2.724658   -1.191430
 O   -1.004973   -3.404465   -2.265465
 O   -2.518101   -3.898864   -0.344123
 O   -2.851581   -1.763178   -1.797325
 H   -1.623833    0.133243   -1.516023
 H    0.364441    1.611777   -1.431219
 H   -0.241963    1.993792    1.529309
 H    1.872626    0.722924    1.957011
 H   -0.188480   -0.714880    1.842198
 H    0.532567   -1.008039   -1.113327
 H   -3.545421    1.409909    1.892645
 H   -4.107729   -0.727871   -1.190393
 H   -4.067147    1.672750   -0.717696
 H   -2.983926    5.082860    0.361185
 H    1.915190    5.059586   -0.572593
 H    3.114153    1.951222   -1.861852
 H    4.614611    1.242777   -0.289311
 H    3.832143   -1.980546    1.218452
 H   -0.358060   -3.885735    1.121150
 H    2.078923   -2.848196   -1.211051
 H   -0.201405   -3.797890   -1.901536
 H   -3.076259   -3.506014    0.345784
