35 
6bu3_ligand_dft.xyz
 N    6.580264    2.013964    0.000459
 C    4.269066   -0.572612    0.000109
 C    2.962801   -0.057403   -0.000246
 C    1.878166   -0.923749   -0.000417
 C    2.118624   -2.336201   -0.000239
 C   -0.596547   -1.110398   -0.000971
 C   -2.872999    1.999361   -0.000348
 C   -4.111227    1.415089   -0.000521
 C   -1.188827    3.267451   -0.000242
 C   -5.549206   -0.629084    0.000637
 F   -6.251501   -0.254522    1.085126
 F   -6.260203   -0.240708   -1.073254
 F   -5.504761   -1.968551   -0.008027
 C   -4.180813   -0.005015   -0.000833
 N   -2.497279    3.336263   -0.000157
 N   -0.616950    2.008002   -0.000453
 C   -1.685374    1.196884   -0.000547
 C   -3.047507   -0.797134   -0.000999
 C   -1.764319   -0.221868   -0.000867
 O   -0.664109   -2.332987   -0.001198
 N    0.611965   -0.413938   -0.000658
 C    3.420008   -2.852605    0.000126
 C    4.495553   -2.001434    0.000290
 C    5.391470    0.251142    0.000320
 N    5.380002    1.638354    0.000192
 N    6.708160   -0.196996    0.000682
 N    7.441703    0.823538    0.000777
 H    2.815253    1.017428   -0.000354
 H    1.255604   -2.991634   -0.000404
 H   -5.016555    2.013379   -0.000548
 H   -0.558459    4.149058   -0.000108
 H   -3.127020   -1.877512   -0.001275
 H    0.522113    0.618846   -0.000557
 H    3.564178   -3.926928    0.000272
 H    5.517678   -2.363564    0.000544
