85 
6bw2_ligand_dft.xyz
 C   -7.480200   -3.937708   -1.817170
 C   -6.611266    0.267222    0.887654
 C    2.330593    4.250509    1.655354
 C   -2.061748    4.927151   -0.895890
 C   -0.043802    7.150824   -1.428739
 C    7.701051   -1.597659   -1.112764
 C   -1.883288    1.740388    2.843350
 C    6.618880   -1.074025   -1.816878
 C    7.486126   -2.514943   -0.092527
 C   -1.482434    2.902540    2.159518
 C   -1.303786    0.522230    2.552283
 C   -5.214614   -3.400498   -0.874815
 C   -4.796468   -1.404881    0.413218
 C    5.105151   -2.370939   -0.474151
 C   -0.760308   -2.867024    0.564884
 C    2.857817    2.285816   -1.351997
 C   -2.135669   -2.233734    0.650930
 C    0.281461   -2.083141    1.382309
 C    3.629273    1.099025   -0.777577
 C    1.351067    2.010597   -1.322842
 C    4.126645   -0.868381   -2.240646
 C    5.877019   -3.874261    1.333101
 C    2.097392   -0.851945   -0.905000
 C   -6.548137   -3.048793   -1.038076
 C   -6.132160   -1.018781    0.267588
 C    1.237030    4.737369    0.758352
 C    5.314448   -1.454143   -1.504748
 C   -4.333269   -2.590363   -0.155695
 C   -0.695143    5.002914   -0.302794
 C    6.181782   -2.909389    0.224914
 C   -6.984261   -1.850240   -0.456860
 C   -0.519899    2.886699    1.158344
 C    0.386625   -0.644308    0.967704
 C   -0.035776    4.145301    0.559292
 C    1.154560   -0.108853   -0.034654
 C   -0.346958    0.454452    1.527206
 C    0.020197    1.625798    0.823944
 N    1.357119    5.860267    0.062039
 N    3.204713   -0.175631   -1.352375
 N    0.177117    6.006036   -0.576145
 N    0.948980    1.267805   -0.131889
 O    6.843942   -4.770831    1.632188
 O    1.892746   -2.027540   -1.196390
 O    4.840591   -3.873882    1.943331
 O   -3.057556   -3.036122   -0.066169
Cl   -8.669304   -1.379682   -0.649794
 H   -6.951470   -4.819287   -2.188503
 H   -8.317187   -4.273595   -1.195847
 H   -7.909672   -3.406633   -2.673290
 H   -7.412867    0.083346    1.610971
 H   -5.792142    0.775853    1.403284
 H   -7.014827    0.946016    0.128782
 H    2.076214    4.420908    2.707322
 H    2.491476    3.173778    1.535458
 H    3.262465    4.778492    1.437737
 H   -2.561349    4.022622   -0.540780
 H   -2.676756    5.788424   -0.610325
 H   -2.028647    4.892068   -1.991250
 H   -0.269465    6.837728   -2.453204
 H   -0.869548    7.763546   -1.053183
 H    0.873743    7.738053   -1.422813
 H    8.710644   -1.278415   -1.351702
 H   -2.629859    1.815709    3.627886
 H    6.793091   -0.354831   -2.613882
 H    8.335696   -2.881613    0.478885
 H   -1.906181    3.861925    2.443296
 H   -1.581563   -0.371219    3.104165
 H   -4.832098   -4.319175   -1.308333
 H   -4.133522   -0.757634    0.976363
 H    4.096979   -2.679249   -0.214571
 H   -0.434479   -2.902748   -0.478262
 H   -0.813258   -3.896514    0.935878
 H    3.157526    2.473751   -2.389523
 H    3.097379    3.184666   -0.775093
 H   -2.115393   -1.222233    0.225853
 H   -2.459124   -2.150667    1.699913
 H    1.249610   -2.577088    1.265997
 H    0.024305   -2.129317    2.448450
 H    3.501203    1.064341    0.309060
 H    4.701752    1.206017   -0.961034
 H    1.066731    1.414290   -2.196309
 H    0.786219    2.939354   -1.361428
 H    3.560505   -1.661055   -2.733858
 H    4.468869   -0.161959   -3.005869
 H    7.532301   -4.754340    0.954441
