71 
6c0n_ligand_xtb.xyz
 C   -2.775647    0.063246   -3.144738
 C   -2.568546    1.176644   -2.168137
 C   -1.358913    1.836198   -2.059533
 C   -1.157698    2.830873   -1.097198
 C    0.196294    3.262532   -0.849842
 C    0.621133    4.021609    0.179216
 C    1.982680    4.064561    0.489777
 C   -2.241230    3.243410   -0.316293
 C   -3.464049    2.603056   -0.397591
 C   -4.612739    2.973954    0.484237
 C   -3.589460    1.535018   -1.286953
 C   -4.579847   -0.322504   -0.456616
 C   -3.290730   -1.510252    1.007251
 C   -1.104012   -0.582201    1.679654
 C    0.004066   -0.950993    0.671663
 C    1.153105    0.047049    0.722489
 C    2.988106    0.880460    2.172132
 C    4.059633    0.261863    1.311306
 C    4.515327   -1.026035    1.585147
 C    5.473065   -1.608909    0.773382
 C    5.970580   -0.898691   -0.301004
 C    5.545243    0.385788   -0.573114
 C    4.584415    0.970543    0.235647
 C    0.689887    0.565878    3.043450
 C   -0.481577   -0.406620    3.071183
 C   -5.269820   -2.425015    0.454092
 C   -6.329638   -3.370971    0.428810
 C   -7.345536   -2.974806   -0.372703
 C   -5.554671   -1.312442   -0.370941
 N    3.079763    3.923526    0.807462
 N   -3.457050   -0.426140    0.237036
 N   -2.140149   -1.570017    1.734713
 N    1.722472    0.095028    2.091918
 N    8.583389   -0.993990   -0.836884
 N   -4.126636   -2.520422    1.140417
 O   -4.737660    0.750995   -1.245262
 O    7.169504   -3.077836   -1.105482
 O    6.905630   -1.206754   -2.716625
 S    7.165296   -1.676569   -1.391552
 S   -7.094486   -1.452914   -1.146237
 H   -3.732574    0.178258   -3.649825
 H   -1.981166    0.045096   -3.885293
 H   -2.791343   -0.896004   -2.625328
 H   -0.540201    1.545733   -2.702155
 H    0.946148    2.833001   -1.505643
 H   -0.045032    4.528923    0.861262
 H   -2.126269    4.051698    0.389437
 H   -4.800959    2.178063    1.205560
 H   -4.410451    3.895121    1.023075
 H   -5.516838    3.098183   -0.108346
 H   -1.582588    0.346255    1.349105
 H   -0.420945   -0.955549   -0.331121
 H    0.369257   -1.959153    0.882565
 H    0.803987    1.049394    0.463841
 H    1.945883   -0.238927    0.028066
 H    2.798495    1.907918    1.851778
 H    3.307655    0.893394    3.217446
 H    4.139398   -1.573449    2.439296
 H    5.836972   -2.608466    0.947633
 H    5.956298    0.903824   -1.423712
 H    4.250269    1.979891    0.047105
 H    1.133378    0.652190    4.037655
 H    0.363356    1.556613    2.721493
 H   -0.146657   -1.379950    3.439368
 H   -1.236753   -0.038779    3.764973
 H   -6.311738   -4.286736    0.988176
 H   -8.261382   -3.498249   -0.568174
 H   -1.979362   -2.446187    2.204451
 H    1.959227   -0.873826    2.340842
 H    9.210175   -1.673204   -0.437340
 H    9.041961   -0.429955   -1.533882
