71 
6c0r_ligand_xtb.xyz
 C   -2.532812   -0.206270   -2.981372
 C   -2.387299    1.010661   -2.123955
 C   -1.182712    1.677807   -2.008013
 C   -1.039603    2.777131   -1.155271
 C    0.299358    3.233911   -0.871279
 C    0.669505    4.070721    0.117560
 C    2.015795    4.139316    0.487225
 C   -2.170326    3.277782   -0.504601
 C   -3.391382    2.635060   -0.599809
 C   -4.597329    3.112837    0.142993
 C   -3.465285    1.470929   -1.366077
 C   -4.523284   -0.327444   -0.479114
 C   -3.315390   -1.469646    1.087236
 C   -1.137339   -0.546957    1.771288
 C   -0.043527   -0.942856    0.758185
 C    1.103170    0.058633    0.772413
 C    2.952642    0.930557    2.178374
 C    4.011077    0.297015    1.311938
 C    4.431736   -1.006136    1.571597
 C    5.367677   -1.608743    0.749968
 C    5.884013   -0.901012   -0.317437
 C    5.499495    0.399647   -0.571382
 C    4.555427    1.002718    0.244651
 C    0.669475    0.622132    3.091205
 C   -0.497995   -0.353830    3.151643
 C   -5.297624   -2.363046    0.512589
 C   -6.381253   -3.281862    0.500331
 C   -7.358628   -2.903856   -0.356003
 C   -5.524824   -1.288964   -0.378948
 N    3.099551    4.018896    0.854634
 N   -3.429372   -0.421005    0.260012
 N   -2.188293   -1.517305    1.851403
 N    1.690013    0.138643    2.133165
 N    8.487754   -1.386128   -0.631174
 N   -4.180484   -2.451524    1.241537
 O   -4.627790    0.709331   -1.323874
 O    6.795550   -3.121713   -1.339060
 O    7.018988   -1.035827   -2.668347
 S    7.050006   -1.716122   -1.411691
 S   -7.040558   -1.432665   -1.199788
 H   -3.454606   -0.153732   -3.557203
 H   -1.692199   -0.301873   -3.662858
 H   -2.583314   -1.102350   -2.361028
 H   -0.324397    1.315895   -2.556013
 H    1.083287    2.758349   -1.451355
 H   -0.030372    4.623038    0.726687
 H   -2.096901    4.163226    0.107854
 H   -4.864107    2.398585    0.922393
 H   -4.416097    4.080957    0.600883
 H   -5.447079    3.191030   -0.532188
 H   -1.605059    0.382835    1.428496
 H   -0.482262   -0.969320   -0.238264
 H    0.324924   -1.945731    0.987477
 H    0.746573    1.053559    0.496190
 H    1.888302   -0.240257    0.074775
 H    2.754631    1.951667    1.843454
 H    3.289688    0.965175    3.217833
 H    4.043926   -1.551770    2.421739
 H    5.696177   -2.622562    0.909883
 H    5.927944    0.914260   -1.415878
 H    4.249641    2.022955    0.066767
 H    1.127356    0.727018    4.077029
 H    0.333922    1.605964    2.757464
 H   -0.154582   -1.321076    3.527953
 H   -1.244001    0.021911    3.851060
 H   -6.407172   -4.165965    1.108188
 H   -8.281332   -3.413601   -0.555322
 H   -2.052846   -2.373772    2.363166
 H    1.935811   -0.823833    2.397708
 H    8.973275   -2.220711   -0.345094
 H    9.084978   -0.772019   -1.160567
