80 
6c3l_ligand_dft.xyz
 N  -19.651842    3.264720    2.279898
 C  -20.419028    4.252894    1.579272
 C  -19.521966    5.356402    0.992847
 O  -18.476032    5.646003    1.565092
 C  -15.648528    6.637782    7.990098
 C  -14.120804    1.112771    1.991547
 C  -13.860842    0.554626    0.724750
 C  -18.080987   -0.389851    1.197282
 C  -14.964977    2.198398    2.137482
 C  -14.438896    1.078583   -0.417374
 C  -17.777419    0.225980    2.396786
 C  -16.777890    3.857034   -0.492547
 C  -19.548482    1.442260    0.545413
 C  -19.042345    3.442945    3.507073
 C  -16.803642    1.304279   -3.047449
 C  -18.936076    6.922488   -2.165128
 C  -20.888544    5.672311   -2.346358
 C  -16.259806    2.705850   -2.714594
 C  -19.120557    7.096732   -0.661638
 C  -21.183329    5.813241   -0.854128
 C  -16.797789    4.530982    7.915560
 C  -16.149370    5.597364    5.884381
 C  -16.905435    3.200082    7.184244
 C  -16.256330    4.266552    5.156239
 C  -17.470654    2.173831    5.069978
 C  -18.541420   -0.185391   -2.114110
 C  -18.969321    0.208677    0.281829
 C  -16.094514    2.935499   -1.239649
 C  -18.244739    2.377963    3.802139
 C  -15.559485    2.714914    0.983577
 C  -15.305703    2.176581   -0.300388
 C  -18.347471    1.471978    2.689565
 C  -19.224122    2.062917    1.752602
 N  -17.859515    0.973360   -2.112803
 N  -19.248093   -0.437015   -0.962310
 N  -16.447663    3.749597    0.833511
 N  -15.806630    5.384898    7.281353
 N  -17.259731    3.420891    5.789517
 N  -19.929136    5.998631   -0.132317
 O  -20.176650    6.788275   -2.826064
 S  -18.580095   -1.261007   -3.402558
 H  -21.124050    4.730947    2.270196
 H  -21.013832    3.738532    0.825081
 H  -15.345058    6.442034    9.023857
 H  -14.865135    7.235648    7.512837
 H  -16.577070    7.241114    8.012060
 H  -13.646292    0.684763    2.869947
 H  -13.191987   -0.297157    0.646437
 H  -17.622501   -1.337207    0.932606
 H  -15.166962    2.631321    3.111422
 H  -14.225019    0.644484   -1.389904
 H  -17.080557   -0.237754    3.087656
 H  -17.497868    4.595698   -0.815137
 H  -20.222404    1.879346   -0.185059
 H  -19.220441    4.337346    4.086059
 H  -16.006760    0.552106   -2.983676
 H  -17.192093    1.270206   -4.068294
 H  -18.304831    6.042036   -2.368063
 H  -18.447439    7.802456   -2.589321
 H  -21.820665    5.622503   -2.913924
 H  -20.316860    4.745248   -2.518846
 H  -15.309941    2.834373   -3.246899
 H  -16.948703    3.462108   -3.110618
 H  -18.163118    7.097581   -0.140599
 H  -19.633368    8.046366   -0.460487
 H  -21.822761    6.691115   -0.692104
 H  -21.721442    4.935544   -0.498051
 H  -16.496237    4.351908    8.953872
 H  -17.796816    5.010947    7.931383
 H  -15.366463    6.204868    5.416866
 H  -17.108501    6.143029    5.777981
 H  -17.685532    2.591556    7.654984
 H  -15.945518    2.657251    7.279838
 H  -16.545357    4.445215    4.116185
 H  -15.262897    3.776744    5.159021
 H  -18.028746    1.497430    5.730434
 H  -16.514291    1.659869    4.846290
 H  -17.795260    1.464482   -1.227256
 H  -19.643025   -1.366372   -0.936397
 H  -16.917342    4.271294    1.562002
