80 
6c5q_ligand_dft.xyz
 C   -0.678027    3.398941    1.011405
 C   -5.373709    1.109284   -0.525035
 C   -7.197525    0.712653    0.997458
 C   -5.294950   -0.765496    1.002685
 C   -3.305457   -1.980147    1.744759
 C   -2.599766   -2.434837    0.451593
 C    0.938409   -1.473933   -1.377028
 C    4.499082   -1.147528   -0.544556
 C   -0.114844   -0.430851   -1.519812
 C   -1.224101   -0.731432   -2.334387
 C   -2.310183    0.117576   -2.402718
 C   -2.297633    1.255837   -1.591805
 C   -1.195942    1.575500   -0.769138
 C   -0.082185    0.731427   -0.757456
 C   -2.848746    3.040102   -0.341742
 C   -1.563288    2.728948    0.008588
 C   -3.756569    4.102727    0.182593
 C   -4.700638    1.924618   -1.617268
 C   -6.612430    1.480702   -0.009423
 C   -6.543332   -0.397843    1.513060
 C   -4.730826   -0.024301   -0.028600
 C    3.344759   -1.950134   -1.110021
 C    4.826771   -1.228182    0.805106
 C    5.873384   -0.479471    1.339106
 C    6.628064    0.384309    0.544294
 C    6.285914    0.465962   -0.811992
 C    5.248085   -0.283187   -1.347750
 C    3.704079   -2.747484   -2.366723
 C    7.790600    1.222953    1.089241
 C    9.083206    0.845796    0.340282
 C    8.020231    0.993137    2.588967
 C    7.486741    2.717182    0.869958
 C   -3.171996   -3.101961    2.780083
 C   -2.681543   -0.684456    2.280368
 N   -3.293976    2.174187   -1.341338
 N    2.218777   -1.048186   -1.356383
 O   -4.716894   -1.870476    1.548918
 O   -3.152867   -2.658832   -0.598630
 O   -1.290811   -2.564961    0.663329
 O    0.648249   -2.671479   -1.256099
 H   -1.187855    4.216753    1.528288
 H   -0.342899    2.685806    1.774403
 H    0.219858    3.816100    0.539617
 H   -8.164530    0.997831    1.401397
 H   -1.234270   -1.669109   -2.878594
 H   -3.172801   -0.147288   -3.005202
 H    0.752915    0.932977   -0.090659
 H   -4.078950    4.786342   -0.611727
 H   -3.248356    4.695472    0.945692
 H   -4.654711    3.667838    0.637078
 H   -4.763419    1.412332   -2.582226
 H   -5.209892    2.884442   -1.743350
 H   -7.119483    2.364766   -0.388057
 H   -6.976082   -0.989064    2.313278
 H   -3.792385   -0.343775   -0.454889
 H    3.000873   -2.658986   -0.350253
 H    4.256372   -1.886941    1.455274
 H    6.092153   -0.583516    2.396172
 H    6.845591    1.123464   -1.471657
 H    5.026417   -0.193782   -2.408653
 H    2.837614   -3.334222   -2.681904
 H    4.535987   -3.427054   -2.157715
 H    3.995482   -2.086936   -3.189654
 H    8.999841    1.035201   -0.734607
 H    9.927350    1.433739    0.718810
 H    9.315345   -0.215688    0.477801
 H    8.860082    1.607646    2.930410
 H    8.264934   -0.052528    2.805715
 H    7.142645    1.273627    3.182075
 H    7.356620    2.953130   -0.191078
 H    6.569881    3.008519    1.393845
 H    8.309704    3.332853    1.251071
 H   -3.662441   -4.008204    2.413767
 H   -2.119993   -3.318676    2.976153
 H   -3.659948   -2.793446    3.709137
 H   -1.648824   -0.880003    2.575581
 H   -3.248208   -0.351285    3.155657
 H   -2.673438    0.121745    1.542623
 H    2.410648   -0.075812   -1.546197
 H   -0.810655   -2.768774   -0.178075
