74 
6c5t_ligand_xtb.xyz
 C   20.984821  -29.081807   24.879506
 C   19.955110  -28.263181   22.717499
 C   21.838927  -27.650914   19.473236
 C   19.481751  -26.815655   20.785885
 C   19.955885  -25.249355   17.559532
 C   17.884748  -24.660621   18.979281
 C   22.111210  -26.192419   16.716385
 C   23.627462  -24.538817   15.569674
 C   19.313471  -26.242691   26.790914
 C   20.243969  -26.025647   27.803008
 C   21.398543  -26.782679   27.865792
 C   21.645087  -27.763900   26.921746
 C   20.727637  -27.998771   25.906585
 C   19.570195  -27.236036   25.852126
 C   18.063992  -25.459862   26.682426
 C   18.022309  -24.001465   27.058607
 C   17.321489  -25.004759   27.912006
 C   19.974707  -30.221017   25.016072
 C   20.341571  -27.722178   21.382340
 C   21.508718  -28.135605   20.719601
 C   20.986181  -26.724975   18.882974
 C   19.802640  -26.297992   19.536830
 C   19.166602  -25.356403   18.671412
 C   19.787889  -24.409576   16.343364
 C   23.040786  -25.000850   16.739792
 C   24.484891  -23.456238   15.593307
 C   24.778226  -22.797653   16.784426
 C   24.181876  -23.257714   17.950373
 C   23.330840  -24.348802   17.928871
 C   25.731752  -21.608896   16.754133
 C   27.116603  -22.069782   16.288365
 C   25.855302  -20.893847   18.101602
 C   25.095324  -20.629934   15.773551
 N   21.011502  -28.549705   23.519898
 N   21.048968  -26.088166   17.677659
 O   18.788515  -28.419519   23.029912
 O   24.208714  -19.868180   16.053151
 O   25.591041  -20.711414   14.532399
 H   21.989232  -29.489563   25.056332
 H   22.738067  -27.989625   18.978569
 H   18.579256  -26.524161   21.300374
 H   17.088151  -25.389306   19.126900
 H   17.981315  -24.081889   19.897620
 H   17.595210  -23.989260   18.175524
 H   21.687811  -26.307468   15.712731
 H   22.682308  -27.099369   16.940625
 H   23.410195  -25.028329   14.630732
 H   20.072037  -25.264004   28.549147
 H   22.114219  -26.606123   28.656198
 H   22.551165  -28.351232   26.978725
 H   18.856121  -27.417877   25.064006
 H   17.452954  -25.752329   25.836855
 H   18.928815  -23.549709   27.431809
 H   17.428875  -23.338485   26.447271
 H   16.242677  -25.036834   27.891877
 H   17.743592  -25.247639   28.875221
 H   20.017902  -30.622068   26.025760
 H   18.971402  -29.860741   24.815748
 H   20.207801  -31.012284   24.306902
 H   22.148389  -28.878420   21.174829
 H   19.644501  -25.030383   15.457700
 H   18.920982  -23.765127   16.451043
 H   20.667125  -23.785090   16.182971
 H   24.924099  -23.116001   14.667396
 H   24.372480  -22.774754   18.894179
 H   22.881104  -24.689861   18.850077
 H   27.519435  -22.778655   17.008466
 H   27.070044  -22.551826   15.317078
 H   27.792231  -21.220533   16.218611
 H   26.269062  -21.561016   18.852926
 H   26.522415  -20.040437   17.997502
 H   24.885921  -20.526182   18.427133
 H   21.910295  -28.218981   23.208443
 H   25.132556  -20.083416   13.951484
