60 
6c7d_ligand_xtb.xyz
 C   -3.917671    0.468109   -1.161797
 C   -3.813467   -0.642175   -0.110555
 C   -6.603376   -0.758748    0.776272
 C   -6.174292   -1.304995   -0.584596
 C   -6.276388   -0.199749   -1.634605
 C    2.420665   -2.451786    0.158399
 C    1.072853   -0.439146   -0.044145
 C    0.040784   -2.530408    0.552051
 C    4.673258   -1.113278   -0.519151
 C   -1.359062   -0.411330    0.275395
 C    3.033274    2.081558   -0.382942
 C    2.124599    4.120241   -1.285527
 C    1.471062    4.363702   -0.088798
 C    2.904730    2.988167   -1.430395
 C    1.260144   -3.161060    0.492931
 C    1.611679    3.488326    0.974205
 C   -0.065894   -1.167420    0.254760
 C    2.315193   -1.058331   -0.067377
 C    2.396750    2.358659    0.828471
 C    3.871434    0.898318   -0.542422
 C    4.675017   -2.525417   -0.302930
 C   -5.787030    1.508370    0.120793
 C   -4.730142   -1.800875   -0.503363
 C   -4.244379   -0.092367    1.252824
 C   -5.687726    0.400301    1.167806
 C   -5.361819    0.959151   -1.239977
 C    5.944582   -3.279216   -0.470662
 N    5.147755    0.939186   -0.852552
 N    5.645414   -0.288696   -0.835906
 N    3.595282   -3.141990    0.050021
 N    3.498297   -0.401155   -0.334501
 N   -2.444520   -1.148868   -0.038131
 O   -1.390579    0.776126    0.541873
Cl    2.600493    1.288744    2.175062
 H   -3.594367    0.082967   -2.132442
 H   -3.252954    1.285499   -0.881399
 H   -6.548981   -1.548358    1.529254
 H   -7.638640   -0.415112    0.726473
 H   -6.825369   -2.140254   -0.866581
 H   -7.308987    0.148236   -1.705462
 H   -5.986294   -0.587405   -2.613972
 H    0.965738    0.610747   -0.265707
 H   -0.832024   -3.094724    0.847044
 H    2.024970    4.811540   -2.108202
 H    0.853634    5.241336    0.024440
 H    3.421739    2.785364   -2.355451
 H    1.359180   -4.215284    0.696643
 H    1.116067    3.675053    1.913369
 H   -5.139485    2.340885    0.401681
 H   -6.812625    1.880336    0.068182
 H   -4.654257   -2.599605    0.239395
 H   -4.421951   -2.203759   -1.472213
 H   -3.579364    0.724653    1.532804
 H   -4.155521   -0.878134    2.007179
 H   -5.991556    0.791266    2.144848
 H   -5.431236    1.751781   -1.992859
 H    6.277715   -3.205979   -1.504392
 H    6.719266   -2.834835    0.150611
 H    5.793028   -4.319962   -0.201645
 H   -2.305764   -2.104862   -0.323152
