57 
6c7q_ligand_xtb.xyz
 C   14.522315   -4.812157    6.096781
 C   15.576889   -5.638471    6.387366
 C   16.795093   -5.306639    7.124890
 C   17.161429   -6.052928    8.266297
 C   16.522135   -7.742850    9.818178
 C   18.315447   -5.754665    8.968961
 C   18.641175   -4.771700   11.829280
 C   16.770237   -3.326631   11.591877
 C   15.987736   -4.194466   12.366253
 C   17.591651   -4.258747    6.689900
 C   15.214993   -6.873141    5.765496
 C   15.998147   -8.129904    5.719768
 N   14.057550   -6.757682    5.174687
 O   13.611929   -5.491357    5.377688
 C   14.245554   -3.397147    6.445792
 C   18.738752   -3.956690    7.400087
 N   19.695284   -2.997310    7.149270
 C   20.668689   -3.089991    8.090905
 N   21.780224   -2.367045    8.112147
 C   22.613795   -2.674295    9.097800
 C   23.921873   -1.954766    9.135963
 N   22.379312   -3.546529   10.067022
 C   21.230219   -4.227209   10.092594
 C   20.323801   -4.098053    9.030166
 C   19.099855   -4.680656    8.558608
 O   16.293356   -7.050826    8.617615
 N   21.079978   -5.035599   11.182451
 C   19.912300   -5.428028   11.795182
 C   18.089315   -3.595951   11.317492
 C   16.508563   -5.345174   12.907759
 C   17.848816   -5.623982   12.640378
 N   18.643386   -6.650362   13.031907
 N   19.883968   -6.525945   12.524766
 C   18.313591   -7.750908   13.886999
 H   15.681699   -8.427699    9.925941
 H   17.453929   -8.318280    9.785329
 H   16.546186   -7.059297   10.673577
 H   18.618977   -6.348382    9.812834
 H   16.318853   -2.424942   11.206234
 H   14.952833   -3.943901   12.545819
 H   17.321534   -3.707905    5.801700
 H   15.516302   -8.834767    5.048781
 H   17.011285   -7.925064    5.377535
 H   16.057051   -8.558502    6.717968
 H   13.225365   -3.297599    6.810710
 H   14.944468   -3.068398    7.210047
 H   14.351085   -2.761579    5.566776
 H   19.717235   -2.369984    6.364179
 H   23.979336   -1.259925    8.304428
 H   24.019421   -1.418084   10.076833
 H   24.735635   -2.673980    9.075961
 H   21.934550   -5.221000   11.689574
 H   18.684423   -2.914563   10.730698
 H   15.910601   -6.007477   13.514920
 H   19.206846   -8.361746   13.995269
 H   17.996191   -7.394904   14.869864
 H   17.512835   -8.353220   13.450696
