58 
6c7r_ligand_dft.xyz
 C   -1.947772    2.984811   19.725668
 C   -1.230956    3.757544   20.754284
 C   -1.846569    4.862281   21.393277
 C   -3.732005    6.307895   21.461352
 N    0.321301    7.708792   24.944585
 C   -1.566421    2.758756   18.437953
 C   -1.179136    5.604418   22.359753
 C    0.137806    5.265500   22.696983
 C    0.741950    4.167526   22.052509
 O   -2.465165    1.972244   17.829177
 N   -2.477160    9.027957   23.193492
 C    2.258861    4.928733   23.516617
 N   -1.847013    8.432479   24.221274
 C   -4.047796    2.108214   21.041197
 C   -3.173165    2.252096   19.840642
 N   -3.476123    1.649901   18.719982
 C   -0.408832    3.219471   17.625812
 C    0.072990    3.416037   21.093826
 N    2.024632    3.995063   22.553231
 N    3.382613    4.990382   24.230826
 C    3.373653    5.955958   25.147034
 C    4.584281    6.092406   26.025423
 N    2.385222    6.836110   25.360703
 C    1.278214    6.762808   24.615342
 C    1.127373    5.767350   23.637063
 O   -3.114218    5.132582   20.982465
 C   -0.513323    8.308583   23.994011
 C   -2.587313    8.024344   25.392449
 C   -1.527973    9.270687   22.288869
 C   -0.266571    8.841032   22.745852
 C   -1.845973    9.928454   21.002021
 C   -2.603281   11.239435   20.994758
 C   -3.272415    9.988569   20.512422
 H   -4.699633    6.360713   20.960636
 H   -3.888283    6.272774   22.547315
 H   -3.141179    7.197661   21.219738
 H    0.672709    8.320277   25.673876
 H   -1.668995    6.439646   22.837914
 H   -4.845531    1.389625   20.841488
 H   -3.462700    1.763775   21.900228
 H   -4.484522    3.075275   21.304088
 H   -0.753037    3.698363   16.704024
 H    0.181102    3.938324   18.199033
 H    0.235796    2.379533   17.346090
 H    0.543584    2.559098   20.620973
 H    2.669654    3.257916   22.320184
 H    5.326948    5.336492   25.766530
 H    5.021783    7.089289   25.912281
 H    4.299966    5.981027   27.076598
 H   -3.523088    7.563450   25.071832
 H   -1.986159    7.301016   25.945492
 H   -2.810972    8.883568   26.031690
 H    0.685683    8.891562   22.239696
 H   -1.073368    9.815351   20.247173
 H   -2.312560   11.989740   20.265846
 H   -2.905814   11.628359   21.962062
 H   -4.026238    9.547071   21.156772
 H   -3.445860    9.868677   19.447588
