46 
6c8c_ligand_xtb.xyz
 C   -1.130144    2.444320   -0.433356
 C   -3.026535    3.173149    1.039984
 C   -2.153100    3.998739    1.980040
 C    2.558316    0.563425    0.064789
 C    2.864379   -0.392712    1.035508
 C    4.167954   -0.793602    1.257790
 C    3.617796    1.141451   -0.649976
 C   -0.777107   -3.235789   -0.023891
 C   -1.898699   -4.038079   -0.005898
 C   -3.163277   -3.464122   -0.076103
 C   -3.288601   -2.092361   -0.173758
 C   -2.165409   -1.265217   -0.214380
 C   -2.332524    0.197853   -0.395475
 C   -1.116686    0.983501   -0.312990
 C   -2.435372    3.173670   -0.384088
 C   -4.449604    3.719474    0.997855
 C    0.121098    0.324579   -0.195096
 C   -0.897988   -1.843932   -0.126533
 C    5.194842   -0.227742    0.517623
 C    4.925764    0.751057   -0.428337
 N    0.197724   -1.031738   -0.139702
 N    1.268806    1.015925   -0.176150
 N   -4.635356   -1.520445   -0.192650
 O   -3.458186    0.622280   -0.615111
 O   -0.084453    3.089704   -0.553971
 O   -5.056157   -1.138071    0.871008
 O   -5.247717   -1.607260   -1.225672
Cl    0.808207   -3.931055    0.076400
Cl    6.821585   -0.728204    0.780935
Cl    3.275268    2.356939   -1.827015
 H   -3.067154    2.142237    1.403340
 H   -1.131898    3.623600    1.996499
 H   -2.128177    5.037739    1.658132
 H   -2.548523    3.962868    2.992707
 H    2.079045   -0.797847    1.655758
 H    4.387075   -1.534720    2.009159
 H   -1.794694   -5.108606    0.068389
 H   -4.041673   -4.089406   -0.053885
 H   -3.149441    2.700208   -1.056479
 H   -2.255965    4.204029   -0.697370
 H   -4.462244    4.726496    0.585989
 H   -5.076630    3.080083    0.382592
 H   -4.870470    3.750731    2.000130
 H    5.726480    1.202942   -0.990533
 H    1.109636   -1.475091   -0.153080
 H    1.101894    2.028785   -0.409536
