40 
6c91_ligand_xtb.xyz
 C    1.767337   -1.083029   -0.496743
 C    1.586156    0.147784    0.127862
 C    0.214545    0.719983    0.308323
 C   -0.202758    1.507366   -0.949355
 C   -1.579929    2.050792   -0.826213
 C   -3.215934    3.386261   -0.515401
 C   -3.764422    2.170799   -0.796566
 C   -2.832646   -0.086150   -1.285313
 C   -2.893529   -0.961455   -0.051311
 C   -3.067917   -0.433705    1.219832
 C   -3.114768   -1.270039    2.322786
 C   -2.991120   -2.638670    2.165588
 C   -2.823287   -3.171515    0.897945
 C   -2.775452   -2.337997   -0.203397
 C    2.721054    0.841801    0.536911
 C    4.002621    0.319654    0.349691
 C    4.146800   -0.916031   -0.265732
 C    3.035245   -1.627907   -0.695365
 N   -1.861383    3.296173   -0.537747
 N   -2.714436    1.315594   -1.000643
 O    5.063469    1.042385    0.775015
 O    3.136702   -2.833455   -1.303525
Cl    0.412631   -1.994986   -1.054597
Cl    2.588982    2.385803    1.294665
 H    0.202387    1.395807    1.162566
 H   -0.494414   -0.088514    0.488352
 H   -0.127272    0.856516   -1.823731
 H    0.473743    2.351516   -1.081608
 H   -3.703361    4.316118   -0.301845
 H   -4.781734    1.844916   -0.874054
 H   -3.745751   -0.240646   -1.873243
 H   -1.982543   -0.400587   -1.899189
 H   -3.160759    0.633814    1.356583
 H   -3.246632   -0.846740    3.307511
 H   -3.025068   -3.289259    3.026804
 H   -2.724955   -4.238943    0.767314
 H   -2.639128   -2.754122   -1.191116
 H    5.136673   -1.328403   -0.415522
 H    5.886153    0.575339    0.586339
 H    4.062618   -3.092171   -1.380755
