33 
6c9q_ligand_xtb.xyz
 O   17.959802   10.640229    9.098623
 C   17.159826    9.577418    8.650279
 C   15.738587   10.125527    8.408955
 O   15.712359   11.407954    7.881762
 C   15.115532   10.000294    9.812793
 C   13.600523    9.837681    9.800043
 N   13.089142    9.962732   11.152250
 O   15.727706    8.854554   10.408501
 C   16.912269    8.522078    9.751673
 N   16.814682    7.200983    9.172069
 C   15.745974    6.349433    9.112910
 N   15.997677    5.229741    8.509358
 C   17.314832    5.317488    8.132024
 C   17.839690    6.552990    8.544039
 N   19.090503    6.971250    8.335924
 C   19.816489    6.075982    7.690546
 N   19.454624    4.882392    7.251919
 C   18.201904    4.462975    7.452747
 N   17.843044    3.254296    6.991341
 H   18.871167   10.336610    9.167813
 H   17.591384    9.112937    7.756894
 H   15.202406    9.477568    7.706778
 H   16.403809   11.918306    8.327607
 H   15.372129   10.886814   10.409312
 H   13.177123   10.643123    9.193460
 H   13.359744    8.874073    9.318136
 H   12.091870    9.780734   11.172758
 H   13.547957    9.283299   11.749942
 H   17.748410    8.509225   10.469941
 H   14.801245    6.607254    9.546836
 H   20.842726    6.355198    7.492475
 H   18.531220    2.678920    6.540775
 H   16.914645    2.916942    7.167518
