33 
6cbf_ligand_dft.xyz
 C   12.989955    9.766520    2.804221
 C   13.087193    9.924247    1.417065
 C   11.958556    9.864552    0.612927
 C   10.703369    9.641481    1.169316
 C   10.577569    9.466269    2.555955
 C   11.725957    9.538228    3.346372
 C   14.180915    9.838961    3.659781
 C   14.250896   10.211683    4.989482
 N   15.551632   10.124588    5.342816
 N   16.350491    9.719126    4.343988
 C   15.525672    9.546605    3.321679
 C    9.304377    9.197049    3.285778
 O    9.185636    9.314949    4.485560
 O    8.296652    8.778291    2.507566
 O    9.642033    9.565188    0.306434
 C    8.723242   10.585416    0.277577
 C    8.945897   11.833923    0.851495
 C    7.960064   12.813230    0.744937
 C    6.771249   12.557487    0.071378
 C    6.567471   11.302957   -0.502639
 C    7.536621   10.314526   -0.400237
 H   14.054224   10.119800    0.963027
 H   12.026054   10.002617   -0.460789
 H   11.604805    9.388227    4.414275
 H   13.490226   10.541081    5.682190
 H   15.960627   10.328977    6.240208
 H   15.915358    9.197026    2.374948
 H    7.537171    8.658811    3.099911
 H    9.873898   12.043893    1.372437
 H    8.133414   13.786949    1.193546
 H    6.009685   13.326644   -0.007583
 H    5.642991   11.089572   -1.031158
 H    7.394100    9.329125   -0.830459
