22 
6cbg_ligand_dft.xyz
 C  -33.921107  -12.467845    6.767722
 C  -32.663669  -12.861731    7.186110
 C  -33.783998  -11.072446    6.561239
 N  -31.899050  -11.747943    7.202647
 N  -32.558603  -10.642659    6.823478
 C  -35.117091  -13.300988    6.583359
 C  -36.392667  -12.756619    6.753594
 C  -37.529730  -13.543873    6.576166
 C  -37.408181  -14.891857    6.236400
 C  -36.144198  -15.441959    6.068854
 C  -35.011089  -14.652513    6.233515
 C  -38.899711  -12.991574    6.748770
 O  -39.921880  -13.626235    6.618605
 O  -38.907127  -11.682705    7.071485
 H  -32.277294  -13.824499    7.487301
 H  -34.532785  -10.374278    6.211752
 H  -30.930649  -11.669245    7.467708
 H  -36.503269  -11.716756    7.041376
 H  -38.306569  -15.485596    6.107096
 H  -36.038727  -16.487758    5.797489
 H  -34.027456  -15.084943    6.071263
 H  -39.841151  -11.435980    7.158069
