19 
6ccs_ligand_xtb.xyz
 C   31.563692   -9.568200   32.747539
 C   31.317605  -10.582048   31.815900
 C   30.100669  -10.723772   31.191156
 F   25.002996   -9.037910   32.002580
 C   25.917070   -8.178928   31.532345
 F   25.734464   -7.025825   32.206327
 F   25.600646   -7.932655   30.258545
 C   27.316900   -8.673300   31.702624
 N   28.189456   -8.071069   32.560849
 C   29.355691   -8.783357   32.465423
 C   29.105075   -9.806882   31.524326
 N   27.816373   -9.696512   31.076465
 C   30.592712   -8.647735   33.093977
 O   30.776200   -7.642020   33.993676
 H   32.538903   -9.501755   33.209949
 H   32.117523  -11.269719   31.588453
 H   29.909368  -11.503343   30.474262
 H   28.025450   -7.266156   33.143716
 H   31.675209   -7.676814   34.341887
