126 
6ce2_ligand_xtb.xyz
 O    8.294377   -6.429314   -3.306070
 S    8.614176   -6.708998   -1.757823
 O    7.977485   -7.933727   -1.393394
 O   10.011924   -6.546275   -1.560877
 C    7.735821   -5.337900   -1.030061
 C    8.420000   -4.220586   -0.560328
 C    7.723660   -3.162732   -0.037960
 S    8.825139   -1.867234    0.518826
 O    8.598915   -1.595247    1.907539
 O    8.316973   -0.583626   -0.316465
 O   10.156994   -2.135625    0.092985
 C    6.376923   -5.376402   -1.030173
 C    5.636866   -4.269157   -0.566802
 C    4.238378   -4.265966   -0.688915
 S    3.422733   -5.605711   -1.529364
 O    2.015223   -5.364694   -1.565925
 O    3.674815   -6.825354   -0.504999
 O    4.106388   -5.910046   -2.745001
 C    3.483665   -3.225448   -0.229724
 C    4.109178   -2.149886    0.395060
 C    6.307895   -3.134103    0.004184
 C    5.490170   -2.073673    0.519249
 N    6.037709   -0.971127    1.146590
 C    5.537459    0.312037    1.038665
 O    4.556391    0.576080    0.371965
 C    6.290147    1.362317    1.763782
 C    5.900481    2.671897    1.495957
 C    7.314005    1.154770    2.686237
 C    7.948624    2.244572    3.251617
 C    7.592700    3.559503    2.964140
 C    8.373503    4.696152    3.530622
 C    6.510186    3.760514    2.099999
 N    6.003618    5.033593    1.766349
 C    5.586079    6.019393    2.618944
 O    5.849218    6.074890    3.798634
 C    4.723193    7.029860    1.931152
 C    3.639254    6.595508    1.180385
 C    4.939309    8.391467    2.102509
 C    4.089837    9.298132    1.492589
 C    3.009767    8.872395    0.739372
 C    2.768906    7.509540    0.592391
 N    1.685217    6.984765   -0.114932
 C    0.638584    7.654004   -0.710810
 O    0.550890    8.854391   -0.797244
 N   -0.286124    6.762476   -1.216300
 C   -1.538784    7.027902   -1.770663
 C   -2.330108    5.931225   -2.103315
 C   -2.027378    8.313444   -1.989265
 C   -3.302757    8.484793   -2.497836
 C   -4.105771    7.397297   -2.793140
 C   -3.610459    6.111743   -2.609628
 C   -4.474247    4.921722   -2.861269
 O   -5.632598    4.854840   -2.520603
 N   -3.804870    3.912051   -3.507451
 C   -4.244834    2.599278   -3.696725
 C   -5.080856    1.999166   -2.766378
 C   -3.778629    1.864952   -4.797007
 C   -2.869299    2.492568   -5.809830
 C   -4.166876    0.537964   -4.918532
 C   -4.994627   -0.067226   -3.991958
 C   -5.460458    0.668108   -2.905295
 C   -6.245647    0.070144   -1.806799
 O   -6.297127    0.573992   -0.691747
 N   -6.970205   -1.043149   -2.126883
 C   -7.748072   -1.794036   -1.263305
 C   -8.878257   -2.390783   -1.799077
 C   -9.821909   -3.021632   -0.990338
 C   -9.663736   -2.986203    0.364704
 S  -10.921959   -3.725882    1.382670
 O  -11.480660   -2.442166    2.179669
 O  -10.333925   -4.614970    2.328492
 O  -11.985156   -4.199390    0.549876
 C   -7.465216   -1.922591    0.133126
 C   -8.519806   -2.431822    0.962546
 C   -8.396042   -2.395148    2.366711
 C   -6.243469   -1.610059    0.776820
 S   -4.577271   -1.448730    0.084237
 O   -3.776337   -2.383487    0.797047
 O   -4.533249   -1.533925   -1.348991
 O   -4.143515   -0.002900    0.552913
 C   -6.139294   -1.621649    2.142365
 C   -7.238320   -1.954950    2.928827
 S   -7.094012   -1.984325    4.705085
 O   -5.943839   -1.256763    5.113938
 O   -6.803167   -3.547554    4.927831
 O   -8.363661   -1.694436    5.294287
 H    7.509275   -6.906750   -3.584434
 H    9.496650   -4.195798   -0.604019
 H    8.957461   -0.351641   -0.992342
 H    5.858630   -6.246000   -1.396239
 H    2.857382   -7.077550   -0.071354
 H    2.412569   -3.258207   -0.349231
 H    3.509297   -1.343204    0.780424
 H    6.947325   -1.081703    1.581105
 H    5.090518    2.822562    0.795931
 H    7.642008    0.166668    2.962471
 H    8.765087    2.072329    3.937076
 H    7.772155    5.239818    4.258534
 H    9.280116    4.339467    4.011177
 H    8.636343    5.400907    2.742478
 H    5.599716    5.074522    0.839835
 H    3.435182    5.535922    1.086263
 H    5.768855    8.723793    2.706308
 H    4.262541   10.356761    1.611903
 H    2.343206    9.582143    0.279803
 H    1.639738    5.975410   -0.091030
 H   -0.105170    5.777531   -1.080450
 H   -1.959881    4.930624   -1.918599
 H   -1.413525    9.162718   -1.741860
 H   -3.677268    9.485007   -2.652332
 H   -5.109606    7.526978   -3.165442
 H   -2.922431    4.149914   -3.935720
 H   -5.443387    2.563940   -1.922652
 H   -3.288075    3.428165   -6.179300
 H   -1.890233    2.702313   -5.376075
 H   -2.723316    1.823432   -6.653092
 H   -3.799847   -0.037827   -5.755372
 H   -5.215524   -1.117992   -4.086710
 H   -7.029944   -1.282998   -3.106029
 H   -9.048135   -2.332315   -2.863877
 H  -10.697098   -3.494518   -1.405634
 H  -12.375518   -2.232305    1.906407
 H   -9.214869   -2.719660    2.986008
 H   -4.781922    0.639960    0.189357
 H   -5.196611   -1.397053    2.613707
 H   -7.619291   -4.021547    5.101495
