34 
6ce6_ligand_dft.xyz
 O   -6.030832    2.856585   -0.335304
 C   -5.221434    0.908850    0.802027
 C   -4.854863   -0.397867    0.073161
 C   -3.385441   -0.706487    0.049023
 C   -1.187707   -0.377718    0.096460
 C    0.000033    0.337311    0.195652
 C    1.187753   -0.377748    0.096508
 C    3.385494   -0.706509    0.049183
 C    4.854895   -0.397907    0.073389
 C    5.221509    0.908986    0.801881
 C    5.077984    2.182296   -0.035616
 O    3.841174    2.514966   -0.412738
 O    6.030636    2.856755   -0.335508
 N    2.456143    0.180812    0.174869
 S    2.823908   -2.357414   -0.176792
 C    1.178730   -1.779737   -0.099641
 C    0.000025   -2.507329   -0.200793
 C   -1.178668   -1.779709   -0.099691
 N   -2.456090    0.180844    0.174753
 S   -2.823847   -2.357370   -0.176915
 C   -5.078120    2.182200   -0.035443
 O   -3.841363    2.514940   -0.412657
 H   -4.621081    1.000089    1.714614
 H   -6.271914    0.862715    1.091975
 H   -5.224681   -0.372607   -0.960179
 H   -5.373403   -1.231050    0.559065
 H    0.000061    1.411384    0.342024
 H    5.224844   -0.372968   -0.959914
 H    5.373382   -1.230944    0.559608
 H    6.272076    0.862938    1.091540
 H    4.621436    1.000343    1.714644
 H    3.195047    1.839148   -0.108430
 H    0.000008   -3.580964   -0.351434
 H   -3.195190    1.839113   -0.108497
