20 
6ce8_ligand_dft.xyz
 C   -2.325760    0.734331   -0.380150
 C   -0.853142    0.504228   -0.217041
 C    1.068733   -0.601684   -0.123248
 C    1.936584   -1.697131   -0.129305
 C    3.292879   -1.468945    0.028610
 C    3.791497   -0.167568    0.192128
 C    2.943080    0.929175    0.201038
 C    1.576962    0.698398    0.041329
 O   -4.405093   -0.114283    0.408196
 C   -3.269068   -0.379679    0.113628
 O   -2.797131   -1.621833    0.129576
 S    0.257105    1.840245    0.014842
 N   -0.308717   -0.667672   -0.271147
 H   -2.540505    0.864650   -1.449499
 H   -2.639950    1.655710    0.113753
 H    1.536895   -2.697416   -0.256856
 H    3.981526   -2.307644    0.026380
 H    4.859029   -0.014928    0.314570
 H    3.331983    1.933789    0.329144
 H   -1.834437   -1.622208   -0.081043
