26 
6cea_ligand_dft.xyz
 C   -2.895550    0.514291    0.714433
 O   -4.501219   -1.068900   -0.102223
 C   -2.025087    1.472542   -0.124190
 C   -0.536114    1.209698   -0.081027
 C    0.383694    2.290680   -0.128223
 C    1.725916    2.030835   -0.104854
 C    2.182475    0.691509   -0.030883
 C    3.553222    0.333628    0.000994
 C    3.921649   -0.985306    0.070491
 C    2.936792   -2.000765    0.111275
 C    1.602617   -1.684037    0.083338
 C    1.198885   -0.328724    0.012047
 C   -3.337037   -0.770594    0.009966
 O   -2.365496   -1.549895   -0.464911
 N   -0.133999   -0.040985   -0.014584
 H   -3.816580    1.022789    1.003062
 H   -2.361053    0.245764    1.634013
 H   -2.200636    2.496262    0.221708
 H   -2.351858    1.451529   -1.172660
 H    0.010826    3.308452   -0.179569
 H    2.450090    2.840775   -0.138064
 H    4.303606    1.119034   -0.031413
 H    4.972249   -1.256951    0.093891
 H    3.244284   -3.040477    0.164968
 H    0.834506   -2.450410    0.113500
 H   -1.482494   -1.142048   -0.270485
