29 
6cee_ligand_xtb.xyz
 C    1.997701   -2.837484   -0.093080
 C   -2.984648   -0.839044    0.109350
 C    0.645822   -0.856148   -0.132318
 N   -0.592707   -0.300302   -0.215840
 C   -0.729032    0.973220   -0.175240
 C   -3.119413    0.466258   -0.666959
 O    0.247219    3.126581    0.020660
 C    0.390472    1.915492   -0.033570
 C   -2.111554    1.542999   -0.262328
 O   -2.881772   -0.714285    1.447147
 O   -3.082572   -1.919137   -0.395850
 C    1.796877   -0.045796   -0.005263
 N    1.635817    1.321302    0.038290
 C    2.783588    2.194078    0.166526
 C    3.046332   -0.667499    0.073704
 C    3.135661   -2.042335    0.029851
 C    0.758572   -2.249270   -0.174466
 H    2.094268   -3.911446   -0.124104
 H   -4.138152    0.835706   -0.522620
 H   -2.994478    0.216725   -1.720308
 H   -2.108468    2.357591   -0.990707
 H   -2.359472    2.008233    0.698742
 H   -2.803223    0.207660    1.720839
 H    3.459643    2.063627   -0.678927
 H    2.406311    3.216468    0.175292
 H    3.314033    1.995643    1.098366
 H    3.945533   -0.080949    0.170319
 H    4.107861   -2.508181    0.093165
 H   -0.150903   -2.820176   -0.270111
