23 
6cef_ligand_xtb.xyz
 C   -2.857855    0.492073    0.775533
 C   -1.877959    1.384275   -0.002572
 C   -0.482020    0.873518    0.000758
 C    3.218246   -1.813568    0.119537
 C    1.192615   -0.563702    0.077252
 O   -4.546992   -0.798242   -0.322734
 C   -3.385480   -0.689905   -0.041494
 O   -2.486548   -1.592082   -0.407352
 S    0.871394    1.986498   -0.154931
 C    1.946303    0.619635   -0.065815
 N   -0.159008   -0.363023    0.110990
 C    3.329243    0.589812   -0.115361
 C    3.954275   -0.638189   -0.020036
 C    1.840761   -1.791181    0.169077
 H   -3.723887    1.085510    1.069513
 H   -2.373940    0.108063    1.676416
 H   -1.876584    2.388618    0.427165
 H   -2.217381    1.480968   -1.039902
 H    3.738261   -2.756638    0.189744
 H   -1.563456   -1.324364   -0.156148
 H    3.895661    1.501110   -0.224609
 H    5.031796   -0.686778   -0.054943
 H    1.259828   -2.693318    0.274152
