25 
6ceh_ligand_xtb.xyz
 C   -1.339620   -1.081140   -0.784340
 C   -1.024400    0.781970    0.708219
 C    0.009860   -1.364965   -0.713072
 C    0.326561    0.497138    0.788678
 C   -1.841426   -0.006392   -0.075937
 C    0.849118   -0.573745    0.071339
 C    4.378407    2.196648   -0.985310
 C    3.389038    1.710318   -0.256248
 C    3.558643    0.623696    0.737502
 N   -4.135525   -0.583729    1.150927
 O   -3.802575    1.727278    0.189330
 O   -4.140571   -0.188242   -1.346601
 S   -3.582065    0.349287   -0.140636
Se    2.695379   -1.063887    0.123680
 H   -2.010904   -1.663807   -1.394538
 H   -1.457592    1.615361    1.238159
 H    0.429241   -2.194854   -1.264886
 H    0.961667    1.107212    1.412428
 H    5.388063    1.833056   -0.884939
 H    4.220631    2.982493   -1.703299
 H    2.382114    2.087372   -0.380258
 H    3.126043    0.865162    1.709795
 H    4.607878    0.353189    0.863887
 H   -4.563847   -0.015004    1.863009
 H   -4.756407   -1.313976    0.842378
