31 
6cex_ligand_dft.xyz
 C   -4.390584   -0.840419   -0.382298
 C   -3.037287   -1.336299    0.144664
 C   -1.936167   -0.338175   -0.208531
 C   -2.226341    1.063258    0.320616
 N   -0.619994   -0.864638    0.356981
 C    0.616572   -0.114862   -0.042186
 C    1.868346   -0.839304    0.433260
 S    3.339159    0.028594   -0.152009
 O    3.115992    0.331572   -1.545421
 O    4.514018   -0.663643    0.316801
 O    3.147423    1.376772    0.725033
 C   -3.589055    1.545367   -0.200405
 C   -4.708055    0.560853    0.143571
 H   -5.167041   -1.551605   -0.087920
 H   -4.369944   -0.831002   -1.479555
 H   -2.808488   -2.325039   -0.273166
 H   -3.093986   -1.441515    1.237917
 H   -1.782230   -0.312624   -1.293078
 H   -1.448717    1.770858    0.016105
 H   -2.245758    1.037143    1.420169
 H   -0.526886   -1.844684    0.069054
 H   -0.697552   -0.882505    1.379686
 H    0.551970    0.883191    0.392147
 H    0.608286   -0.030093   -1.130856
 H    1.954392   -1.842787    0.002556
 H    1.942721   -0.907275    1.521645
 H    4.017870    1.670833    1.047882
 H   -3.530991    1.675657   -1.288696
 H   -3.796641    2.532016    0.222447
 H   -4.843797    0.522914    1.232581
 H   -5.653830    0.911348   -0.279082
