31 
6cf5_ligand_xtb.xyz
 C   -3.806150   -0.926335   -0.538636
 C   -2.478048   -1.260081    0.145586
 C   -1.493821   -0.115728   -0.067036
 C   -2.051876    1.190879    0.488586
 N   -0.182043   -0.396453    0.604150
 C    0.663741   -1.445673   -0.011818
 C    2.105577   -1.321422    0.447646
 S    2.724812    0.272799   -0.170937
 O    1.789019    1.249893    0.338111
 O    4.093817    0.401365    0.593637
 O    2.924097    0.220000   -1.574163
 C   -3.376502    1.518798   -0.202482
 C   -4.374127    0.382940   -0.002645
 H   -4.512457   -1.737977   -0.367767
 H   -3.647409   -0.843104   -1.614849
 H   -2.087064   -2.191647   -0.265739
 H   -2.654987   -1.399201    1.214783
 H   -1.287506    0.005985   -1.134238
 H   -1.337281    1.999969    0.328086
 H   -2.228007    1.092538    1.562039
 H   -0.367966   -0.617669    1.587515
 H    0.413881    0.488484    0.577629
 H    0.637716   -1.308428   -1.096971
 H    0.262217   -2.434160    0.226978
 H    2.722352   -2.103753    0.018269
 H    2.215838   -1.309434    1.527814
 H    4.846226    0.648373    0.048051
 H   -3.202932    1.672106   -1.268521
 H   -3.777626    2.445049    0.206662
 H   -4.601839    0.276872    1.059495
 H   -5.304083    0.616058   -0.519179
