65 
6cfc_ligand_dft.xyz
 C   -1.288981    1.176577   -0.451312
 C   -0.508382    1.684766    0.758483
 C    0.830780    2.308522    0.351196
 C    1.571264    1.387561   -0.613360
 C    0.680792    1.072827   -1.812665
 O   -0.450201    0.387497   -1.285185
 O   -2.274378    0.334373    0.034368
 N   -1.237732    2.626529    1.590036
 C   -2.508485    3.109941    1.469792
 O   -3.285386    2.810413    0.570132
 C   -2.899689    4.064212    2.581941
 O    1.527563    2.511114    1.553334
 O    2.761479    2.079512   -1.031688
 S    4.190229    1.357756   -0.782229
 O    5.162080    2.312705   -1.203377
 O    4.122558    0.016814   -1.332194
 O    4.230382    1.251079    0.797381
 C    1.310505    0.177618   -2.870601
 O    1.771439   -1.045122   -2.344803
 C   -4.495038   -0.404123    0.134232
 C   -3.396041    0.134555   -0.799170
 C   -3.133649   -0.997271   -1.795596
 C   -3.260744   -2.232390   -0.913120
 N   -4.481271   -1.909240   -0.098040
 C   -5.895615    0.115552   -0.137850
 O   -6.279889   -0.447922   -1.378546
 C   -2.178477   -2.502477    0.163054
 O   -2.572562   -2.898649    1.255667
 N   -0.891864   -2.350263   -0.183219
 C    0.136178   -2.408693    0.847262
 C    1.453082   -2.864580    0.222640
 S    2.872861   -2.402863    1.195373
 O    4.085726   -2.951436    0.637985
 O    2.780453   -0.965937    1.464627
 O    2.532611   -3.167269    2.574809
 H   -1.716391    1.997961   -1.039112
 H   -0.269982    0.796532    1.360353
 H    0.642444    3.264113   -0.163990
 H    1.823070    0.448794   -0.112399
 H    0.361524    2.009490   -2.297050
 H   -0.679565    2.977327    2.357152
 H   -3.020187    3.520313    3.524868
 H   -3.846567    4.536392    2.321491
 H   -2.141354    4.838385    2.734859
 H    2.381457    2.921334    1.360811
 H    3.845225    0.389108    1.099050
 H    0.546191   -0.045425   -3.621952
 H    2.117070    0.728953   -3.366930
 H    2.707425   -0.915803   -2.116049
 H   -4.200568   -0.214647    1.166477
 H   -3.696573    1.075434   -1.266663
 H   -3.915227   -1.016498   -2.560741
 H   -2.166044   -0.896573   -2.285754
 H   -3.438332   -3.159672   -1.463778
 H   -5.337549   -2.159698   -0.605462
 H   -4.378352   -2.442131    0.783577
 H   -5.851048    1.210561   -0.161065
 H   -6.578634   -0.189343    0.666851
 H   -7.165395   -0.147482   -1.616087
 H   -0.677351   -1.720909   -0.951617
 H    0.253808   -1.415472    1.295502
 H   -0.195759   -3.093074    1.627615
 H    1.613592   -2.365743   -0.740463
 H    1.504160   -3.946152    0.081314
 H    3.345540   -3.586486    2.907795
