65 
6cfc_ligand_xtb.xyz
 C   -1.504154    1.274036   -0.540350
 C   -0.626908    1.929125    0.540093
 C    0.703049    2.474782   -0.020784
 C    1.340093    1.383919   -0.889029
 C    0.381440    1.086874   -2.049649
 O   -0.781668    0.520744   -1.495459
 O   -2.324640    0.356844    0.104534
 N   -1.307741    3.012351    1.217475
 C   -2.634625    3.286142    1.301417
 O   -3.499000    2.680866    0.701038
 C   -2.923891    4.454282    2.214314
 O    1.499439    2.820271    1.077023
 O    2.620073    1.761085   -1.349480
 S    3.816627    0.772346   -0.941978
 O    4.842844    0.997469   -1.871976
 O    3.232969   -0.545760   -0.853167
 O    4.186323    1.288573    0.452671
 C    0.914845    0.041654   -3.043820
 O    1.141754   -1.194805   -2.418447
 C   -4.370189   -0.805111    0.339224
 C   -3.415618   -0.123326   -0.659123
 C   -2.999682   -1.256932   -1.603951
 C   -2.881614   -2.428384   -0.648062
 N   -4.052874   -2.265071    0.251002
 C   -5.858793   -0.612502    0.038858
 O   -6.191042   -1.494421   -1.016927
 C   -1.699108   -2.417517    0.359759
 O   -2.008276   -2.681014    1.519423
 N   -0.458606   -2.204036   -0.049724
 C    0.588345   -2.107621    0.956976
 C    1.942847   -2.621710    0.505193
 S    3.173522   -1.643306    1.399971
 O    4.536330   -1.788722    1.032708
 O    2.687319   -0.300594    1.669393
 O    2.978381   -2.437906    2.788357
 H   -2.096040    2.044785   -1.063331
 H   -0.371278    1.144936    1.270106
 H    0.510710    3.362900   -0.645919
 H    1.454227    0.482925   -0.278487
 H    0.153557    2.018134   -2.588357
 H   -0.677775    3.544604    1.801518
 H   -2.632707    4.211517    3.233482
 H   -3.987317    4.672775    2.190358
 H   -2.369353    5.332546    1.894169
 H    2.415272    2.928196    0.790118
 H    3.661373    0.758138    1.118961
 H    0.151563   -0.129295   -3.807419
 H    1.822486    0.431253   -3.514052
 H    1.981589   -1.107535   -1.930377
 H   -4.130350   -0.420440    1.331451
 H   -3.891660    0.714327   -1.176488
 H   -3.795598   -1.445952   -2.324349
 H   -2.076510   -1.028246   -2.124874
 H   -2.905408   -3.399436   -1.148803
 H   -4.892940   -2.739772   -0.097132
 H   -3.662344   -2.630396    1.170858
 H   -6.039591    0.432899   -0.224789
 H   -6.451539   -0.853707    0.931722
 H   -7.081477   -1.305911   -1.329379
 H   -0.225974   -1.865768   -0.982860
 H    0.708960   -1.058513    1.247960
 H    0.240945   -2.654525    1.837635
 H    2.117803   -2.497687   -0.555050
 H    2.133516   -3.647969    0.801528
 H    3.725353   -2.369430    3.388720
