41 
6cgp_ligand_xtb.xyz
 C   -3.126006    0.033775    0.279462
 C   -4.552052   -0.187986   -0.010607
 C    3.384307   -3.324583   -0.491879
 C    4.044112   -2.157659   -0.757329
 C    3.493694   -0.947157   -0.315886
 C    1.175977    3.075573   -1.292556
 C    2.679818    3.228370   -1.104156
 C    3.178692    2.568790    0.188615
 C    3.020760    1.088304    0.149022
 C    1.973331    0.332383    0.651257
 C   -0.454015    0.496019    0.984992
 C   -1.495308    0.918027    1.819558
 C   -2.803854    0.682118    1.473811
 C   -2.089942   -0.379087   -0.557245
 C   -0.775312   -0.154138   -0.212120
 C    1.631627   -2.134884    0.649888
 C    2.167691   -3.310046    0.224235
 N    0.845289    0.706370    1.375014
 N   -4.866759   -0.550493   -1.282928
 N    2.276906   -0.974484    0.374316
 N    3.936175    0.289724   -0.438915
 O   -5.447168   -0.116770    0.822826
 O   -6.234709   -0.645434   -1.567593
 H    3.788513   -4.268148   -0.822419
 H    4.977684   -2.127356   -1.293323
 H    0.900831    2.026566   -1.371412
 H    0.635605    3.508353   -0.452455
 H    0.855097    3.580241   -2.200784
 H    2.934722    4.289719   -1.074297
 H    3.204224    2.777589   -1.947939
 H    2.629228    2.976515    1.040728
 H    4.239060    2.793523    0.311413
 H   -1.259187    1.426712    2.743344
 H   -3.609868    0.994654    2.119907
 H   -2.301482   -0.902589   -1.477374
 H    0.011211   -0.475225   -0.878369
 H    0.710012   -2.066224    1.207309
 H    1.659125   -4.234897    0.441329
 H    0.989652    1.362407    2.128135
 H   -4.332600   -0.314806   -2.102549
 H   -6.639227   -0.514134   -0.679878
