72 
6chh_ligand_dft.xyz
 C   -2.346200    1.193854   -1.037172
 C    2.026029   -3.003126   -1.715097
 C   -3.030336   -0.019726   -1.057183
 C   -4.380251    0.043946   -0.668017
 C    3.064417   -0.798056   -2.400552
 C    3.917904   -0.381563    0.238521
 C   -1.030458   -0.456118   -1.639757
 C    4.176430    0.571270   -0.753984
 C    3.753855    0.365339   -2.060968
 C    2.795925   -1.753041   -1.420622
 C    3.220208   -1.536438   -0.106948
 N   -4.898950    1.212605   -0.314204
 C    4.297559   -0.125769    1.680390
 N   -2.840819    2.375604   -0.683603
 N   -1.337028   -3.329662    0.136844
 C   -1.295710   -2.626373    1.469098
 C   -2.605738   -1.833897    1.574551
 O   -2.668460   -0.688124    1.941338
 C   -0.048443   -1.751300    1.578864
 C    1.491945   -0.510336    3.208950
 N    1.902252    0.494169    2.164250
 C    3.350811    0.888676    2.331846
 O   -3.612608   -2.583005    1.148246
 C    0.126099   -1.150989    2.979507
 C    0.169861    1.683368   -1.380690
 C   -4.122997    2.302145   -0.332537
 C   -0.019085    3.199793   -1.193755
 C    0.074191    3.367502    0.335615
 C    1.123657    2.293933    0.674730
 C    0.989213    1.686965    2.059185
 N    2.269047   -3.609353   -2.886116
 N   -5.187066   -1.077059   -0.550410
 N   -2.173965   -1.053417   -1.417475
 N   -1.053021    0.895730   -1.438514
 O    1.189982   -3.428718   -0.907732
 O    1.103615    3.866598   -1.732584
 O    0.434464    4.637884    0.752102
 O    0.925113    1.235810   -0.259642
 H    2.732686   -0.949303   -3.424385
 H   -0.113926   -0.959330   -1.921822
 H    4.726108    1.475909   -0.505967
 H    3.968680    1.108548   -2.821563
 H    3.034737   -2.306893    0.637468
 H    5.306266    0.292838    1.753729
 H    4.313783   -1.063900    2.244042
 H   -1.942334   -4.152253    0.178453
 H   -0.388554   -3.593127   -0.198567
 H   -1.743836   -2.679425   -0.579129
 H   -1.284218   -3.405233    2.238243
 H   -0.113162   -0.954600    0.827895
 H    0.817587   -2.368123    1.317922
 H    2.276125   -1.271482    3.211087
 H    1.517819    0.008645    4.170419
 H    1.834907    0.035163    1.242360
 H    3.473339    1.865024    1.862264
 H    3.535553    1.000303    3.402556
 H   -4.397704   -2.018243    0.922141
 H    0.047323   -1.938695    3.738344
 H   -0.682668   -0.448996    3.188570
 H    0.745021    1.471702   -2.284368
 H   -4.597668    3.229868   -0.029352
 H   -0.965886    3.570512   -1.587967
 H   -0.893416    3.119596    0.782604
 H    2.118690    2.729201    0.517792
 H    1.246146    2.399167    2.846825
 H   -0.033720    1.334340    2.204638
 H    1.796025   -4.479025   -3.092792
 H    3.067088   -3.366136   -3.454834
 H   -6.166272   -0.824699   -0.445968
 H   -5.047711   -1.780259   -1.268859
 H    0.853713    4.335334   -2.537444
 H    1.026156    4.999341    0.072584
