61 
6cjp_ligand_xtb.xyz
 C    0.574508   -0.369534   -1.954120
 C    1.301622   -2.842528    0.835119
 C    3.367930   -2.449057    2.195809
 C    4.913923   -0.624590    1.274220
 C   -2.894265   -2.667652   -1.684847
 C   -3.247070   -1.469323    0.487827
 C   -5.128443   -0.024356    0.873868
 C   -5.375807    1.336841    2.806901
 O    1.221314    4.048658    0.313482
 C    0.484392    3.018278   -0.109893
 C    1.042869    1.863715   -0.728935
 C    2.505291    1.820082   -0.808922
 O    3.055415    0.608043   -0.961266
 C    4.489268    0.543989   -0.984967
 C    4.877225   -0.729842   -1.721563
 O    3.213443    2.813077   -0.693390
 C    0.160328    0.872458   -1.205525
 C    0.342209   -1.567581   -1.055384
 C    1.379032   -1.877829   -0.096907
 C    2.342674   -3.195851    1.765873
 C    3.640392   -1.028254    1.908902
 O    4.690534   -0.449698    2.641420
 C    5.061472    0.628339    0.438576
 N   -0.701152   -2.300833   -1.069574
 O   -1.674300   -2.019846   -2.018116
 C   -3.720171   -1.790552   -0.777478
 C   -3.933386   -0.592100    1.309221
 O   -5.881663    0.852701    1.584925
 C   -5.614087   -0.357450   -0.393714
 C   -4.913465   -1.222105   -1.208428
 C   -1.201976    1.021620   -1.014529
 C   -1.733848    2.114916   -0.337397
 O   -3.059402    2.246505   -0.117320
 C   -0.884127    3.112229    0.107430
 H   -0.061763   -0.473813   -2.835784
 H    1.615481   -0.334223   -2.260818
 H    0.408401   -3.451816    0.865011
 H    4.087999   -2.889394    2.873249
 H    5.614746   -1.423588    1.036790
 H   -3.405183   -2.838020   -2.635433
 H   -2.670642   -3.627521   -1.206233
 H   -2.315329   -1.897771    0.827507
 H   -5.278305    0.537021    3.548073
 H   -4.409108    1.830075    2.666891
 H   -6.104977    2.064490    3.158393
 H    2.155308    3.906321    0.034603
 H    4.846446    1.424350   -1.536294
 H    4.451338   -1.600413   -1.229883
 H    4.510862   -0.695510   -2.744809
 H    5.958983   -0.823202   -1.740399
 H    2.272000   -1.286267   -0.192896
 H    2.270022   -4.202204    2.159615
 H    2.775489   -0.384890    1.762464
 H    4.576328    1.455505    0.961480
 H    6.124320    0.866209    0.362782
 H   -3.529072   -0.360235    2.281180
 H   -6.543290    0.084268   -0.716981
 H   -5.296893   -1.458640   -2.190156
 H   -1.873388    0.270760   -1.404108
 H   -3.538604    1.490415   -0.484304
 H   -1.274776    3.985221    0.602392
