61 
6cjp_ligand_dft.xyz
 C    0.472298   -0.432668   -1.914965
 C    1.189909   -2.776923    1.005173
 C    3.267661   -2.306930    2.352793
 C    4.854333   -0.612186    1.238693
 C   -2.903294   -2.694728   -1.756281
 C   -3.328399   -1.673146    0.510786
 C   -5.005605    0.024738    0.856103
 C   -5.138118    1.339879    2.822584
 O    1.259148    4.064787    0.217515
 C    0.497849    3.027340   -0.145638
 C    1.024842    1.843198   -0.749446
 C    2.488768    1.778558   -0.873899
 O    3.015375    0.555601   -1.030012
 C    4.460239    0.456343   -1.077236
 C    4.763308   -0.860400   -1.771025
 O    3.220459    2.762713   -0.789595
 C    0.106707    0.838850   -1.155565
 C    0.279286   -1.648504   -1.031716
 C    1.313877   -1.922264   -0.022866
 C    2.229861   -3.074391    1.985963
 C    3.577056   -0.925013    1.914957
 O    4.661965   -0.317500    2.613477
 C    5.045853    0.582740    0.330923
 N   -0.726710   -2.443726   -1.078726
 O   -1.635914   -2.122622   -2.077526
 C   -3.689179   -1.800099   -0.831509
 C   -3.965367   -0.768192    1.352543
 O   -5.684520    0.943265    1.579871
 C   -5.386175   -0.099817   -0.485826
 C   -4.726760   -0.999498   -1.313555
 C   -1.246892    1.001005   -0.907728
 C   -1.729780    2.140640   -0.253734
 O   -3.040831    2.311697    0.011122
 C   -0.862392    3.152606    0.119954
 H   -0.185838   -0.512807   -2.780796
 H    1.501214   -0.408655   -2.268737
 H    0.259860   -3.333459    1.102100
 H    3.976321   -2.699783    3.079193
 H    5.525941   -1.454934    1.063697
 H   -3.414170   -2.806417   -2.716426
 H   -2.736931   -3.685123   -1.320565
 H   -2.511393   -2.273683    0.899575
 H   -5.175278    0.528121    3.559472
 H   -4.105282    1.686341    2.699661
 H   -5.759899    2.164934    3.170817
 H    2.171368    3.894339   -0.103061
 H    4.823640    1.295094   -1.675523
 H    4.348670   -1.708995   -1.217715
 H    4.340688   -0.868411   -2.779534
 H    5.846382   -0.997748   -1.850109
 H    2.237182   -1.376279   -0.171082
 H    2.138117   -4.042710    2.474199
 H    2.730608   -0.262577    1.723012
 H    4.620798    1.466119    0.814156
 H    6.121564    0.771512    0.227661
 H   -3.643251   -0.682448    2.383640
 H   -6.193574    0.523750   -0.855634
 H   -5.020618   -1.071211   -2.357963
 H   -1.941475    0.233833   -1.237569
 H   -3.542314    1.542995   -0.302006
 H   -1.230136    4.053940    0.594897
