60 
6cjr_ligand_dft.xyz
 C   -3.661504   -0.630744   -0.004006
 C   -2.254791    1.374489   -0.478412
 C   -2.162344    2.785323   -0.679003
 N   -3.281515    4.846421   -1.330038
 C    0.267801    2.632587   -0.832247
 O   -4.464733    3.275697   -0.229753
 N   -3.460005    0.771298   -0.311989
 N    1.334749    0.445340   -0.644811
 C    0.163115    1.252359   -0.659454
 C   -1.057693    0.628719   -0.485024
 N    1.296436   -0.780761   -1.221751
 C   -3.607067   -2.447234    1.761801
 C   -5.048878   -2.820105    1.438830
 C   -5.379957   -2.480896   -0.016711
 C   -5.109878   -1.007649   -0.329305
 C    2.485648   -1.301382   -1.004660
 C    3.318173   -0.417441   -0.276456
 C    2.531222    0.697078   -0.056275
 C    5.165357    0.726300    0.978547
 C    4.672384    2.800239    2.302187
 C   -0.903456    3.370958   -0.831299
 F    1.780666   -3.199871   -2.188190
 O    5.375594   -1.515555    0.131103
 F    3.867720   -2.647393   -2.334177
 F    3.098807   -3.505285   -0.500829
 O   -5.195701   -4.202010    1.706603
 C   -3.392889    3.622376   -0.722324
 C   -3.336770   -0.972224    1.459643
 C    2.939322    1.891122    0.741856
 C    4.069603    1.512912    1.730127
 C    4.679641   -0.529190    0.260415
 C    3.505731    0.666365    2.881738
 C    2.810280   -2.676567   -1.512952
 H   -3.012426   -1.227248   -0.659918
 H   -4.156206    5.338225   -1.444672
 H   -2.591899    4.991390   -2.050498
 H    1.226728    3.110120   -0.989196
 H   -4.228125    1.411848   -0.139014
 H   -1.070079   -0.444573   -0.351102
 H   -2.946183   -3.085741    1.160501
 H   -3.400117   -2.673359    2.812602
 H   -5.714405   -2.231148    2.095366
 H   -6.430304   -2.720036   -0.229009
 H   -4.767439   -3.123381   -0.662761
 H   -5.317232   -0.791711   -1.382508
 H   -5.782919   -0.374231    0.267173
 H    5.970783    0.431470    1.658193
 H    5.615111    1.374877    0.211427
 H    5.465371    2.569830    3.021839
 H    5.105474    3.424150    1.511678
 H    3.908899    3.391085    2.821620
 H   -0.832572    4.449536   -0.932973
 H   -6.105957   -4.448276    1.503616
 H   -3.957120   -0.333824    2.103716
 H   -2.293977   -0.722499    1.683084
 H    2.083242    2.310688    1.282347
 H    3.303474    2.677916    0.066410
 H    3.036219   -0.256198    2.525390
 H    4.305585    0.386676    3.575707
 H    2.754109    1.231838    3.444130
