66 
6cjs_ligand_dft.xyz
 C    4.172612   -1.415787   -1.248286
 C    5.492267   -0.900684   -0.630387
 O    5.551908   -1.287449    0.723744
 C    5.762213   -2.676829    0.848816
 C    4.738608   -3.455960   -0.013793
 N    3.633139   -2.514990   -0.377296
 C    2.412105   -3.197451   -0.976704
 C    1.183917   -2.355258   -0.802224
 C    0.833035   -1.371922   -1.730157
 C   -0.290058   -0.583533   -1.518904
 C    0.376259   -2.551554    0.322315
 C   -0.758167   -1.778181    0.521129
 C   -1.097487   -0.776114   -0.392722
 C   -2.260992    0.102189   -0.170694
 C   -3.641525   -0.211312   -0.012126
 C   -4.284813   -1.566109    0.028284
 O   -3.605425   -2.576868    0.160207
 N   -5.626500   -1.553001   -0.097320
 C   -6.421260   -2.765434    0.025582
 C   -6.739293   -3.119362    1.475918
 N   -4.368077    0.872334    0.101432
 O   -3.499946    1.926571    0.043306
 C   -2.247823    1.472153   -0.118515
 C   -1.129396    2.413758   -0.110668
 C    0.026113    2.069738    0.595187
 C    1.163527    2.860015    0.639581
 C    2.397334    2.405513    1.397884
 C    2.101697    2.141417    2.879035
 C    3.003837    1.164219    0.725954
 C    1.119599    4.075422   -0.059589
 O    2.228591    4.853996   -0.030424
 C   -0.021687    4.458448   -0.765639
 C   -1.145045    3.634166   -0.801496
 O   -2.253494    3.947777   -1.503807
 H    4.316510   -1.837124   -2.246276
 H    3.403692   -0.644721   -1.290004
 H    5.519830    0.188486   -0.655051
 H    6.360554   -1.286163   -1.181406
 H    5.632872   -2.905888    1.907626
 H    6.782326   -2.950861    0.551269
 H    4.310532   -4.300517    0.528607
 H    5.159039   -3.823434   -0.953254
 H    3.322228   -2.058213    0.488171
 H    2.311324   -4.150594   -0.452633
 H    2.654443   -3.401333   -2.022486
 H    1.422368   -1.232521   -2.633502
 H   -0.558234    0.181809   -2.239758
 H    0.616901   -3.335304    1.037272
 H   -1.401577   -1.963057    1.372328
 H   -6.087232   -0.653562   -0.126450
 H   -5.856207   -3.572860   -0.446204
 H   -7.338480   -2.617563   -0.551255
 H   -5.814108   -3.291523    2.033180
 H   -7.297310   -2.314748    1.965267
 H   -7.343269   -4.031035    1.520106
 H    0.023240    1.131757    1.142613
 H    3.138425    3.207531    1.341567
 H    1.673435    3.027790    3.355264
 H    1.391315    1.316155    3.007730
 H    3.020717    1.876973    3.413217
 H    2.274821    0.340327    0.710314
 H    3.274987    1.395654   -0.311387
 H    3.899677    0.823820    1.259071
 H    2.061953    5.684953   -0.491724
 H   -0.032288    5.403606   -1.305682
 H   -2.158940    4.820243   -1.905137
