42 
6cjv_ligand_xtb.xyz
 C   -3.800467   -0.655243   -0.678709
 C   -2.962606   -1.930783   -0.575270
 C   -1.775628   -1.687598    0.365952
 C   -0.988559   -0.469781   -0.141231
 C   -2.905647    0.510883   -1.105863
 C   -3.621658    1.872738   -1.120993
 C    1.183277    0.418641    0.300498
 C    3.518482    0.202015    0.841116
 C    2.171801    0.525981    1.493640
 C    3.095723   -0.812542   -0.244455
 C    0.925406    1.781044   -0.351323
 C    4.004887   -0.829799   -1.464487
 O   -1.805627    0.662924   -0.231312
 O   -3.761975   -2.992112   -0.147936
 O   -0.976521   -2.842437    0.366777
 O   -2.757548    2.889406   -1.535107
 O    0.024568   -0.214894    0.786239
 O    1.804724   -0.397188   -0.676533
 O    1.919301   -0.423406    2.483965
 O    4.063446    1.378014    0.312920
Cl   -4.546674   -0.318158    0.896749
Cl    5.679671   -1.142779   -0.962867
Cl    0.032562    2.844265    0.737640
 H   -4.620324   -0.801128   -1.384317
 H   -2.551058   -2.149592   -1.578613
 H   -2.143906   -1.464853    1.378247
 H   -0.547786   -0.712328   -1.128040
 H   -2.529749    0.290609   -2.121198
 H   -4.018073    2.072787   -0.119064
 H   -4.443997    1.843211   -1.838644
 H    4.180720   -0.262872    1.578226
 H    2.173824    1.544589    1.901421
 H    3.030899   -1.811582    0.207255
 H    0.342579    1.660797   -1.263774
 H    1.887580    2.245259   -0.569911
 H    3.706841   -1.616832   -2.155105
 H    3.974237    0.137435   -1.966232
 H   -3.175021   -3.709600    0.122521
 H   -0.150740   -2.633564    0.820340
 H   -2.052117    2.963484   -0.877525
 H    0.989298   -0.355752    2.735824
 H    4.979280    1.207566    0.057357
