43 
6ckc_ligand_xtb.xyz
 C   -2.060455   -1.659958   -1.111492
 C   -3.277917   -2.008898   -0.613281
 C    6.087405   -0.004864    1.208317
 C    3.765536   -0.487950    1.571138
 C    4.707523   -0.713281   -0.621472
 C    5.000059   -0.095966    2.059051
 C    5.938561   -0.316249   -0.133101
 C   -4.123385    1.636687    0.933366
 C   -3.808651   -0.849924    0.014365
 C    3.610831   -0.796741    0.227465
 C   -2.844266    0.168886   -0.144626
 C   -4.976731   -0.473068    0.705489
 C    1.470671    1.251608   -0.430464
 C   -0.021893    1.225956   -0.062020
 C    1.670287   -0.065394   -1.190249
 C   -0.616181    0.397317   -1.226043
 C    2.269807   -1.201630   -0.326998
 N   -2.980354    1.421604    0.310320
 N   -5.104622    0.779496    1.148442
 N   -1.787383   -0.344506   -0.824273
 N   -5.984336   -1.328190    0.968621
 O    0.381541   -0.492676   -1.642516
 O    1.763376    2.330379   -1.273238
 O   -0.526313    2.519454    0.019199
 O    1.379551   -1.538733    0.709763
 H   -1.347635   -2.238684   -1.663909
 H   -3.738622   -2.973875   -0.685594
 H    7.049966    0.303748    1.588648
 H    2.914223   -0.570059    2.228312
 H    4.595945   -0.963675   -1.666379
 H    5.111227    0.140178    3.107106
 H    6.785399   -0.252181   -0.800213
 H   -4.276241    2.637525    1.314459
 H    2.102283    1.290603    0.466802
 H   -0.164048    0.672171    0.878363
 H    2.304395    0.118195   -2.063540
 H   -0.887834    1.082246   -2.050919
 H    2.402871   -2.070296   -0.994356
 H   -6.810117   -0.965652    1.410245
 H   -5.985553   -2.251984    0.578908
 H    1.174345    3.053582   -1.009454
 H   -1.494634    2.434768    0.181008
 H    0.528459   -1.732023    0.296391
