54 
6cks_ligand_dft.xyz
 C    5.667493    0.461171   -0.311840
 C    5.718036   -1.059279   -0.309390
 S    4.272012   -1.827105   -1.069562
 O    4.453723   -3.272772   -0.960014
 O    4.060671   -1.187523   -2.366920
 C    2.928126   -1.357479   -0.001173
 C    2.189711   -0.209147   -0.284978
 C    2.629820   -2.135899    1.107876
 C    1.601415   -1.749444    1.960326
 C    0.879147   -0.582288    1.699202
 O   -0.107654   -0.116669    2.490282
 C   -0.536496   -0.902144    3.582761
 C    1.159104    0.196302    0.553625
 C    0.387131    1.429003    0.258572
 C   -1.038584    1.411323   -0.016798
 C   -1.788486    0.226824   -0.063022
 C    1.028785    2.617319    0.214361
 N    0.408159    3.814740   -0.056861
 C    1.207918    5.032048   -0.068635
 C   -0.963255    3.913025   -0.293828
 O   -1.494623    4.994862   -0.506855
 C   -1.687331    2.632720   -0.275229
 C   -3.063823    2.650051   -0.539349
 C   -3.789009    1.478714   -0.547697
 C   -3.153583    0.242041   -0.315046
 C   -3.914799   -1.011724   -0.330942
 C   -5.096563   -1.291092   -0.995049
 C   -3.620840   -2.222886    0.337767
 N   -4.533596   -3.156522    0.110345
 N   -5.425104   -2.568613   -0.704350
 C   -6.537575   -3.338018   -1.215896
 H    5.547430    0.839396   -1.330253
 H    4.839328    0.831692    0.300434
 H    6.598593    0.860361    0.100725
 H    5.793486   -1.478554    0.697946
 H    6.555036   -1.441140   -0.902854
 H    2.403142    0.356812   -1.186321
 H    3.185686   -3.048966    1.295315
 H    1.375861   -2.359570    2.826670
 H   -0.878489   -1.890958    3.253201
 H    0.258915   -1.020263    4.328704
 H   -1.371369   -0.360182    4.026401
 H   -1.283959   -0.723400    0.078411
 H    2.093654    2.691742    0.411105
 H    1.638244    5.215224    0.920830
 H    2.012014    4.947675   -0.805576
 H    0.549646    5.856588   -0.336379
 H   -3.535599    3.608631   -0.726676
 H   -4.860719    1.507128   -0.721491
 H   -5.702552   -0.689004   -1.657015
 H   -2.788132   -2.436942    0.994674
 H   -7.266320   -2.656922   -1.658902
 H   -6.195595   -4.049202   -1.972769
 H   -7.001697   -3.883729   -0.392783
