54 
6cks_ligand_xtb.xyz
 C    5.690729    0.305189    0.135314
 C    5.779991   -1.187732   -0.075402
 S    4.339195   -1.736407   -1.057660
 O    4.401720   -3.169546   -1.174932
 O    4.295971   -0.958223   -2.267139
 C    2.934022   -1.296198   -0.036590
 C    2.219977   -0.146285   -0.315877
 C    2.594728   -2.099306    1.031543
 C    1.538163   -1.738512    1.851379
 C    0.817691   -0.574190    1.596043
 O   -0.198195   -0.117880    2.367253
 C   -0.645026   -0.899985    3.449163
 C    1.148884    0.224057    0.480269
 C    0.376249    1.442982    0.183001
 C   -1.044158    1.399186   -0.040254
 C   -1.766188    0.205434   -0.101816
 C    1.001577    2.642257    0.112735
 N    0.353299    3.816155   -0.115921
 C    1.122465    5.039605   -0.170486
 C   -1.024665    3.893877   -0.271633
 O   -1.569990    4.973511   -0.433130
 C   -1.723167    2.614244   -0.243056
 C   -3.106880    2.604538   -0.448376
 C   -3.805903    1.424691   -0.464870
 C   -3.136795    0.201286   -0.300936
 C   -3.867944   -1.053227   -0.336227
 C   -5.117744   -1.311056   -0.878794
 C   -3.473748   -2.303036    0.188066
 N   -4.396123   -3.218988   -0.017281
 N   -5.383097   -2.612422   -0.668624
 C   -6.550107   -3.343186   -1.068287
 H    5.570159    0.791983   -0.829747
 H    4.833501    0.551546    0.759207
 H    6.590433    0.688039    0.612723
 H    5.754922   -1.754485    0.850777
 H    6.653938   -1.470091   -0.656554
 H    2.492563    0.437675   -1.180763
 H    3.148788   -3.007724    1.206683
 H    1.285256   -2.367780    2.689575
 H   -0.978254   -1.889295    3.121458
 H    0.129535   -1.010387    4.214708
 H   -1.491228   -0.358306    3.868177
 H   -1.240012   -0.732189   -0.015377
 H    2.069370    2.724589    0.260839
 H    1.634629    5.213951    0.777046
 H    1.856832    4.992492   -0.975728
 H    0.425047    5.854809   -0.360385
 H   -3.601511    3.553090   -0.594032
 H   -4.875840    1.431669   -0.606225
 H   -5.804035   -0.678166   -1.404096
 H   -2.574118   -2.556734    0.711593
 H   -7.449104   -2.902352   -0.633589
 H   -6.647567   -3.349117   -2.155742
 H   -6.437947   -4.364612   -0.711079
