61 
6ckx_ligand_xtb.xyz
 C    0.361858   -2.863131   -0.056380
 C   -0.283380   -2.039252   -1.172137
 C   -1.802259   -2.103038   -1.055141
 C   -6.240467    1.459627   -0.036663
 C   -5.199803    4.005718   -0.415441
 C   -4.332748    2.959877   -0.261990
 C   -4.832094    1.654846   -0.068381
 C    2.535116   -1.683275   -0.074753
 C    3.669029   -0.047978    1.274160
 C    3.485970    0.275750   -1.092671
 C    3.936474   -4.017053   -0.544820
 C    2.430623   -4.091364   -0.416003
 O    1.814471   -5.133979   -0.512590
 N    1.814201   -2.902721   -0.184293
 C   -2.256429   -1.577924    0.311404
 C   -1.596753   -2.388474    1.427402
 C   -0.077397   -2.325581    1.306410
 N   -3.691988   -1.628529    0.439064
 C   -4.503386   -0.571452    0.257542
 N   -5.833198   -0.865632    0.302422
 C   -6.661570    0.125131    0.158825
 C   -7.105529    2.555189   -0.197811
 C   -6.590593    3.808560   -0.384608
 N   -3.980395    0.624709    0.077780
 C    2.982406   -1.240399    1.165006
 C    3.930001    0.732831    0.148202
 C    2.798964   -0.916578   -1.204064
 C    4.649500    1.988942    0.269125
 C    4.835866    2.777128    1.425480
 N    5.541167    3.855261    1.158178
 N    5.831245    3.798841   -0.137224
 C    6.607359    4.833916   -0.755368
 C    5.314074    2.701609   -0.717708
 H    0.044969   -3.908095   -0.151579
 H    0.029818   -2.430052   -2.142215
 H    0.044117   -0.999880   -1.096069
 H   -2.135786   -3.136785   -1.173391
 H   -2.264237   -1.504349   -1.841947
 H   -4.816938    5.005483   -0.563389
 H   -3.263385    3.099767   -0.283471
 H    4.018249    0.278735    2.241583
 H    3.672200    0.865906   -1.977221
 H    4.321714   -5.021687   -0.694877
 H    4.211119   -3.393614   -1.392729
 H    4.375559   -3.587927    0.352652
 H   -1.984015   -0.522009    0.401558
 H   -1.924761   -3.428481    1.358663
 H   -1.910430   -1.997716    2.396809
 H    0.253932   -1.290391    1.415707
 H    0.380775   -2.919828    2.099306
 H   -4.143835   -2.528236    0.489646
 H   -7.717665   -0.120264    0.193496
 H   -8.173134    2.386705   -0.170829
 H   -7.248099    4.656148   -0.509612
 H    2.795039   -1.840871    2.042764
 H    2.463450   -1.261619   -2.170913
 H    4.471436    2.609280    2.418688
 H    6.896448    5.537451    0.022454
 H    7.502740    4.417754   -1.220643
 H    6.021815    5.355819   -1.515102
 H    5.466927    2.495344   -1.757826
