49 
6clv_ligand_dft.xyz
 C   14.585063   16.079053  115.920701
 C   15.726769   16.123970  116.742805
 N   16.005022   15.087392  117.564153
 C   15.169031   14.071275  117.540556
 C   14.028637   14.026767  116.710985
 N   13.748946   15.034599  115.910220
 C   13.107045   12.828444  116.705425
 C   14.274350   17.219729  115.040946
 N   16.604093   17.175604  116.757199
 N   15.231791   18.236309  115.153178
 C   16.328142   18.179219  115.981585
 O   13.324915   17.334924  114.299093
 N   17.129762   19.282548  115.994113
 N   11.965633   13.090866  115.877515
 C   11.031474   12.151119  115.550651
 C   11.014955   10.877059  116.150694
 C   10.041242    9.951457  115.807254
 C    9.070799   10.278850  114.864442
 C    9.074237   11.536539  114.255215
 C   10.043169   12.459772  114.590735
 S    7.760942    9.143189  114.530888
 N    6.577475    9.479979  115.713213
 C    6.950582    9.466363  117.055841
 O    7.113701    9.519227  113.286384
 O    8.242608    7.805019  114.799398
 C    7.390683   10.439747  117.899996
 C    7.589131    9.726769  119.118407
 N    7.303730    8.453070  118.986512
 O    6.889518    8.283352  117.686901
 C    7.654893   11.882621  117.623062
 C    8.077024   10.267458  120.421719
 H   15.393522   13.237689  118.205222
 H   13.670254   11.948913  116.350587
 H   12.804116   12.606181  117.740267
 H   15.028484   19.071716  114.618525
 H   17.990631   19.154839  116.506568
 H   17.197869   19.854391  115.166004
 H   12.017389   13.947900  115.341047
 H   11.766492   10.605247  116.883844
 H   10.036661    8.967884  116.265667
 H    8.324272   11.773996  113.507306
 H   10.056745   13.433353  114.108927
 H    6.018034   10.277183  115.429769
 H    7.155967   12.528511  118.353440
 H    8.729461   12.096515  117.659224
 H    7.307228   12.165019  116.625376
 H    8.143521    9.464792  121.159269
 H    9.066248   10.723622  120.306394
 H    7.398744   11.038958  120.801776
