49 
6clv_ligand_xtb.xyz
 C   15.283795   16.341073  115.644756
 C   16.574622   16.304569  116.222710
 N   16.944423   15.250269  116.965562
 C   16.077598   14.280797  117.118902
 C   14.798071   14.307618  116.536845
 N   14.420426   15.341401  115.810206
 C   13.819896   13.178867  116.701056
 C   14.879199   17.496009  114.841177
 N   17.477662   17.300684  116.054749
 N   15.899097   18.445441  114.744207
 C   17.127798   18.321410  115.339121
 O   13.818832   17.679213  114.295228
 N   17.996261   19.340445  115.187102
 N   12.588069   13.496937  116.038087
 C   11.594997   12.615635  115.765840
 C   11.583643   11.314376  116.293658
 C   10.545701   10.454037  116.006026
 C    9.510064   10.879172  115.196491
 C    9.491609   12.159033  114.667562
 C   10.525648   13.021318  114.946865
 S    8.166442    9.796578  114.837173
 N    6.936325   10.380966  115.892879
 C    6.989829   10.018003  117.211348
 O    7.624741   10.056078  113.535905
 O    8.470525    8.443863  115.193845
 C    6.016525    9.701884  118.127012
 C    6.760171    9.468597  119.315647
 N    8.039118    9.630271  119.105301
 O    8.198614    9.976508  117.790258
 C    4.542557    9.629775  117.934623
 C    6.225186    9.080264  120.644206
 H   16.400725   13.443194  117.723609
 H   14.270143   12.263845  116.286286
 H   13.654808   13.004548  117.775033
 H   15.674780   19.274117  114.204894
 H   18.920329   19.204372  115.557447
 H   17.838121   20.071160  114.517167
 H   12.594253   14.391795  115.566343
 H   12.384403   10.982688  116.934243
 H   10.518591    9.452271  116.401578
 H    8.669531   12.447035  114.032386
 H   10.531446   14.021010  114.539034
 H    6.016863   10.343484  115.480599
 H    4.135034    8.782386  118.482442
 H    4.058557   10.535407  118.302450
 H    4.300655    9.513750  116.879980
 H    7.044506    8.977603  121.348578
 H    5.528285    9.835800  121.003133
 H    5.692526    8.133442  120.569449
