43 
6cmr_ligand_xtb.xyz
 C    0.809618    1.676334   -0.141038
 C   -1.156488    2.161263   -1.199670
 C   -2.917379   -0.748075    1.140469
 C   -3.087089   -1.509333   -0.178192
 C   -2.925493   -0.620319   -1.416261
 C   -3.653984    0.727545   -1.250986
 C    2.348810   -0.241608   -0.050043
 C    3.598592   -0.836890   -0.137740
 C    4.695259   -0.047167   -0.456542
 C    4.529966    1.305738   -0.694531
 C    3.279035    1.890092   -0.601331
 C   -4.389548   -2.293660   -0.216158
 N    0.152782    2.023610   -1.231721
 C   -1.857680    1.762897   -0.048551
 N   -1.194271    1.649166    1.100083
 C    0.128191    1.685135    1.102234
 N    0.768675    1.602260    2.298988
 C    2.170624    1.124769   -0.263879
 N   -3.188855    1.378292   -0.047923
 C   -3.604375    0.629763    1.117926
Cl    0.981403   -1.227278    0.312499
Cl    3.799678   -2.534085    0.134696
 N   -1.948129   -2.524476   -0.228720
 H   -1.622201    2.512590   -2.105301
 H   -1.857364   -0.563181    1.323398
 H   -3.314365   -1.334815    1.968522
 H   -3.300110   -1.133302   -2.302327
 H   -1.867192   -0.393406   -1.568606
 H   -4.732007    0.580697   -1.166273
 H   -3.467793    1.353009   -2.121953
 H    5.669027   -0.504393   -0.524380
 H    5.386412    1.906962   -0.954722
 H    3.143243    2.942744   -0.790723
 H   -4.478970   -2.873754   -1.131907
 H   -4.472477   -2.964753    0.635618
 H   -5.231788   -1.609465   -0.176897
 H    1.740385    1.860594    2.335051
 H    0.217260    1.823081    3.112637
 H   -3.316212    1.184824    2.009186
 H   -4.690454    0.531687    1.093070
 H   -1.026820   -2.040215   -0.178855
 H   -2.009202   -3.166270    0.569695
 H   -1.987523   -3.070354   -1.096709
