43 
6cms_ligand_dft.xyz
 C    0.970969    1.108451   -0.067776
 C   -0.965568    1.760274   -1.106116
 C   -3.820307   -0.638451    1.132802
 C   -4.476106   -1.086860   -0.179713
 C   -3.873251   -0.365018   -1.392968
 C   -3.836309    1.157347   -1.155513
 C    3.029323   -0.353971   -0.118315
 C    4.419221   -0.493938   -0.173466
 C    5.228786    0.635678   -0.252806
 C    4.655790    1.900039   -0.283917
 C    3.275417    2.039863   -0.222199
 C   -5.999276   -1.003670   -0.140685
 N    0.356225    1.600619   -1.130878
 C   -1.706492    1.384912    0.020663
 N   -1.100601    0.935261    1.121704
 C    0.230435    0.828357    1.110036
 N    0.827724    0.404912    2.255248
 C    2.446482    0.920941   -0.130969
 N   -3.106853    1.466670    0.060980
 C   -3.764514    0.898023    1.224466
Cl    2.011408   -1.768446   -0.077018
Cl    5.170086   -2.058334   -0.156666
 N   -4.134123   -2.579733   -0.347744
 H   -1.413640    2.206386   -1.986997
 H   -2.782530   -0.992213    1.183992
 H   -4.365108   -1.052690    1.989946
 H   -4.443283   -0.598941   -2.300283
 H   -2.836545   -0.692673   -1.551599
 H   -4.849635    1.562450   -1.064364
 H   -3.387814    1.645396   -2.019074
 H    6.304838    0.510226   -0.296465
 H    5.290861    2.776443   -0.355093
 H    2.818702    3.023627   -0.250125
 H   -6.451851   -1.363765   -1.071033
 H   -6.414472   -1.568356    0.701151
 H   -6.306754    0.036380   -0.012111
 H    1.826688    0.495953    2.354623
 H    0.277680    0.428198    3.099571
 H   -3.218332    1.179047    2.122803
 H   -4.771334    1.324546    1.290349
 H   -3.118427   -2.717883   -0.379631
 H   -4.498869   -3.133041    0.434875
 H   -4.529788   -2.959798   -1.214223
