66 
6cn5_ligand_xtb.xyz
 C    1.448142    2.928855    0.116012
 C    1.679924    0.375536    0.439389
 C   -0.473312    1.792793    0.155363
 C    0.946000    1.666849    0.258460
 C   -1.526129    0.884002    0.210653
 C    4.854916   -1.797737   -0.988328
 C    6.296897   -1.521514   -0.564453
 O    4.663194   -2.326666   -2.072428
 C   -5.189707    0.578332   -0.015263
 O   -5.788499    1.623089   -0.188359
 C   -0.748584    3.168421   -0.044091
 N    0.441106    3.836863   -0.063261
 C   -2.051402    3.633071   -0.184463
 C   -2.821401    1.352317    0.062757
 C    1.726431   -0.410658   -0.878849
 C    3.112724    0.563971    0.937290
 C   -3.078824    2.719870   -0.131230
 N   -3.855563    0.412777    0.110167
 C    2.465446   -1.731227   -0.678481
 C    3.798952   -0.797910    1.081426
 N    3.809698   -1.490873   -0.183808
 C   -5.917689   -0.734057    0.085559
 N   -5.190330   -1.832574    0.275887
 C   -5.809149   -2.995253    0.365479
 C   -7.184449   -3.138185    0.272217
 C   -7.948782   -1.986515    0.072970
 C   -7.303333   -0.755877   -0.023019
 C   -9.359896   -2.073959   -0.028593
 N  -10.499228   -2.156697   -0.108300
 C    6.643588   -0.035276   -0.426231
 C    8.151072    0.120119   -0.237446
 C    8.619717   -0.666386    0.983700
 C    8.268880   -2.144765    0.838171
 C    6.763407   -2.325627    0.653597
 C    0.598769    5.251532   -0.238147
 H    2.467930    3.263204    0.134850
 H    1.132509   -0.226076    1.176685
 H   -1.341405   -0.169526    0.364340
 H    6.874305   -1.895051   -1.420127
 H   -2.259494    4.681518   -0.332901
 H    2.246194    0.182477   -1.633678
 H    0.715711   -0.604686   -1.238514
 H    3.115323    1.080254    1.898911
 H    3.671260    1.165458    0.218175
 H   -4.099974    3.043313   -0.238810
 H   -3.575335   -0.554052    0.247780
 H    2.552326   -2.273759   -1.620726
 H    1.930881   -2.354364    0.048329
 H    3.238096   -1.409941    1.801011
 H    4.806266   -0.669772    1.464257
 H   -5.169482   -3.854236    0.519700
 H   -7.653764   -4.106248    0.350480
 H   -7.841194    0.166486   -0.177078
 H    6.137357    0.420111    0.425208
 H    6.324306    0.493252   -1.327469
 H    8.401271    1.176769   -0.118482
 H    8.669327   -0.248441   -1.125130
 H    8.139975   -0.265306    1.880306
 H    9.698842   -0.552808    1.104922
 H    8.600106   -2.694415    1.721926
 H    8.792672   -2.556033   -0.027245
 H    6.531425   -3.381247    0.496936
 H    6.256436   -2.008537    1.565718
 H    1.658919    5.496925   -0.262933
 H    0.139708    5.574454   -1.175758
 H    0.128906    5.798117    0.584113
