45 
6cq0_ligand_xtb.xyz
 C   -3.016189    1.701831    2.111951
 C   -3.234519    2.890456    0.020365
 C   -4.807395    1.065938    0.555394
 C   -5.069462    0.425513   -0.811702
 C   -4.664959   -1.053458   -0.908376
 C   -3.222978   -1.347479   -0.593667
 C   -2.858414   -2.542084    0.038321
 C   -1.544432   -2.828053    0.339641
 C   -0.547425   -1.877504    0.098636
 C    1.693566   -1.273943    0.176699
 C    3.959106   -0.919773    0.204727
 C    3.793363    0.454114   -0.135233
 C    4.928961    1.414774   -0.284520
 C    2.517310    0.900059   -0.395449
 C    1.420358    0.039449   -0.258621
 C    0.054585    0.462480   -0.490226
 C   -0.902457   -0.655061   -0.473151
 C   -2.221057   -0.440658   -0.888946
 N   -3.425699    1.600267    0.704853
 N    2.913693   -1.723365    0.381953
 N    5.168576   -1.484031    0.397028
 O    0.724554   -2.169246    0.444702
 O    5.938785    1.275851    0.595581
 O    4.947623    2.263211   -1.126251
 O   -0.336895    1.621385   -0.584985
 H   -3.687660    2.368333    2.651812
 H   -3.034201    0.720563    2.582970
 H   -2.004332    2.099598    2.167224
 H   -3.677529    2.866578   -0.972094
 H   -3.701526    3.689620    0.592763
 H   -2.167521    3.086691   -0.085824
 H   -4.970538    0.318307    1.334183
 H   -5.500453    1.892506    0.726923
 H   -4.587705    0.999627   -1.602876
 H   -6.142340    0.478784   -1.000196
 H   -4.881384   -1.395080   -1.924176
 H   -5.294975   -1.641161   -0.238037
 H   -3.621562   -3.269046    0.270911
 H   -1.264876   -3.770809    0.780548
 H    2.353284    1.920939   -0.707424
 H   -2.393895    0.424832   -1.516225
 H   -2.793925    0.909920    0.234811
 H    5.999494   -1.058830    0.017165
 H    5.170622   -2.485404    0.513950
 H    5.744721    0.664731    1.319325
