43 
6cq4_ligand_dft.xyz
 C    5.045074    0.876661   -0.017806
 C    2.775929    1.123960    0.020141
 C    0.468368    1.575913    0.045051
 C   -0.515164    2.559741    0.077201
 C   -1.847460    2.178902    0.072328
 C   -2.232526    0.830268    0.033391
 C   -3.695710    0.443820    0.036044
 C   -4.066548   -0.439325    1.239736
 C   -5.591831   -0.615083    1.347912
 C   -6.263915   -0.619428   -0.021242
 C   -5.367027   -1.137255   -1.124196
 C   -4.112426   -0.255754   -1.282462
 C   -1.229960   -0.129813    0.000614
 C    0.121721    0.223393    0.007111
 C    1.176330   -0.809242   -0.024942
 C    2.533241   -0.258663   -0.012141
 C    3.656994   -1.081670   -0.027306
 C    4.936404   -0.559670   -0.006757
 C    6.155572   -1.407359   -0.016666
 F   -6.646973    0.664862   -0.342104
 F   -7.417078   -1.351331    0.030392
 N    6.236082    1.489103   -0.044850
 N    3.969639    1.678390    0.013257
 O    1.765139    2.015048    0.051758
 O    0.943806   -2.010030   -0.054651
 O    7.268496   -0.984003   -0.248840
 O    6.007349   -2.717488    0.247799
 H   -0.220482    3.602945    0.105327
 H   -2.614417    2.948639    0.098429
 H   -4.281891    1.366238    0.122724
 H   -3.674720   -0.004749    2.164289
 H   -3.584451   -1.419023    1.128515
 H   -6.042319    0.192435    1.932909
 H   -5.833040   -1.558308    1.845729
 H   -5.941763   -1.183196   -2.053109
 H   -5.089541   -2.163784   -0.861291
 H   -3.288947   -0.881436   -1.641967
 H   -4.281925    0.507405   -2.047533
 H   -1.460394   -1.191355   -0.031343
 H    3.454428   -2.149647   -0.078936
 H    7.073127    0.934226   -0.171542
 H    6.247012    2.495576   -0.089388
 H    5.115021   -2.914797    0.559144
