43 
6cq5_ligand_dft.xyz
 C    5.321101    0.864679   -0.007704
 C    3.053178    1.121476    0.023118
 C    0.748073    1.585630    0.041801
 C   -0.231580    2.573968    0.077867
 C   -1.565507    2.200140    0.061627
 C   -1.954124    0.852869    0.012495
 C   -3.419724    0.473049   -0.009587
 C   -3.781465   -0.347679   -1.263171
 C   -5.297033   -0.399231   -1.518644
 C   -5.053323   -1.180339    1.136526
 C   -3.825672   -0.271613    1.289269
 C   -0.956965   -0.112249   -0.019827
 C    0.395937    0.235092   -0.007428
 C    1.445593   -0.803237   -0.041047
 C    2.804224   -0.259753   -0.018834
 C    3.924919   -1.087914   -0.033426
 C    5.205915   -0.571496   -0.004209
 C    6.422058   -1.424425   -0.012931
 N    6.514205    1.471921   -0.028511
 N    4.248587    1.670790    0.024287
 O    2.045659    2.017859    0.056939
 O   -7.358501   -1.434001   -0.160587
 O   -6.536284    0.889046    0.446761
 O    1.204199   -2.002047   -0.078689
 O    6.268179   -2.734150    0.248498
 O    7.536644   -1.004171   -0.241752
 S   -6.265571   -0.482340    0.013035
 H    0.067647    3.615449    0.117197
 H   -2.329308    2.972781    0.089198
 H   -4.003862    1.399248   -0.053257
 H   -3.383907   -1.365560   -1.169812
 H   -3.302393    0.090642   -2.143838
 H   -5.581912   -1.263190   -2.122897
 H   -5.652670    0.511600   -2.008755
 H   -5.577096   -1.335264    2.083371
 H   -4.798616   -2.163530    0.729322
 H   -4.008653    0.467013    2.073712
 H   -2.995459   -0.900284    1.628606
 H   -1.190546   -1.173231   -0.055591
 H    3.718729   -2.154791   -0.091823
 H    7.349734    0.914131   -0.153077
 H    6.530256    2.478739   -0.064309
 H    5.374848   -2.929375    0.558251
