58 
6cqf_ligand_dft.xyz
 C    4.738740    0.013833   -0.020615
 C    3.502544   -0.641672   -0.010473
 C    2.388387    0.181856   -0.081695
 C    4.802329    1.423234   -0.096309
 N    6.900671    0.608267   -0.005213
 C   -0.467689    1.437911   -0.129156
 C   -2.983926   -2.888072   -0.180073
 C   -4.328919   -3.545651   -0.492317
 C   -4.719419   -1.174824   -0.162027
 C   -2.975126    3.508129    1.231078
 C    7.224905   -1.984765    1.485744
 C    6.518597   -1.796002    0.144984
 C    7.410351   -2.136281   -1.046325
 N    6.017790   -0.425628    0.028545
 N    2.423067    1.526630   -0.152363
 C    3.602969    2.130242   -0.158578
 C    6.199870    1.712551   -0.081364
 N    1.127453   -0.439515   -0.086918
 C   -0.136735    0.059782   -0.120075
 C   -1.805970    1.730761   -0.155881
 N   -2.776877    0.789584   -0.187377
 C   -2.354930   -0.492798   -0.178635
 N   -1.081168   -0.888884   -0.136543
 N   -3.300138   -1.455840   -0.218776
 C   -5.329819   -2.557678    0.080089
 F   -6.564708   -2.656972   -0.462348
 F   -5.459522   -2.755923    1.423381
 C   -2.297616    3.166543   -0.123996
 C   -4.471537    3.181028    1.040423
 N   -4.561460    2.701646   -0.381950
 C   -3.443051    3.371264   -1.120203
 H    3.410919   -1.720761    0.050749
 H    0.307238    2.189073   -0.117507
 H   -2.210767   -3.126107   -0.911976
 H   -2.613532   -3.168220    0.812085
 H   -4.446491   -4.533903   -0.046026
 H   -4.489011   -3.618540   -1.571589
 H   -5.096290   -0.760810   -1.105868
 H   -4.976624   -0.498767    0.660029
 H   -2.848123    4.569342    1.455892
 H   -2.538351    2.936325    2.050860
 H    8.100839   -1.332612    1.544357
 H    6.555685   -1.743989    2.317127
 H    7.555113   -3.022153    1.593048
 H    5.625937   -2.430221    0.116742
 H    7.745426   -3.175183   -0.975022
 H    6.871946   -2.006822   -1.989691
 H    8.289917   -1.486737   -1.057010
 H    3.588725    3.216096   -0.217080
 H    6.697936    2.670970   -0.124030
 H    1.133995   -1.450974   -0.073477
 H   -1.469576    3.844522   -0.335098
 H   -4.835788    2.385927    1.691326
 H   -5.111654    4.057705    1.148498
 H   -5.482369    2.823785   -0.803804
 H   -4.246734    1.682783   -0.376697
 H   -3.688212    4.426011   -1.265177
 H   -3.301171    2.879140   -2.083357
