15 
6cqz_ligand_dft.xyz
 P   -1.014121   -0.210093    0.337596
 O   -1.359771   -1.403688   -0.471530
 O    0.558745    0.070311    0.600009
 C   -1.655154    1.357892   -0.310191
 C    1.468817   -0.013433   -0.507551
 C    2.876197    0.115404    0.035780
 H   -1.377909    2.187050    0.346913
 H   -2.743853    1.303887   -0.394186
 H   -1.245682    1.537013   -1.308670
 H    1.324197   -0.970110   -1.018964
 H    1.251193    0.794042   -1.219284
 H    3.600685    0.054528   -0.782397
 H    3.007053    1.073656    0.546493
 H    3.084293   -0.688911    0.746685
 H   -1.419117   -0.231925    1.683408
