14 
6csf_ligand_dft.xyz
 N   -1.365789   -1.094472    0.054510
 C   -0.619025    0.173332    0.403303
 C   -1.209985    1.388235   -0.297931
 C    0.836248   -0.140982    0.036933
 O    1.609880    0.915656    0.150351
 O    1.172889   -1.255276   -0.291755
 H   -0.648704   -1.842364   -0.038575
 H   -1.840922   -1.012832   -0.850318
 H   -2.063844   -1.357395    0.754834
 H   -0.675832    0.286334    1.490049
 H   -0.649603    2.276609   -0.000571
 H   -2.254334    1.536234   -0.010313
 H   -1.140903    1.294749   -1.386436
 H    2.529080    0.673423   -0.062837
