109 
6cvx_ligand_dft.xyz
 C    1.229845    1.048108   -2.381617
 C    6.624405   -1.827626    0.141287
 C    8.012408   -1.512554   -0.401202
 C    2.482500    1.927338    2.266246
 C    3.384352    3.170167    2.274967
 C    2.392631    1.469668   -0.266747
 C    0.060833   -0.924753   -1.786549
 C    0.807533   -0.299305   -2.958847
 C    0.890357   -0.536430   -0.556561
 C   -2.030803    7.391421   -0.763660
 C   -1.010450    6.568447   -0.543527
 C   -0.473846    5.610591   -1.551397
 C   -1.358939    4.957329   -2.576771
 C   -0.764086    4.135785   -1.461219
 C    0.083231    2.075678   -2.462797
 C    2.832937    0.955688    1.105645
 C    4.683771   -0.581788    0.677186
 C    6.914346   -2.576329    1.439733
 C    1.017961    2.357834    2.118961
 C    2.663447    1.160076    3.583126
 C   -0.957123   -2.956322   -1.200382
 C   -1.282575   -4.318138   -1.565973
 C   -0.598189   -4.980508   -2.741805
 C   -2.822192   -4.309543    0.137121
 C   -3.844621   -4.955730    0.857014
 C   -4.494860   -4.312891    1.886290
 C   -4.128264   -2.990868    2.236907
 C   -3.114139   -2.342769    1.559039
 C   -2.464820   -2.988783    0.495118
 C   -5.749433   -2.905981    3.977258
 C   -1.650413    3.590181   -0.351162
 C   -4.292629    1.606678    1.101667
 C   -5.600475    1.738484    0.369929
 C   -5.323781    0.504148    1.177599
 C    8.847067   -1.157917    0.847953
 C    8.123907   -1.836621    2.044853
 C   -1.190471   -4.443562   -4.056141
 C   -3.974446    2.437818    2.323720
 C   -0.696095   -6.503470   -2.674368
 N    0.300155    3.223991   -1.772997
 N    1.525342    0.723331   -0.977264
 N    4.252458    0.664237    1.032254
 N   -2.197085   -4.958169   -0.894584
 N   -1.492286   -2.329216   -0.202690
 N   -2.492297    2.578655   -0.804530
 O   -0.961048    1.836996   -3.061366
 O    2.856676    2.523628   -0.725030
 O    3.983938   -1.575455    0.615357
 O    6.004893   -0.556079    0.425738
 O   -0.044627   -2.331944   -1.971880
 O   -4.731034   -2.281678    3.228874
 O   -1.592971    3.952605    0.802171
 O   -3.301374    0.259837   -0.943117
 O   -1.772119    0.874065    0.977810
 S   -2.884982    1.189059    0.096013
 H    2.126945    1.469188   -2.844301
 H    5.982616   -2.381233   -0.546733
 H    8.401403   -2.417050   -0.882486
 H    7.989921   -0.718294   -1.151942
 H    4.425991    2.909534    2.496742
 H    3.049865    3.858662    3.058826
 H    3.349747    3.692782    1.315897
 H   -0.946971   -0.508305   -1.707154
 H    0.182487   -0.192091   -3.845128
 H    1.693129   -0.897107   -3.196818
 H    1.649234   -1.298848   -0.351861
 H    0.252747   -0.388919    0.315403
 H   -2.556118    7.409479   -1.715501
 H   -2.375773    8.081191    0.000298
 H   -0.503688    6.574491    0.418399
 H    0.544284    5.820863   -1.877191
 H   -0.967956    4.779221   -3.571897
 H   -2.426128    5.152184   -2.528087
 H    2.347070    0.003201    1.317463
 H    6.041863   -2.614586    2.096052
 H    7.176408   -3.609931    1.184029
 H    0.340158    1.504232    2.017749
 H    0.700526    2.928728    2.997845
 H    0.869463    3.006100    1.249796
 H    2.489493    1.825944    4.435673
 H    3.677303    0.754500    3.667437
 H    1.953835    0.327695    3.655982
 H    0.458938   -4.688971   -2.710529
 H   -4.108888   -5.969801    0.574794
 H   -5.285780   -4.828483    2.418365
 H   -2.819810   -1.335421    1.831472
 H   -6.069611   -2.171729    4.717594
 H   -6.606550   -3.179522    3.348226
 H   -5.380641   -3.800479    4.494925
 H   -5.595266    1.630723   -0.710111
 H   -6.286408    2.486731    0.755337
 H   -5.795503    0.377059    2.146499
 H   -5.133770   -0.416410    0.636215
 H    9.882156   -1.495647    0.744360
 H    8.876749   -0.073564    0.987107
 H    8.779654   -2.519022    2.592719
 H    7.783151   -1.080601    2.758151
 H   -1.082905   -3.357580   -4.127518
 H   -2.255370   -4.692880   -4.122984
 H   -0.679948   -4.894854   -4.913692
 H   -3.303426    1.891573    2.991331
 H   -4.906123    2.648403    2.857852
 H   -3.495820    3.381050    2.052980
 H   -0.266085   -6.890046   -1.745452
 H   -0.158174   -6.948662   -3.518137
 H   -1.739528   -6.828165   -2.715937
 H    1.193771    3.313070   -1.287996
 H    4.872276    1.431383    0.813491
 H   -2.371206    2.318363   -1.788902
