39 
6cw4_ligand_dft.xyz
 C    0.044531   -1.239703   -0.147474
 C    1.388905   -0.548947    0.085717
 C    1.328457    0.924897   -0.325139
 C    0.164479    1.663359    0.325731
 C   -1.140170    0.934319    0.091483
 O    0.174529   -2.544343    0.411814
 C   -1.123434   -0.517119    0.531012
 O   -0.629159   -3.673014   -1.759955
 O    0.111954   -5.039719    0.333394
 O   -2.027056   -3.828904    0.477821
 O    1.754326   -0.624269    1.462844
 O    2.480227    1.672903    0.063913
 O   -0.002749    2.949996   -0.249113
 O   -2.164436    1.631107    0.807694
 O   -3.880869    1.043303   -0.987193
 O   -4.453947    2.698092    0.899638
 O   -2.776892    3.437064   -0.827238
 O   -2.345296   -1.158810    0.216224
 P   -0.633777   -3.779584   -0.296851
 P   -3.382033    2.133863   -0.127054
 P    3.975262    1.106064   -0.250380
 O    4.872707    2.415736   -0.112060
 O    4.328216    0.317236    1.095529
 O    4.065194    0.402140   -1.534234
 H   -0.143188   -1.317539   -1.225263
 H    2.141813   -1.058601   -0.528141
 H    1.226133    0.966361   -1.416546
 H    0.351928    1.742316    1.403707
 H   -1.348965    0.957260   -0.987906
 H   -0.983872   -0.562469    1.617264
 H   -0.356102   -5.380511    1.107074
 H   -2.454301   -2.943151    0.428502
 H    1.615009   -1.548897    1.722649
 H    0.836715    3.424061   -0.178069
 H   -4.250466    3.593684    1.200712
 H   -1.799629    3.468642   -0.740005
 H   -2.936877   -0.575122   -0.301036
 H    5.157823    2.560956    0.799832
 H    3.521618   -0.121098    1.450897
