39 
6cw4_ligand_xtb.xyz
 C    1.454029    0.454843   -0.344690
 C    0.371742    1.534687   -0.266750
 C   -0.923838    1.008791   -0.885170
 C   -1.397987   -0.215280   -0.083371
 C   -0.309861   -1.301680   -0.108093
 O    2.647470    0.971692    0.192070
 C    1.020447   -0.789202    0.448652
 O    3.864540   -0.640487   -1.410370
 O    5.063510    1.319852   -0.273888
 O    4.444210   -0.578030    1.142197
 O    0.097909    1.861805    1.075624
 O   -1.925444    1.982689   -0.939315
 O   -2.614990   -0.726268   -0.551253
 O   -0.732269   -2.403019    0.656704
 O   -1.822820   -3.273263   -1.511585
 O   -1.367870   -4.801812    0.493873
 O   -3.167677   -3.157606    0.729256
 O    2.023438   -1.765117    0.435378
 P    4.005955    0.159044   -0.199840
 P   -1.803203   -3.395672   -0.057477
 P   -2.055217    3.255724    0.058345
 O   -3.386184    3.850078   -0.529469
 O   -2.543916    2.664115    1.463855
 O   -0.941988    4.194087    0.098131
 H    1.635217    0.165347   -1.387832
 H    0.685788    2.430157   -0.815424
 H   -0.737736    0.709691   -1.925918
 H   -1.591840    0.086813    0.950484
 H   -0.173609   -1.634320   -1.148615
 H    0.893796   -0.519828    1.502654
 H    5.216814    1.737069    0.573919
 H    3.909603   -1.365898    1.272850
 H    0.793574    2.459653    1.377112
 H   -2.513432   -1.016094   -1.470230
 H   -1.416157   -4.851013    1.448707
 H   -3.573127   -2.333604    0.447375
 H    2.159273   -2.079669   -0.470609
 H   -4.091964    3.203856   -0.561724
 H   -1.799774    2.578721    2.058683
