40 
6cwf_ligand_dft.xyz
 C    3.306981   -2.479436    1.673290
 C    2.798289   -1.934877    0.357907
 O    2.931550   -2.561500   -0.691371
 N    2.188220   -0.726122    0.400404
 C    1.875886    0.015345   -0.812280
 C    0.534960   -0.415941   -1.449064
 O    0.466357   -1.784562   -1.716931
 C   -0.585657    0.003343   -0.509260
 O   -1.849263   -0.203039   -1.111626
 C   -2.911181    0.147419   -0.260918
 C   -4.192485    0.027769   -1.066898
 C   -2.962618   -0.819628    0.952875
 O   -2.902209   -2.098147    0.556509
 O   -3.079202   -0.489314    2.107033
 O   -2.833069    1.471940    0.186799
 C   -1.602092    1.842555    0.790177
 C   -0.471851    1.488240   -0.161479
 O    0.775665    1.774086    0.436988
 C    1.837493    1.505697   -0.461854
 O    3.025419    1.848809    0.146298
 C    3.164434    3.238280    0.386156
 H    3.070408   -1.843856    2.530514
 H    2.876852   -3.471599    1.830274
 H    4.391742   -2.597668    1.602916
 H    2.191499   -0.199685    1.261653
 H    2.679480   -0.157337   -1.537226
 H    0.417288    0.157904   -2.384943
 H    1.354321   -2.172460   -1.610027
 H   -0.495909   -0.597188    0.410196
 H   -4.139346    0.739646   -1.893369
 H   -5.053093    0.270573   -0.438836
 H   -4.292233   -0.984591   -1.461536
 H   -2.967989   -2.639092    1.359934
 H   -1.660611    2.918659    0.963710
 H   -1.462075    1.334009    1.751300
 H   -0.592178    2.068193   -1.090861
 H    1.677184    2.095068   -1.384841
 H    2.408915    3.597452    1.091427
 H    3.082926    3.804759   -0.552067
 H    4.160332    3.381295    0.807438
