39 
6cyg_ligand_xtb.xyz
 O   -0.282106    3.673506   -0.632929
 C   -0.585516    3.346286    0.705497
 C   -2.083153    3.043729    0.795946
 N   -2.413260    1.851129    0.053072
 C   -2.680884    0.674510    0.640353
 O   -2.826242    0.520964    1.835140
 C   -2.795966   -0.481858   -0.371220
 O   -1.787531   -0.362152   -1.378789
 C   -2.553711   -1.829026    0.308819
 O   -3.117092   -2.869341   -0.435544
 C   -1.018240   -1.883021    0.289449
 O   -0.546629   -3.188930    0.344071
 C   -0.690118   -1.162320   -1.045548
 N    0.506809   -0.363308   -0.903840
 C    0.742488    0.908694   -1.338943
 N    1.915418    1.367359   -1.018424
 C    2.525090    0.338978   -0.342022
 C    1.647708   -0.755030   -0.265032
 N    1.927042   -1.924664    0.319386
 C    3.145138   -1.959162    0.832106
 N    4.062069   -1.010109    0.825440
 C    3.790922    0.163647    0.246191
 N    4.730393    1.122401    0.268336
 H    0.668585    3.599034   -0.773113
 H   -0.017302    2.465583    1.031474
 H   -0.343256    4.186012    1.371980
 H   -2.370856    2.871676    1.834304
 H   -2.641719    3.887835    0.384802
 H   -2.218188    1.861958   -0.937304
 H   -3.766499   -0.455336   -0.873519
 H   -2.942557   -1.819101    1.335389
 H   -2.572913   -3.653466   -0.276677
 H   -0.633177   -1.275927    1.122242
 H    0.428692   -3.133718    0.402024
 H   -0.525600   -1.906679   -1.842343
 H    0.008486    1.457506   -1.893209
 H    3.427194   -2.883903    1.316691
 H    5.635946    0.900703    0.642098
 H    4.578129    1.973223   -0.241769
