44 
6czb_ligand_dft.xyz
 P    1.490853    0.138536    1.529580
 O    2.518163   -0.358941    2.619414
 O    1.497352    1.569584    1.163629
 O    1.835560   -0.856541    0.291517
 O    0.076905   -0.362371    2.033517
 P    1.950783   -0.517688   -1.301878
 O    0.900569    0.388854   -1.776290
 O    2.050354   -1.965509   -1.910696
 O    3.469175   -0.013596   -1.454183
 P    4.294883    0.967384   -0.433893
 O    3.536264    2.338446   -0.445927
 O    4.526850    0.308312    0.873985
 O    5.591114    1.281291   -1.285305
 C   -0.240295   -1.760108    2.158538
 C   -1.361081   -2.135920    1.212065
 O   -2.526654   -1.391031    1.544956
 C   -3.302111   -1.141239    0.402594
 C   -2.564628   -1.757119   -0.800253
 O   -2.977665   -3.084706   -1.049485
 C   -1.134183   -1.847301   -0.277251
 O   -0.365119   -2.830431   -0.934898
 N   -3.485335    0.306056    0.234857
 C   -2.704398    1.247452    0.871146
 C   -4.479240    0.659971   -0.666580
 O   -5.121786   -0.180793   -1.278092
 N   -4.660844    2.012105   -0.807091
 C   -3.934196    3.053518   -0.192566
 O   -4.211772    4.210273   -0.430397
 C   -2.886679    2.567819    0.692691
 H    3.426201   -0.203886    2.260362
 H    1.190427   -2.427600   -1.755056
 H    2.721204    2.298303    0.119323
 H    6.347950    0.765838   -0.974901
 H    0.633998   -2.382297    1.948304
 H   -0.551247   -1.915382    3.192918
 H   -1.552787   -3.211167    1.341906
 H   -4.293824   -1.585241    0.514541
 H   -2.651308   -1.136719   -1.695519
 H   -3.814122   -3.053684   -1.530913
 H   -0.651759   -0.878235   -0.414009
 H   -0.998763   -3.491192   -1.262309
 H   -1.941647    0.841458    1.522970
 H   -5.383221    2.292262   -1.458564
 H   -2.259253    3.291762    1.193176
