46 
6czc_ligand_xtb.xyz
 P   -0.805211    1.632453   -0.971775
 O   -1.530136    3.015665   -1.097961
 O   -1.230916    0.542001   -1.844888
 O   -0.896256    1.331162    0.610131
 P   -1.143504   -0.139014    1.177931
 O   -0.631434   -0.092770    2.639631
 O   -0.674528   -1.213207    0.316545
 O   -2.730801   -0.140265    1.359971
 P   -3.658007    0.197253    0.067035
 O   -5.067977   -0.246913    0.582966
 O   -3.581352    1.604826   -0.318531
 O   -3.289252   -0.865649   -1.016859
 O    0.713930    2.009030   -1.204923
 C    1.322797    2.923815   -0.302850
 C    2.357633    2.195766    0.554683
 O    1.785578    1.043414    1.143665
 C    3.588185    1.731885   -0.244065
 O    4.556924    2.744474   -0.196053
 C    3.991743    0.442731    0.489693
 C    2.687561   -0.042350    1.134486
 N    2.122145   -1.191912    0.452067
 C    1.456194   -2.119194    1.221720
 O    1.289091   -1.968730    2.424744
 N    1.101486   -3.256056    0.571205
 C    0.969652   -3.416330   -0.810517
 O    0.535709   -4.448938   -1.262447
 C    1.420455   -2.257028   -1.570944
 C    1.177007   -2.248765   -3.045094
 C    1.968205   -1.221765   -0.915425
 H   -2.475076    2.877536   -0.915646
 H    0.106156   -0.727057    2.765412
 H   -5.136614   -1.192839    0.718197
 H   -2.485162   -0.586823   -1.503732
 H    1.822179    3.696464   -0.893158
 H    0.566213    3.376215    0.337868
 H    2.707331    2.881156    1.341739
 H    3.294312    1.529426   -1.283131
 H    5.314805    2.490813   -0.734999
 H    4.421643   -0.313802   -0.163404
 H    4.714230    0.700054    1.265431
 H    2.833212   -0.373554    2.172393
 H    0.631614   -3.953543    1.138673
 H    2.008090   -1.798427   -3.581819
 H    1.023232   -3.268483   -3.388311
 H    0.277759   -1.670184   -3.252721
 H    2.286253   -0.336923   -1.441618
