46 
6czc_ligand_dft.xyz
 P   -1.195117    1.689042   -0.906355
 O   -2.220255    2.872226   -0.700121
 O   -1.459181    0.717509   -1.987704
 O   -1.190580    1.019610    0.575319
 P   -1.212148   -0.549080    0.981642
 O   -0.811366   -0.541516    2.497283
 O   -0.481990   -1.438455    0.070057
 O   -2.805278   -0.823503    1.076278
 P   -3.922700   -0.366240   -0.029547
 O   -5.178404   -1.221332    0.410123
 O   -4.157885    1.091155   -0.019147
 O   -3.460741   -1.019135   -1.389480
 O    0.209014    2.406514   -1.032141
 C    0.711986    3.208545    0.049210
 C    1.931759    2.556455    0.662543
 O    1.617925    1.251610    1.106774
 C    3.128871    2.383322   -0.270358
 O    3.810071    3.609889   -0.357906
 C    3.892962    1.263196    0.447966
 C    2.784966    0.444748    1.133018
 N    2.513741   -0.840103    0.505774
 C    2.006826   -1.840015    1.310876
 O    1.697828   -1.654675    2.489610
 N    1.916144   -3.065041    0.716786
 C    1.982642   -3.343623   -0.657528
 O    1.761455   -4.463240   -1.068962
 C    2.331597   -2.185340   -1.481865
 C    2.355235   -2.371092   -2.966833
 C    2.569169   -1.015511   -0.869612
 H   -3.092455    2.479385   -0.445096
 H    0.112822   -0.879581    2.622694
 H   -5.048990   -2.173829    0.300811
 H   -2.716929   -0.509798   -1.807938
 H    0.996539    4.175394   -0.371899
 H   -0.060753    3.362719    0.805975
 H    2.253937    3.193623    1.502206
 H    2.768374    2.058216   -1.256648
 H    4.429625    3.569809   -1.094676
 H    4.537232    0.659533   -0.195212
 H    4.522552    1.729781    1.211355
 H    3.024387    0.212590    2.170952
 H    1.523159   -3.796889    1.295418
 H    3.053361   -3.165990   -3.246876
 H    1.365427   -2.669648   -3.325672
 H    2.644446   -1.447955   -3.476545
 H    2.806594   -0.124519   -1.437240
