31 
6d15_ligand_xtb.xyz
 C    4.356641   -1.257226   -0.451146
 C    2.997364   -0.712165   -0.152523
 C    2.749182    0.641150   -0.283042
 C    1.490376    1.165783   -0.009457
 C    0.111875    3.103400    0.022488
 C   -0.970498    2.256949    0.491042
 C   -0.821678    0.928749    0.700822
 C   -1.958288    0.083649    1.159274
 C    0.454446    0.323464    0.424020
 C    0.717916   -1.044653    0.546311
 C    1.959591   -1.570298    0.258176
 C    2.193574   -3.042455    0.381905
 O    1.315722    2.496936   -0.189991
 O    0.014756    4.286708   -0.193377
 O   -2.263268   -2.511088    0.095774
 O   -1.782070   -0.625264   -1.528099
 O   -4.052290   -0.794826   -0.390416
 P   -2.490167   -1.103690   -0.168526
 H    4.303584   -1.997440   -1.248233
 H    5.033373   -0.464146   -0.755825
 H    4.769057   -1.750652    0.427995
 H    3.523596    1.318749   -0.607086
 H   -1.903313    2.767898    0.676120
 H   -2.803780    0.703080    1.457774
 H   -1.669370   -0.534998    2.007624
 H   -0.072501   -1.710841    0.851457
 H    2.534194   -3.455032   -0.566448
 H    2.959852   -3.249671    1.128224
 H    1.277044   -3.549675    0.668550
 H   -1.847306    0.301524   -1.759740
 H   -4.297717    0.098737   -0.630879
