28 
6d17_ligand_xtb.xyz
 C   -1.932403   -0.526647    1.261423
 C   -1.075687    0.580675    0.768618
 C   -1.607683    1.810483    0.556867
 C   -0.842071    2.920812    0.033067
 C    1.048028    1.465464   -0.022125
 C    2.411493    1.372091   -0.338292
 C    3.004567    0.149215   -0.180923
 C    4.373555   -1.592552   -0.110993
 C    2.279259   -0.968318    0.273893
 C    0.954260   -0.891222    0.589748
 C    0.313983    0.359479    0.446326
 O   -3.654649   -0.400627   -0.871527
 O   -3.366538   -2.684286    0.198853
 O   -1.500538   -1.718905   -1.208849
 O   -1.274675    4.018520   -0.206757
 O    0.486866    2.675584   -0.213415
 O    4.287547   -0.213444   -0.417289
 O    3.110742   -2.046230    0.326172
 P   -2.685074   -1.457263   -0.156438
 H   -2.774505   -0.148773    1.839806
 H   -1.393701   -1.248154    1.868577
 H   -2.636544    2.032570    0.796839
 H    2.944098    2.238209   -0.689323
 H    5.119183   -1.746476    0.683587
 H    4.677214   -2.150116   -1.010538
 H    0.423256   -1.766492    0.919920
 H   -3.317484    0.482945   -1.027624
 H   -1.039260   -0.956537   -1.557828
