31 
6d18_ligand_xtb.xyz
 C   -4.677987   -1.516317    0.514943
 C   -3.317496   -0.976770    0.215564
 C   -2.280058   -1.839311   -0.134656
 C   -1.000978   -1.412574   -0.439472
 C   -0.007658   -2.482323   -0.779334
 C   -0.716071   -0.023306   -0.405188
 C    0.532815    0.630458   -0.742962
 C    1.752769   -0.087480   -1.203649
 C    0.636971    1.974760   -0.587196
 C   -0.437717    2.815311   -0.114224
 C   -1.764447    0.839668   -0.009880
 C   -3.040745    0.371394    0.285581
 O    3.451658   -1.933809    0.058044
 O    1.731216   -0.766174    1.505479
 O    3.722744    0.528495    0.603462
 O   -0.363332    4.003298    0.081605
 O   -1.618493    2.178686    0.125112
 P    2.736534   -0.687924    0.252071
 H   -5.068173   -2.049960   -0.350517
 H   -4.629390   -2.221594    1.343257
 H   -5.366706   -0.717446    0.773852
 H   -2.491183   -2.898313   -0.167230
 H   -0.426587   -3.453561   -0.526605
 H    0.205783   -2.493779   -1.848105
 H    0.924682   -2.375375   -0.231703
 H    2.407142    0.592146   -1.750703
 H    1.546139   -0.938071   -1.840088
 H    1.545004    2.500512   -0.843823
 H   -3.789987    1.092606    0.570262
 H    1.296062    0.042057    1.775991
 H    3.332461    1.394610    0.727580
