31 
6d1a_ligand_xtb.xyz
 C    4.354003   -1.252361    0.467184
 C    2.997414   -0.707896    0.155556
 C    2.746386    0.644829    0.286435
 C    1.487763    1.167620    0.008063
 C    0.106180    3.102889   -0.024616
 C   -0.974971    2.254046   -0.491768
 C   -0.823481    0.926479   -0.703412
 C   -1.960598    0.079880   -1.158504
 C    0.454475    0.323900   -0.429086
 C    0.722192   -1.042959   -0.555813
 C    1.963993   -1.566628   -0.264476
 C    2.202660   -3.037436   -0.395524
 O    1.310689    2.498439    0.188975
 O    0.007084    4.286302    0.189778
 O   -2.231288   -2.512239   -0.076413
 O   -4.055035   -0.825074    0.375700
 O   -1.799859   -0.602850    1.534799
 P   -2.485197   -1.106793    0.172876
 H    5.034283   -0.455924    0.754843
 H    4.295296   -1.972746    1.282120
 H    4.765430   -1.769219   -0.398637
 H    3.517914    1.323436    0.615053
 H   -1.909516    2.763019   -0.674112
 H   -1.674389   -0.538715   -2.007792
 H   -2.807567    0.698888   -1.453801
 H   -0.065085   -1.710104   -0.866707
 H    2.967543   -3.238051   -1.145173
 H    2.547363   -3.453702    0.549604
 H    1.287186   -3.546191   -0.682735
 H   -4.318560    0.062637    0.618464
 H   -1.870772    0.327758    1.748778
