31 
6d1d_ligand_dft.xyz
 C    4.747342   -1.489117   -0.619848
 C    3.380582   -0.965038   -0.267756
 C    2.371945   -1.841070    0.153673
 C    1.092432   -1.426674    0.494706
 C    0.141735   -2.513489    0.945085
 C    0.768801   -0.039475    0.412095
 C   -0.512725    0.611414    0.710385
 C   -1.777870   -0.115274    1.106993
 C   -0.623503    1.953058    0.576839
 C    0.468273    2.814065    0.160179
 C    1.801243    0.823328   -0.005871
 C    3.078952    0.379583   -0.341831
 O   -3.518668    0.741616   -0.921409
 O   -3.767259   -1.603564    0.243011
 O   -1.887696   -1.216429   -1.393561
 O    0.424702    4.011249    0.041507
 O    1.646254    2.169275   -0.121556
 P   -2.831204   -0.428378   -0.338790
 H    5.209646   -1.982135    0.242470
 H    4.686024   -2.229784   -1.424708
 H    5.412315   -0.685720   -0.947413
 H    2.605277   -2.900945    0.218781
 H    0.638238   -3.484238    0.872799
 H   -0.156961   -2.390609    1.991642
 H   -0.755549   -2.564404    0.324271
 H   -2.371818    0.523490    1.767180
 H   -1.608832   -1.049706    1.633570
 H   -1.562278    2.461517    0.764791
 H    3.809624    1.117571   -0.655884
 H   -4.565293   -1.710434   -0.294066
 H   -1.674259   -0.643970   -2.143394
