28 
6d1g_ligand_dft.xyz
 C   -4.648095   -1.330925    0.904870
 C   -3.331972   -0.735926    0.481663
 C   -2.249351   -1.568013    0.174588
 C   -1.025207   -1.051766   -0.207438
 C   -0.793541    0.343134   -0.304820
 C    0.428610    1.065759   -0.678372
 C    1.753100    0.409870   -0.978215
 C    0.407661    2.416989   -0.703640
 C   -0.761557    3.216470   -0.387371
 C   -1.911708    1.146063    0.004519
 C   -3.147358    0.629496    0.387396
 O    1.901870   -0.487652    1.716860
 O    3.318586    1.507550    0.906054
 O    3.866205   -0.815188    0.003478
 O   -0.824621    4.418224   -0.398088
 O   -1.881935    2.503052   -0.042585
 P    2.645665    0.071383    0.569103
Br    0.272283   -2.388847   -0.586517
 H   -5.012080   -2.045279    0.158967
 H   -4.541312   -1.871154    1.851863
 H   -5.410086   -0.559007    1.038856
 H   -2.366586   -2.644464    0.236195
 H    2.378096    1.095812   -1.556467
 H    1.655812   -0.513648   -1.543141
 H    1.293849    2.985805   -0.959957
 H   -3.944465    1.331551    0.607245
 H    3.050351    1.786734    1.792265
 H    4.317212   -1.282244    0.720904
