29 
6d1i_ligand_dft.xyz
 C   -3.911846   -0.663895    0.557037
 C   -1.926849   -1.881892   -0.148246
 C   -0.529424   -1.831529   -0.562722
 C    0.164411   -0.685130   -0.705047
 C    1.615032   -0.723184   -1.109112
 C   -0.500192    0.581782   -0.438574
 C    0.148710    1.822113   -0.576834
 C   -0.497198    3.011796   -0.292278
 C   -1.826046    2.980822    0.132437
 C   -2.496394    1.778014    0.268039
 C   -1.850428    0.561573   -0.013114
 N   -2.522533   -0.644207    0.122183
 O   -2.545548   -2.929205   -0.035180
 O    3.421386    1.049996   -0.275321
 O    3.821917   -1.414182    0.493458
 O    1.966827   -0.007697    1.555429
 P    2.815194   -0.371663    0.235667
 H   -4.009580   -0.224539    1.554460
 H   -4.544677   -0.115950   -0.147800
 H   -4.221144   -1.706636    0.587659
 H   -0.077507   -2.800472   -0.743723
 H    1.824311   -0.033281   -1.932574
 H    1.873120   -1.727428   -1.455320
 H    1.179268    1.854695   -0.916907
 H    0.024931    3.955780   -0.405425
 H   -2.347658    3.905691    0.358303
 H   -3.527976    1.784823    0.596062
 H    4.288486    1.203964    0.126811
 H    1.312928    0.693635    1.411562
