29 
6d1i_ligand_xtb.xyz
 C   -3.862039   -0.616246    0.547640
 C   -1.904916   -1.852618   -0.135281
 C   -0.529412   -1.824106   -0.579685
 C    0.172726   -0.684278   -0.749431
 C    1.595177   -0.718032   -1.191253
 C   -0.455642    0.575766   -0.460597
 C    0.223236    1.795055   -0.580105
 C   -0.398913    2.985016   -0.284514
 C   -1.726114    2.981725    0.132734
 C   -2.417757    1.798948    0.259488
 C   -1.801618    0.572286   -0.027452
 N   -2.480883   -0.611398    0.112747
 O   -2.542003   -2.881134    0.017856
 O    1.822212    0.047185    1.471561
 O    3.605174    0.954998   -0.151235
 O    3.548117   -1.492200    0.561083
 P    2.740654   -0.177116    0.162241
 H   -3.956904   -0.187510    1.546036
 H   -4.490679   -0.067068   -0.154220
 H   -4.178916   -1.658784    0.574135
 H   -0.095362   -2.793001   -0.776749
 H    1.769357   -0.044396   -2.029243
 H    1.878488   -1.724498   -1.497695
 H    1.252527    1.803297   -0.904252
 H    0.138135    3.915822   -0.378895
 H   -2.220816    3.913621    0.361351
 H   -3.443479    1.828647    0.585960
 H    1.758132    0.983562    1.656963
 H    3.009526   -2.145048    1.010366
