32 
6d1j_ligand_dft.xyz
 C    4.865109   -1.431012   -0.516485
 C    3.475969   -0.932073   -0.220074
 C    2.457908   -1.833854    0.119592
 C    1.159057   -1.444548    0.404550
 C    0.191640   -2.561487    0.724213
 C    0.820387   -0.056968    0.360566
 C   -0.478896    0.556144    0.654857
 C   -1.718839   -0.206465    1.079942
 C   -0.648833    1.898452    0.538567
 C    0.399102    2.821201    0.137504
 C    1.856299    0.840799    0.000558
 C    3.159623    0.406385   -0.279676
 N    1.608182    2.194122   -0.090143
 O   -4.069466   -1.185359    0.450017
 O   -3.312565    0.781151   -0.904999
 O   -2.195185   -1.510825   -1.372568
 O    0.272874    4.029784    0.007412
 P   -2.774945   -0.632757   -0.332357
 H    5.278497   -1.968064    0.344300
 H    4.856114   -2.128128   -1.361593
 H    5.544460   -0.609991   -0.761766
 H    2.699487   -2.893148    0.153925
 H   -0.686704   -2.534671    0.074540
 H    0.683735   -3.524248    0.565709
 H   -0.130436   -2.543575    1.771353
 H   -2.325458    0.430711    1.729850
 H   -1.510153   -1.116987    1.635450
 H   -1.607238    2.358098    0.754337
 H    3.915331    1.141221   -0.547307
 H    2.363281    2.811224   -0.359506
 H   -4.701945   -1.591741   -0.159260
 H   -2.808476    1.044362   -1.687257
