25 
6d1k_ligand_xtb.xyz
 C   -1.194562    1.165906    0.879562
 C    0.240858    1.217286    0.498779
 C    0.923014    2.381733    0.261006
 C    2.271009    2.364273   -0.130907
 C    2.933368    1.181633   -0.304645
 C    2.263901   -0.040084   -0.091248
 C    2.860031   -1.302433   -0.284141
 C    2.116733   -2.432488   -0.073387
 C    0.782046   -2.294514    0.338663
 C    0.907435   -0.017720    0.323391
 N    0.198696   -1.142424    0.539841
 O   -3.500571    0.698224   -0.459378
 O   -2.542862   -1.271175    0.612459
 O   -1.441678   -0.277690   -1.549789
 P   -2.072084   -0.005055   -0.263170
 H   -1.654754    2.149156    0.787548
 H   -1.314736    0.806268    1.902776
 H    0.419371    3.331531    0.369730
 H    2.778115    3.301725   -0.304721
 H    3.967113    1.163147   -0.617961
 H    3.891372   -1.359610   -0.603238
 H    2.533227   -3.416880   -0.219862
 H    0.179081   -3.178432    0.512707
 H   -4.079277    0.570218    0.292395
 H   -1.771224   -1.830752    0.720520
