48 
6d4s_ligand_dft.xyz
 C   -1.196576   -1.908992    0.920181
 N   -0.322984   -2.629902    0.114466
 C    0.823887   -3.220687    0.795932
 C    0.024740   -2.208413   -1.240709
 C    3.729027    0.433776    0.210760
 C    3.122150    1.629673   -0.287946
 C    2.082789    3.055262   -1.928683
 C    2.367037    3.906647    0.156639
 C    3.459232    2.610303    1.951406
Cl   -6.445756    1.377861   -0.902173
 C   -5.235765    0.813326    0.211791
 C   -5.276777    1.262656    1.526215
 C   -4.313597    0.815492    2.419838
 C   -3.319022   -0.069990    2.029798
 C   -3.264953   -0.524649    0.708170
 C   -4.238473   -0.069281   -0.202292
Cl   -4.182709   -0.617317   -1.860201
 N   -2.285217   -1.400334    0.234510
 O   -1.028975   -1.785576    2.122748
 C    1.996744   -2.246217    0.850352
 N    2.315623   -1.814331   -0.516433
 C    1.183875   -1.211831   -1.222148
 S    3.811615   -1.095359   -0.727152
 O    4.770540   -1.953048   -0.054453
 O    3.934282   -0.794165   -2.143043
 C    2.656875    1.852055   -1.611235
 N    1.920839    4.087073   -1.060217
 C    2.985410    2.714372    0.621296
 C    4.064103    1.461363    2.383942
 C    4.190621    0.364924    1.504886
 H    1.116578   -4.119794    0.243694
 H    0.527044   -3.499007    1.806118
 H   -0.823458   -1.748663   -1.749483
 H    0.314758   -3.097571   -1.809887
 H    1.725132    3.237385   -2.938465
 H    2.250092    4.738300    0.851914
 H    3.339453    3.460128    2.618030
 H   -6.057053    1.949632    1.831794
 H   -4.340455    1.158200    3.449068
 H   -2.580459   -0.428765    2.731646
 H   -2.458231   -1.772778   -0.685960
 H    2.874979   -2.740508    1.268273
 H    1.725561   -1.388928    1.485496
 H    0.853392   -0.281500   -0.731973
 H    1.491265   -0.984938   -2.244092
 H    2.780043    1.091883   -2.370626
 H    4.441558    1.378721    3.397454
 H    4.665302   -0.549269    1.844339
