68 
6d55_ligand_xtb.xyz
 N    4.241570    0.758272    0.804620
 N   -1.009535    0.867294   -0.392205
 C    2.622165    2.383329    1.839949
 C    3.521679   -0.369506    0.308116
 C    4.239796   -1.522158    0.019446
 C    3.624995   -2.630822   -0.551342
 C    2.283305   -2.654562   -0.901391
 C    2.158526   -0.388622    0.004982
 C   -2.161899    2.567400   -0.857029
 C   -3.563553    2.649021   -0.227291
 C   -0.805930   -1.980733   -1.375629
 C   -2.965402   -1.795122    1.739216
 C   -2.828837   -1.763950    3.228486
 C   -4.219790   -1.706841    1.148954
 C   -5.797713   -1.610158   -0.793270
 N    2.856634    3.352851    0.752932
 C    1.549698    4.050221    0.444715
 C    3.314980    2.672691   -0.469874
 C    0.123700    0.145466   -0.401044
 C   -1.063837    2.219325    0.167437
 C   -1.847982    3.768798   -1.732968
 C   -1.893110    1.191413   -1.503036
 C   -2.021012   -1.918265   -0.481458
 C   -1.869326   -1.903621    0.897718
 C    4.519450    1.767793   -0.199994
 C   -4.419435   -1.735622   -0.224441
 C   -3.293768   -1.846608   -1.029049
 C    3.780261    1.394902    2.023315
 C    1.561327   -1.511011   -0.619744
 F   -5.302471   -1.590194    1.954421
 N    1.227771    0.597648    0.135236
 N   -4.673304    2.711078   -1.159949
 N    0.255791   -1.143169   -0.879432
Cl    4.585266   -4.038884   -0.868608
 H    1.715037    1.847049    1.554974
 H    2.447018    2.936714    2.764267
 H    5.295941   -1.545382    0.233672
 H    1.850971   -3.520435   -1.377097
 H   -3.614826    3.533849    0.412082
 H   -3.714245    1.765239    0.400719
 H   -1.079411   -1.681275   -2.395330
 H   -0.424763   -3.006186   -1.415827
 H   -3.286329   -0.860063    3.628307
 H   -3.345311   -2.614851    3.671644
 H   -1.783073   -1.792342    3.520679
 H   -6.485632   -2.273905   -0.273046
 H   -6.161100   -0.590694   -0.659881
 H   -5.803242   -1.848786   -1.853494
 H    3.616847    3.985094    1.055444
 H    1.803234    4.809245   -0.322075
 H   -0.816131    3.725175   -2.070512
 H    1.311161    4.631261    1.356575
 H    3.557408    3.431355   -1.217126
 H    2.464072    2.086929   -0.818593
 H   -0.111569    2.817092    0.102683
 H   -1.389525    2.202424    1.208871
 H   -2.499482    3.802853   -2.605535
 H   -1.973550    4.684804   -1.160888
 H   -2.753440    0.521252   -1.578126
 H   -1.381043    1.242103   -2.469548
 H   -0.881053   -1.965262    1.329042
 H    4.820778    1.273220   -1.125028
 H    5.365563    2.367604    0.160951
 H   -3.418197   -1.875437   -2.102819
 H    4.651565    1.913758    2.447027
 H    3.473149    0.620527    2.727437
 H   -4.634942    3.570139   -1.697238
 H   -4.625384    1.935329   -1.812713
