68 
6d55_ligand_dft.xyz
 N    2.715874   -2.696363    0.146837
 N    0.872239    1.865864   -2.111921
 C    2.885961   -1.161071    2.089628
 C    1.408458   -2.579161   -0.408112
 C    0.491531   -3.602571   -0.150240
 C   -0.857341   -3.459300   -0.478614
 C   -1.371436   -2.306844   -1.061060
 C    0.939946   -1.452274   -1.094063
 C    1.611542    3.041081   -0.446048
 C    1.759898    2.177838    0.809166
 C   -1.864688    0.600336   -2.095160
 C   -2.963123    1.074272    1.539439
 C   -2.367667    1.216831    2.913697
 C   -4.337824    1.128391    1.346597
 C   -6.451064    1.070453   -0.009701
 N    4.148304   -0.558490    1.550135
 C    4.346217    0.847818    2.029446
 C    4.124502   -0.608933    0.049697
 C    0.663040    0.552056   -1.794184
 C    2.213447    2.385554   -1.718650
 C    2.073570    4.477042   -0.186888
 C    0.254017    2.912407   -1.220002
 C   -2.733083    0.764713   -0.860230
 C   -2.170678    0.880778    0.409693
 C    3.851496   -2.025801   -0.465510
 C   -4.952149    1.006680    0.104763
 C   -4.118888    0.821257   -0.997243
 C    2.771184   -2.604259    1.596325
 C   -0.437960   -1.321838   -1.349662
 F   -5.127256    1.305947    2.427190
 N    1.602447   -0.297397   -1.433072
 N    3.463612    4.588395    0.259168
 N   -0.592208   -0.026251   -1.814449
Cl   -1.953884   -4.774988   -0.101256
 H    2.070609   -0.527906    1.728841
 H    2.936279   -1.103850    3.180411
 H    0.833056   -4.509664    0.336714
 H   -2.433697   -2.180370   -1.232804
 H    1.181683    2.669864    1.615744
 H    1.246728    1.211175    0.639611
 H   -1.652799    1.567151   -2.561627
 H   -2.391270   -0.004488   -2.843032
 H   -2.774184    2.090931    3.431239
 H   -2.590668    0.341075    3.533477
 H   -1.282058    1.329868    2.847937
 H   -6.926490    0.281744    0.582620
 H   -6.834838    2.026483    0.361351
 H   -6.766849    0.955360   -1.049953
 H    4.921805   -1.144110    1.878106
 H    5.309664    1.194338    1.646595
 H    3.470216    1.471927    1.608061
 H    4.360107    0.831451    3.122264
 H    5.092662   -0.240560   -0.300934
 H    3.325783    0.069722   -0.254975
 H    2.539895    3.109360   -2.476667
 H    2.972968    1.615805   -1.591169
 H    1.432868    4.918081    0.588509
 H    1.948668    5.093923   -1.088967
 H   -0.613202    2.588172   -0.643936
 H   -0.015483    3.778266   -1.839339
 H   -1.091803    0.831784    0.539404
 H    3.697483   -1.956893   -1.543429
 H    4.738863   -2.655891   -0.295647
 H   -4.569172    0.719426   -1.982971
 H    3.635121   -3.183371    1.960729
 H    1.876727   -3.054448    2.029262
 H    3.564205    3.856262    0.964908
 H    4.063122    4.287611   -0.509091
