62 
6d56_ligand_dft.xyz
 N    1.210742    0.559551   -1.426140
 N    2.158581    1.960608    2.109892
 C   -1.683420   -1.393346   -2.296373
 C    0.034343    0.404663   -1.951823
 C    1.624774   -0.695664   -1.056265
 C    2.510217   -0.975345    0.006376
 C    2.661615   -2.320401    0.321528
 C    0.879504   -3.006478   -1.238728
 C    3.761598    1.227835    0.812016
 C    1.827248    0.710366    1.732148
 C   -0.473434    2.815248   -2.290417
 C    1.375297    3.122018   -0.489755
 C   -1.030045    1.880372   -0.513121
 C   -2.147973   -1.694805    0.168948
 C   -2.421864   -1.938124    2.682592
 N   -0.313193   -0.919551   -2.126726
 C   -5.490731    1.013550    0.023306
 C   -4.319388    0.068811    0.043211
 C    0.722477   -1.651335   -1.539494
 C    2.820212    0.182614    0.888062
 C    5.030300    1.270877    0.017821
 C    0.571305    0.049342    2.210554
 C   -0.127205    3.090606   -0.809463
 C   -0.244098    4.309693    0.139836
 C   -3.597845   -0.260885   -1.104131
 C   -2.825739   -1.381550    1.344980
 C   -3.898910   -0.503130    1.238056
 C   -2.514716   -1.134348   -1.055740
 C    1.898457   -3.300784   -0.342180
 F   -4.568607   -0.179012    2.363798
 N    3.360392    2.279457    1.540499
 N   -0.948552    1.430283   -1.954258
 N    1.101276    3.952981    0.726077
Cl    2.150302   -4.982138    0.094913
 H   -1.629571   -2.460006   -2.532106
 H   -2.118251   -0.884853   -3.159280
 H    3.301370   -2.616343    1.145551
 H    0.225868   -3.784237   -1.617637
 H    0.372106    2.850958   -2.983137
 H   -1.311461    3.392828   -2.692185
 H    1.912827    3.716450   -1.233741
 H    1.902390    2.206727   -0.278112
 H   -2.055581    2.199450   -0.292525
 H   -0.711125    1.139531    0.219394
 H   -1.298667   -2.371211    0.223832
 H   -3.243167   -2.493411    3.147055
 H   -1.564709   -2.607935    2.578765
 H   -2.142031   -1.134394    3.371612
 H   -5.658556    1.402134   -0.984660
 H   -6.407220    0.513648    0.353797
 H   -5.329221    1.861302    0.697472
 H    5.773556    0.559041    0.395742
 H    4.848220    1.021327   -1.034838
 H    5.463779    2.273732    0.069788
 H   -0.151533    0.795037    2.561041
 H    0.101189   -0.549511    1.420950
 H    0.769306   -0.631020    3.047846
 H   -1.053834    4.296932    0.872203
 H   -0.181663    5.287817   -0.343112
 H   -3.870337    0.202223   -2.049044
 H    1.761085    4.706832    0.913605
 H    1.220961    3.232316    1.556942
