62 
6d56_ligand_xtb.xyz
 N    0.996059    0.980883   -0.107978
 N    4.536119    2.634324    2.045392
 C   -1.156481   -1.557071   -1.534035
 C   -0.135930    0.548535   -0.612910
 C    1.888657   -0.036515   -0.268301
 C    3.252688   -0.106357    0.073856
 C    3.911694   -1.296871   -0.262028
 C    1.913145   -2.288976   -1.239549
 C    5.290543    1.406566    0.444043
 C    3.520597    1.848261    1.744222
 C   -2.275272    1.446207   -1.611161
 C   -2.267221    3.959766   -2.087825
 C   -1.310132    2.642544   -0.135312
 C   -1.870956   -1.665186    0.871292
 C   -2.472658   -1.739212    3.320037
 N   -0.053753   -0.722008   -1.130689
 C   -6.018244   -1.607841   -0.208259
 C   -4.564425   -1.631989    0.143709
 C    1.248652   -1.125560   -0.911957
 C    3.957461    0.968009    0.709216
 C    6.252478    0.946579   -0.589593
 C    2.259620    1.828431    2.523666
 C   -2.499027    2.888801   -1.125841
 C   -3.831511    3.050761   -0.371647
 C   -3.568165   -1.610905   -0.821323
 C   -2.833693   -1.686402    1.869452
 C   -4.164524   -1.663650    1.473342
 C   -2.226060   -1.617269   -0.468884
 C    3.258850   -2.340185   -0.892206
 F   -5.123505   -1.667735    2.430776
 N    5.517493    2.457801    1.207167
 N   -1.286423    1.255969   -0.553514
 N   -4.922191    2.819156   -1.299788
Cl    4.147149   -3.779474   -1.270340
 H   -0.756671   -2.560108   -1.712351
 H   -1.584985   -1.193557   -2.474578
 H    4.952100   -1.408134   -0.004811
 H    1.438697   -3.118546   -1.738964
 H   -1.852729    1.382929   -2.617010
 H   -3.145546    0.796800   -1.522231
 H   -1.956118    3.753556   -3.092895
 H   -2.278092    4.980200   -1.753823
 H   -1.557966    2.769639    0.918338
 H   -0.386027    3.179729   -0.364410
 H   -0.828066   -1.678779    1.151959
 H   -2.714670   -2.720021    3.729256
 H   -1.411491   -1.554270    3.460019
 H   -3.043190   -1.001501    3.881365
 H   -6.155149   -1.547082   -1.284015
 H   -6.510187   -2.506062    0.162974
 H   -6.503704   -0.752767    0.260039
 H    6.884061    0.145719   -0.202525
 H    5.722199    0.575123   -1.464606
 H    6.895342    1.774574   -0.878739
 H    2.246771    2.670551    3.210084
 H    1.407238    1.879949    1.849436
 H    2.189058    0.904817    3.099707
 H   -3.844519    4.046552    0.100886
 H   -3.894767    2.292638    0.413435
 H   -3.850397   -1.590062   -1.864383
 H   -5.815103    2.874732   -0.823930
 H   -4.907711    3.518349   -2.035588
