63 
6d5g_ligand_xtb.xyz
 N   -0.055670   -1.101742   -0.482956
 N   -3.472886    2.858917   -0.890834
 C   -2.370559   -1.688064   -0.020374
 C   -1.043941   -2.149023   -0.554659
 C   -0.236573    0.258234   -0.489023
 C   -1.893862    1.277436   -1.876396
 C   -3.351077    1.724434   -1.844703
 C   -1.589688    1.985022    0.385417
 C    3.935093    1.451336   -0.250560
 C    3.642783    3.920456   -0.084317
 C    5.437769    1.578610   -0.316909
 C    2.048102   -2.458786   -0.403991
 C    1.312066   -1.284039   -0.412642
 C   -2.468955   -1.276603    1.307274
 C   -3.751890   -0.280558    3.231024
 C    3.184661    2.654228   -0.120051
 N    6.026372    0.528064    1.825676
 C    6.074699    1.769356    1.066136
 C    3.305884    0.202778   -0.293239
 C    4.030431   -1.029996   -0.283780
 C    3.424473   -2.257809   -0.336638
Cl    4.435241   -3.677656   -0.310532
 C    1.886174    0.003011   -0.364833
 N    0.879235    0.927049   -0.419521
 N   -1.509963    0.869281   -0.537244
 C   -3.038384    2.444117    0.470640
 C   -3.483520   -1.626389   -0.838401
 C   -4.698826   -1.112767   -0.376127
 C   -5.919932   -1.068220   -1.246235
 C   -4.735439   -0.662634    0.943864
 F   -5.889270   -0.068476    1.382315
 C   -3.656952   -0.742287    1.808405
 H   -4.434590    3.211046   -0.870272
 H   -2.843767    3.609656   -1.206067
 H   -0.671635   -2.990347    0.040165
 H   -1.151678   -2.492228   -1.593294
 H   -1.250471    2.086856   -2.265162
 H   -1.791786    0.418035   -2.539403
 H   -3.691768    2.040389   -2.831512
 H   -3.966172    0.899639   -1.476678
 H   -0.932566    2.816936    0.082879
 H   -1.252832    1.638212    1.361722
 H    2.962770    4.750402    0.033904
 H    4.682271    4.185729   -0.172798
 H    5.687834    2.450080   -0.926765
 H    5.892700    0.710516   -0.791104
 H    1.610994   -3.441460   -0.448158
 H   -1.608370   -1.345961    1.953029
 H   -2.864234    0.283849    3.510701
 H   -4.634055    0.335175    3.389314
 H   -3.819383   -1.142538    3.894209
 H    2.117506    2.516926   -0.028611
 H    5.067447    0.195004    1.851492
 H    6.325404    0.689181    2.782561
 H    5.561618    2.602218    1.575598
 H    7.131268    2.041454    0.954441
 H    5.103891   -1.006053   -0.205632
 H   -3.663862    1.608750    0.792405
 H   -3.148623    3.281871    1.159749
 H   -3.423067   -1.970900   -1.860699
 H   -6.556226   -0.221352   -0.992702
 H   -5.647088   -1.014061   -2.298597
 H   -6.512021   -1.972647   -1.101646
