36 
6d6t_ligand_dft.xyz
 C    4.888618    1.817924   -1.000516
 C    4.815883    0.389315   -0.503592
 C    3.162789   -1.180641    0.111347
 C    1.708067   -1.403732    0.228063
 C    0.675283   -0.594547   -0.188283
 C    0.540799    0.743065   -0.829012
 C   -1.234308    1.665240    0.619770
 C   -2.143617    0.557953    0.122363
 C   -1.795042   -0.793115   -0.041864
 C   -0.077107   -2.413781    0.803156
 C   -2.758663   -1.728800   -0.421539
 C   -4.075510   -1.345889   -0.624734
 C   -4.410809   -0.011226   -0.450064
 C   -3.473180    0.932695   -0.076268
 C    0.996173    2.643000    0.707013
 F   -5.677567    0.371067   -0.646975
 N    0.036433    1.717548    0.130184
 N   -0.471832   -1.249856    0.188221
 N    1.218431   -2.536597    0.837644
 O    3.428100    0.062204   -0.354435
 O    4.019229   -1.978243    0.397496
 O   -1.678887    2.485585    1.409245
 H    4.384047    1.921501   -1.966143
 H    4.419650    2.502321   -0.286845
 H    5.933852    2.115946   -1.126126
 H    5.315667    0.266258    0.461667
 H    5.274467   -0.312513   -1.206741
 H   -0.136029    0.686414   -1.689806
 H    1.511486    1.080820   -1.185849
 H   -0.793213   -3.106337    1.223519
 H   -2.465961   -2.762596   -0.572130
 H   -4.832988   -2.061427   -0.923191
 H   -3.767423    1.962333    0.089694
 H    1.359673    3.340892   -0.055413
 H    0.502153    3.201503    1.500571
 H    1.847709    2.086468    1.113738
