60 
6d8e_ligand_xtb.xyz
 C    3.241380    2.501811   -0.159606
 C   -7.276504   -0.384407   -0.838018
 C    0.865641    2.974458    0.237403
 C   -0.769490    1.389687    0.255318
 C   -5.204005   -0.573191    0.964947
 C   -1.734488    2.368542    0.491238
 C   -1.253535    3.664707    0.600368
 C   -2.070266   -0.699802    0.625326
 C   -4.041123   -0.652686    1.918761
 C   -6.138399    0.448716    1.077618
 C   -7.184923    0.548626    0.178705
 N    5.283113    1.992670   -0.451999
 N    4.470458    3.006807   -0.144700
 C    3.265872    1.133975   -0.484530
 N    2.164701    3.321115    0.114993
 C    6.699513    2.196676   -0.530702
 C   -6.354754   -1.405827   -0.979414
 C   -5.316389   -1.494691   -0.070392
 C   -0.000360   -0.723112   -0.549152
 C    0.125800   -0.655152   -1.927909
 C    1.161563   -1.335182   -2.544583
 C    4.599401    0.851455   -0.662932
 C    2.074064   -2.063116   -1.803124
 C    1.944724   -2.125528   -0.419092
 C    0.886683   -1.468479    0.204894
 C    4.172176   -3.068678    0.119208
 C    4.898944   -3.680347    1.305520
 C    5.283210   -2.584594    2.300948
 F   -8.295568   -0.294088   -1.717229
 N    0.513711    1.695477    0.117277
 N    0.020398    3.984457    0.486948
 N   -1.035605    0.028003    0.102410
 N    2.858687   -2.811967    0.386691
 O   -2.187716   -1.885685    0.437895
 O   -2.903999    0.033473    1.381536
 O    4.719801   -2.813537   -0.928785
 H   -2.780832    2.144813    0.576416
 H   -1.926294    4.492684    0.784051
 H   -3.767368   -1.695816    2.106516
 H   -4.263081   -0.142018    2.857919
 H   -6.049335    1.171035    1.875454
 H   -7.920695    1.333337    0.255622
 H    2.427359    0.484425   -0.576860
 H    2.376349    4.299174    0.253683
 H    7.068627    1.953780   -1.528982
 H    6.895620    3.245090   -0.317083
 H    7.221137    1.574389    0.199536
 H   -6.456171   -2.113281   -1.786947
 H   -4.580105   -2.278251   -0.166051
 H   -0.573650   -0.067722   -2.501896
 H    1.265740   -1.290441   -3.617665
 H    5.085484   -0.066839   -0.925591
 H    2.895367   -2.565881   -2.284288
 H    0.773173   -1.508164    1.278458
 H    5.801077   -4.166826    0.933941
 H    4.268946   -4.428967    1.789344
 H    5.920437   -1.848085    1.817386
 H    4.402678   -2.072689    2.684372
 H    5.825779   -3.012620    3.140517
 H    2.548532   -2.967451    1.335886
