26 
6d9x_ligand_dft.xyz
 C   -9.638773   24.337702    1.728726
 C   -9.146837   26.564531    0.965689
 C   -8.910139   25.517770    1.853182
 C  -10.594045   24.202747    0.728088
 C  -10.102002   26.431086   -0.034978
 N  -12.589621   23.919330   -1.328643
 C  -11.853936   25.086407   -1.219432
 N  -13.183522   25.331766   -2.929961
 C  -13.369930   24.115492   -2.359655
 C  -12.219848   25.981158   -2.204974
 C  -10.838505   25.248537   -0.168245
 C  -14.088089   25.620055   -4.025987
 C  -14.467024   23.374610   -3.059678
 C  -14.635582   24.208675   -4.356093
 H   -9.462182   23.514963    2.415877
 H   -8.585473   27.490511    1.052829
 H   -8.163824   25.621948    2.635275
 H  -11.165948   23.286788    0.623982
 H  -10.274891   27.258898   -0.717631
 H  -11.876686   26.973203   -2.453624
 H  -13.561275   26.076885   -4.867802
 H  -15.381016   23.379307   -2.454101
 H  -15.670150   24.247525   -4.703660
 H  -14.877642   26.305338   -3.696022
 H  -14.210706   22.332306   -3.262177
 H  -14.030353   23.768462   -5.153984
