57 
6dar_ligand_xtb.xyz
 O    2.086794   -0.248682    2.662777
 C    2.219611   -0.082672    1.462777
 C    2.321268    1.295781    0.886877
 C    3.375212    2.132104    1.218272
 C    3.386865    3.434677    0.743002
 C    2.352248    3.904075   -0.038953
 C    1.277405    3.071466   -0.359273
 O    0.297860    3.622532   -1.126639
 C   -0.768935    2.798087   -1.538802
 C    1.267591    1.762712    0.105002
 N    2.219020   -1.112342    0.582250
 C    2.570928   -1.006159   -0.817783
 C    3.973365   -1.516557   -1.082218
 C    5.142476   -0.653315   -0.713377
 C    4.800883   -0.874158   -2.154289
 C    1.828186   -2.428604    1.048751
 C    0.477725   -2.805111    0.492804
 C    0.230824   -4.073442   -0.014474
 C   -1.019707   -4.388048   -0.521563
 C   -2.025982   -3.441877   -0.544780
 C   -1.792471   -2.161334   -0.043907
 C   -2.825476   -1.139791   -0.050770
 C   -4.193378   -1.297428   -0.139038
 N   -4.706974   -0.041684   -0.062170
 C   -5.990827    0.598217   -0.097469
 C   -5.656704    2.021849    0.394989
 C   -4.152773    2.219309    0.111743
 C   -3.664572    0.814933    0.053413
 N   -2.517521    0.197011    0.065499
 C   -0.538672   -1.862424    0.479141
 H    4.172849    1.765099    1.845961
 H    4.208878    4.089901    0.990158
 H    2.344977    4.916969   -0.409711
 H   -0.418341    1.992965   -2.192987
 H   -1.303072    2.358437   -0.692098
 H   -1.438780    3.449055   -2.098914
 H    0.442725    1.102590   -0.114830
 H    2.512387    0.038373   -1.124895
 H    1.843804   -1.583978   -1.400466
 H    4.092028   -2.584960   -0.951413
 H    6.026562   -1.125791   -0.313677
 H    4.935670    0.316492   -0.287457
 H    4.368683   -0.052415   -2.704886
 H    5.446837   -1.501561   -2.749312
 H    1.780304   -2.369274    2.141166
 H    2.581773   -3.170593    0.770587
 H    1.014493   -4.817794   -0.009799
 H   -1.205271   -5.378884   -0.910713
 H   -2.991332   -3.690051   -0.959724
 H   -4.805552   -2.171508   -0.216434
 H   -6.711995    0.089884    0.546974
 H   -6.382758    0.605306   -1.121921
 H   -5.834731    2.083912    1.468845
 H   -6.271319    2.772673   -0.096930
 H   -3.655874    2.803480    0.884103
 H   -3.989230    2.714520   -0.848908
 H   -0.373157   -0.878295    0.888686
