18 
6dcy_ligand_dft.xyz
 O   -1.721635   -2.145702    0.001854
 C   -1.812923   -0.820964   -0.000720
 O   -2.884377   -0.259422   -0.003635
 C   -0.505046   -0.074760    0.000169
 C    0.749783   -0.787534    0.000408
 O    0.885744   -2.027099    0.001388
 C    1.962107    0.021946   -0.000774
 O    3.126321   -0.636854   -0.001875
 C    1.864929    1.363033   -0.000249
 O    0.657409    1.980774    0.001105
 C   -0.491118    1.300259    0.001042
 C   -1.667129    2.219694    0.001239
 H   -0.772747   -2.420181    0.003235
 H    2.878643   -1.582243   -0.001071
 H    2.690224    2.060383   -0.000567
 H   -2.287939    2.043864   -0.879898
 H   -2.305513    2.022334    0.864752
 H   -1.313985    3.252220    0.016162
