15 
6dcz_ligand_dft.xyz
 O    2.414108   -1.253277    0.000890
 C    2.032093    0.027882   -0.000131
 O    2.818866    0.935083   -0.001192
 C    0.551885    0.268978    0.000211
 O    0.243508    1.592322    0.000393
 C   -1.030995    1.978967    0.000396
 C   -2.089645    1.137752    0.000113
 C   -1.858254   -0.283452   -0.000168
 O   -2.686406   -1.194282   -0.000506
 C   -0.434254   -0.655918   -0.000011
 O   -0.209800   -1.979035   -0.000062
 H    1.654389   -1.861638    0.000910
 H   -1.109898    3.059107    0.000592
 H   -3.100092    1.526161    0.000107
 H   -1.111592   -2.375368   -0.000258
