25 
6dd0_ligand_dft.xyz
 C    0.700767    2.824367    0.104138
 C   -0.466239    2.079926    0.552312
 C   -0.473398    0.738877    0.709310
 C   -1.752289    0.056166    1.117295
 C    0.743881   -0.003735    0.409091
 C    0.925682   -1.394317    0.509654
 C    2.104788   -2.031291    0.190575
 C    3.164204   -1.245725   -0.250597
 C    3.072386    0.125116   -0.369880
 C    1.861116    0.726251   -0.037752
 F   -0.076218   -2.162578    0.953363
 F    4.312189   -1.847481   -0.564001
 O    0.764732    4.014926   -0.047942
 O   -3.843254   -1.333330    0.360475
 O   -3.318923    0.782311   -0.953178
 O   -1.855363   -1.305253   -1.362930
 O    1.826293    2.072504   -0.173744
 P   -2.628478   -0.554187   -0.352413
 H   -1.348076    2.678828    0.747742
 H   -2.416115    0.766024    1.618116
 H   -1.582504   -0.786757    1.785546
 H    2.195625   -3.105982    0.279219
 H    3.906538    0.723973   -0.711903
 H   -4.312904   -1.903689   -0.264336
 H   -3.012397    0.927869   -1.858769
