27 
6det_ligand_xtb.xyz
 N    0.709660   -1.150320    0.370626
 C    1.504796   -0.164443   -0.365645
 C    2.993780   -0.347705   -0.049175
 O    3.770946    0.398745   -0.818473
 C    1.105094    1.279110   -0.026890
 C   -0.363075    1.581974   -0.336289
 C   -1.293471    1.229707    0.837259
 N   -2.609278    0.805168    0.397069
 C   -2.872860   -0.404313   -0.093742
 N   -4.123942   -0.676119   -0.491639
 N   -1.930646   -1.323508   -0.186927
 O    3.383431   -1.087654    0.811503
 H   -2.183265   -2.240596   -0.515137
 H    0.949525   -1.077744    1.359138
 H    1.015700   -2.080866    0.092957
 H    1.360193   -0.333667   -1.437956
 H    4.710589    0.277814   -0.601351
 H    1.743393    1.932904   -0.620421
 H    1.309746    1.480136    1.026202
 H   -0.466752    2.640499   -0.572100
 H   -0.664515    1.019786   -1.221141
 H   -1.428294    2.096472    1.483892
 H   -0.860764    0.429539    1.438232
 H   -3.334647    1.503785    0.356422
 H   -4.372140   -1.590743   -0.827385
 H   -4.868003   -0.009553   -0.380020
 H   -0.911924   -1.169012    0.057419
