51 
6df4_ligand_xtb.xyz
 C   12.862584   17.771590    5.016808
 C   13.115284   20.088256    5.698455
 C   14.976735   18.543808    5.914118
 C   15.844295   19.443493    6.451991
 C   15.336896   20.762921    6.656039
 C   15.846309   21.954702    7.220290
 C   14.844119   22.886938    7.154207
 C   14.019280   21.035779    6.275708
 C   12.277140   16.908815    6.143222
 C   20.087860   15.275119    6.394282
 C   19.845309   18.342768    7.406652
 C   19.582564   19.553122    6.789256
 C   11.657946   14.523216    5.783314
 N   13.695262   18.833130    5.545459
 C   11.433906   15.808177    5.585009
 O   18.622883   16.032875    9.584464
 C   17.221315   19.067155    6.787894
 N   19.789345   15.279449    7.807589
 O   11.958579   20.311135    5.362536
 C   19.312660   14.130658    5.723946
 C   20.052019   14.000012    8.437117
 C   18.794084   17.485278    7.714967
 C   18.284501   19.911484    6.474939
 N   13.747331   22.333457    6.582895
 C   19.283593   12.901444    7.698261
 C   19.040413   16.207897    8.454894
 O   19.605838   12.892315    6.323340
 C   17.491306   17.854947    7.417555
 H   12.050854   18.249697    4.462633
 H   13.453302   17.153149    4.335876
 H   15.286270   17.528290    5.714506
 H   16.820789   22.101492    7.640241
 H   14.845882   23.909006    7.480103
 H   13.085587   16.494690    6.749945
 H   11.663195   17.551998    6.779430
 H   21.162836   15.106318    6.261491
 H   19.811647   16.227757    5.943190
 H   20.857805   18.064935    7.660247
 H   20.397328   20.220126    6.548329
 H   12.482422   14.177063    6.385790
 H   11.024202   13.761083    5.363561
 H   10.598925   16.132515    4.978329
 H   19.594010   14.037793    4.673886
 H   18.232718   14.337973    5.795231
 H   19.732219   14.063413    9.477857
 H   21.126936   13.797045    8.386523
 H   18.088885   20.844854    5.969680
 H   12.860085   22.777057    6.410971
 H   18.202755   13.063500    7.828366
 H   19.550195   11.915362    8.080204
 H   16.679794   17.199945    7.698402
