57 
6df7_ligand_dft.xyz
 C   11.395514  -30.637568   89.508714
 C   13.410555  -29.270894   89.512275
 N    9.698372  -29.729089   87.873848
 C   12.912515  -28.378629   88.567482
 C   10.902550  -29.762809   88.545455
 C   11.499243  -31.048695   92.650255
 N   14.843532  -25.623095   85.125184
 C   13.506056  -27.376027   85.495902
 C   13.713051  -27.215782   88.130310
 C    8.613768  -30.672568   88.010897
 C   12.668097  -30.363816   89.996407
 C   14.748025  -25.768787   86.479511
 C   11.618619  -28.643290   88.078273
 O   16.180927  -24.019932   87.198795
 N   15.142484  -25.364349   88.755022
 C   17.895613  -24.395575   91.194501
 C   18.245651  -24.876837   92.383888
 C   13.662462  -32.034835   94.188545
 C   13.919647  -26.852749   86.753089
 C   15.805987  -24.633565   89.831013
 O   12.573549  -31.375571   94.807968
 C   14.344281  -26.447954   89.059273
 C   14.091369  -26.594430   84.527609
 C   15.427712  -24.961064   87.448044
 N   12.583779  -31.784818   92.005833
 C   13.217128  -32.738678   92.911724
 C    9.748175  -28.621431   87.071166
 C   17.208073  -25.184216   90.118192
 C   13.345423  -31.282936   90.971583
 C   12.002079  -30.416314   93.948423
 O   14.513203  -31.607168   90.809403
 N   10.858316  -27.943750   87.157085
 H   10.832764  -31.499943   89.853816
 H   14.425461  -29.148086   89.876572
 H   11.118563  -30.274125   91.984391
 H   10.683797  -31.748042   92.874386
 H   15.393724  -24.907375   84.678388
 H   12.835593  -28.204600   85.328868
 H    8.942645  -31.679023   87.734315
 H    8.244715  -30.687463   89.041346
 H    7.797758  -30.374714   87.349746
 H   18.097529  -23.349687   90.961213
 H   18.735929  -24.257353   93.129181
 H   18.063329  -25.915172   92.653411
 H   14.046624  -32.752625   94.917595
 H   14.458677  -31.312984   93.946574
 H   15.870023  -23.587977   89.522678
 H   15.179115  -24.693998   90.725345
 H   14.232141  -26.641948   90.120391
 H   14.022100  -26.656739   83.451308
 H   12.481658  -33.513993   93.159050
 H   14.065796  -33.191125   92.399053
 H    8.911073  -28.362828   86.433590
 H   17.134933  -26.240108   90.405814
 H   17.782822  -25.130547   89.186008
 H   12.740755  -29.634259   93.702630
 H   11.174724  -29.956066   94.495659
