57 
6dgq_ligand_dft.xyz
 C    0.506991   -1.165440   -0.819048
 C    3.981573   -1.973199    0.519805
 C    5.208824   -2.467351   -0.246318
 C    6.881348   -1.281778    1.339062
 C    9.847890    1.611506   -1.390693
 C   -3.439117    0.863399    0.463010
 C   -2.434162   -0.093453    0.315244
 C   -2.612853   -1.147388   -0.580066
 C   -3.801897   -1.227124   -1.315171
 C   -4.787191   -0.270330   -1.152685
 C   -4.621218    0.796989   -0.263333
 C   -5.696633    1.857848   -0.112368
 C   -7.075439    1.312181    0.103161
 C   -8.118121    1.308100   -0.746510
 C   -9.189543    0.178246    1.010656
 C   -0.471450   -2.133414   -0.146574
 C    2.708611   -2.121480   -0.302469
 C    6.468239   -2.572691    0.618551
 C    7.117306   -0.117655    0.378721
 C    9.393834    2.881712   -0.686966
 N   -9.264011    0.703066   -0.263288
 N    1.783226   -1.133189   -0.134317
 O   -8.240873    1.795114   -1.999782
 O  -10.075240   -0.382661    1.608119
 O   -1.723019   -2.149322   -0.805404
 O    2.515558   -3.066388   -1.051583
 S   -7.525769    0.486965    1.604710
 S    7.670586    2.855039   -0.068475
 S    7.673542    1.343839    1.335387
 H    0.098063   -0.151718   -0.843059
 H    0.668008   -1.491352   -1.849768
 H    4.110672   -0.933674    0.845586
 H    3.851516   -2.574268    1.430607
 H    5.388391   -1.806456   -1.103476
 H    4.972086   -3.448783   -0.667286
 H    7.798200   -1.475173    1.909071
 H    6.116695   -0.997848    2.072850
 H    9.881528    0.772203   -0.688853
 H    9.176408    1.352652   -2.215091
 H   10.857345    1.746902   -1.794162
 H   -3.286174    1.677150    1.168093
 H   -1.531868   -0.003087    0.909233
 H   -3.929961   -2.058082   -2.000819
 H   -5.713141   -0.359054   -1.716333
 H   -5.703653    2.500189   -1.006342
 H   -5.431535    2.529314    0.713637
 H   -0.586435   -1.903415    0.920645
 H   -0.080058   -3.148056   -0.236255
 H    7.299253   -2.912532   -0.012537
 H    6.317765   -3.352796    1.376136
 H    6.199864    0.156114   -0.149444
 H    7.873568   -0.380029   -0.367428
 H    9.398947    3.735028   -1.374995
 H   10.056499    3.127432    0.147378
 H  -10.119261    0.640320   -0.796105
 H    1.973451   -0.385402    0.513382
 H   -7.397782    2.175796   -2.274241
