87 
6dgz_ligand_dft.xyz
 N   -8.304719   -0.361286   -0.600465
 C   -7.006292   -0.830228   -0.671546
 C   -6.534639   -1.768436    0.262997
 C   -5.221247   -2.200936    0.225295
 C   -4.355229   -1.707607   -0.750519
 C   -4.807868   -0.781794   -1.688247
 C   -6.122792   -0.345919   -1.648407
 S   -2.656252   -2.205697   -0.733934
 O   -2.114149   -1.875545   -2.053273
 O   -2.578554   -3.561782   -0.216628
 N   -1.908330   -1.222283    0.353215
 C   -1.543288   -1.669557    1.697177
 C   -0.026583   -1.655226    1.946527
 C    0.251324   -1.840636    3.445297
 C    0.721520   -2.657013    1.050794
 C   -1.701891    0.177270   -0.002845
 C   -0.390913    0.431522   -0.775143
 C    0.491117   -4.132382    1.378822
 O   -0.576175    0.492357   -2.170459
 C    0.300044    1.722530   -0.327309
 C    1.737413   -1.761791    3.794472
 N    1.685266    1.715728   -0.777327
 C    2.629037    1.151476    0.022732
 O    2.510724    0.947517    1.218287
 O    3.742897    0.861445   -0.684068
 C    4.813541    0.285883    0.058717
 C    4.548505   -1.138519    0.561110
 O    5.850456   -1.651599    0.774783
 C    6.679353   -1.196498   -0.254849
 O    6.750222   -2.138543   -1.301218
 C    6.684526   -1.454493   -2.538333
 C    5.709407   -0.304209   -2.297890
 C    6.032500    0.087866   -0.847923
 C   -0.433724    2.985536   -0.769774
 C    0.504481    4.351724    1.204506
 C   -0.782178    4.398916    2.034298
 C   -1.643686    5.600481    1.630584
 C   -1.936780    5.610399    0.126009
 C   -0.648975    5.507312   -0.702643
 C    0.218061    4.298688   -0.306502
 H   -8.683270    0.044450   -1.443409
 H   -8.967503   -0.944930   -0.111977
 H   -7.210493   -2.156969    1.019929
 H   -4.867710   -2.937112    0.940053
 H   -4.131774   -0.420185   -2.455920
 H   -6.474020    0.375427   -2.381048
 H   -1.941903   -2.676103    1.838519
 H   -2.043324   -1.011257    2.422098
 H    0.349914   -0.653840    1.693108
 H   -0.165928   -2.795123    3.793392
 H   -0.285595   -1.055634    3.994746
 H    0.430112   -2.482985    0.007634
 H    1.793500   -2.432868    1.105062
 H   -1.706814    0.736016    0.940250
 H   -2.547003    0.550414   -0.593499
 H    0.291408   -0.391067   -0.522958
 H    0.798368   -4.375065    2.402150
 H   -0.560165   -4.409764    1.255210
 H    1.074967   -4.764160    0.702234
 H   -0.968717   -0.357347   -2.432248
 H    0.354193    1.692249    0.763489
 H    2.178975   -0.843964    3.389584
 H    2.292528   -2.612107    3.383879
 H    1.886366   -1.764087    4.879010
 H    1.833540    1.630639   -1.774189
 H    5.049315    0.932912    0.907695
 H    4.006010   -1.173466    1.504980
 H    4.000087   -1.715905   -0.198648
 H    7.674478   -1.053297    0.179852
 H    6.351277   -2.166630   -3.296839
 H    7.678493   -1.078039   -2.827652
 H    5.833889    0.523523   -2.999702
 H    4.680391   -0.664384   -2.382192
 H    6.715463    0.939604   -0.809938
 H   -0.517369    2.987671   -1.862716
 H   -1.461779    2.912595   -0.393656
 H    1.140253    3.514743    1.513743
 H    1.083057    5.263493    1.409021
 H   -0.539270    4.450883    3.101792
 H   -1.354219    3.470484    1.892633
 H   -2.581703    5.609346    2.198232
 H   -1.106289    6.522423    1.895318
 H   -2.476590    6.525602   -0.144438
 H   -2.608455    4.776936   -0.118792
 H   -0.891745    5.461495   -1.771914
 H   -0.061857    6.423752   -0.552180
 H    1.179555    4.380726   -0.828533
