78 
6dh1_ligand_xtb.xyz
 N   -7.466427    1.209746   -0.754876
 C   -6.344830    0.440227   -0.916432
 C   -6.063586   -0.601126   -0.023728
 C   -4.899878   -1.329830   -0.147219
 C   -4.003882   -1.027490   -1.156921
 C   -4.261813   -0.001294   -2.047894
 C   -5.427739    0.726294   -1.934503
 S   -2.489690   -1.963852   -1.269903
 O   -1.744411   -1.457502   -2.397238
 O   -2.772758   -3.367009   -1.238493
 N   -1.640924   -1.580510    0.099956
 C   -1.646513   -2.475265    1.231022
 C   -0.236159   -2.703264    1.795809
 C   -0.327137   -3.570758    3.048104
 C    0.666721   -3.334782    0.731465
 C   -1.430224   -0.169809    0.322707
 C   -0.103343    0.312828   -0.296116
 C    2.148577   -3.158911    1.045526
 O   -0.242684    0.660813   -1.648483
 C    0.492280    1.527534    0.449315
 N    1.873800    1.697464    0.045166
 C    2.865609    1.018729    0.659822
 O    2.768869    0.428690    1.707483
 O    4.021299    1.141214   -0.043467
 C    5.174786    0.576377    0.553472
 C    5.368715   -0.914411    0.216538
 O    6.755175   -1.128700    0.381309
 C    7.421409   -0.012000   -0.113576
 O    7.726251   -0.161815   -1.481159
 C    7.546023    1.082717   -2.120840
 C    6.352847    1.741104   -1.423108
 C    6.466152    1.209794    0.009909
 C   -0.260337    2.834580    0.168879
 C   -1.805578    2.869018    2.147218
 C   -3.071891    2.866277    2.703887
 C   -4.190039    2.859272    1.887001
 C   -4.034005    2.864851    0.512067
 C   -2.765882    2.862754   -0.042432
 C   -1.637162    2.857710    0.767435
 H   -7.761119    1.774239   -1.533826
 H   -8.204028    0.842523   -0.177913
 H   -6.769160   -0.828994    0.761308
 H   -4.678819   -2.144704    0.523670
 H   -3.543589    0.203909   -2.825640
 H   -5.640961    1.524319   -2.630451
 H   -2.050685   -3.419560    0.863132
 H   -2.304954   -2.085839    2.021502
 H    0.185234   -1.730540    2.071699
 H   -0.955182   -3.097107    3.799814
 H   -0.753063   -4.542020    2.805771
 H    0.659117   -3.721724    3.476996
 H    0.442571   -2.868790   -0.230683
 H    0.429090   -4.396561    0.639727
 H   -2.254027    0.393835   -0.127287
 H   -1.434408    0.022852    1.397259
 H    0.621629   -0.511244   -0.192272
 H    2.756784   -3.524369    0.221196
 H    2.379694   -2.107974    1.210340
 H    2.426125   -3.710896    1.940245
 H   -0.693099   -0.081096   -2.099199
 H    0.512150    1.307388    1.520787
 H    2.024969    1.972886   -0.913601
 H    5.107378    0.697369    1.640989
 H    4.841057   -1.585512    0.891918
 H    5.058362   -1.101999   -0.819744
 H    8.351578    0.090498    0.464791
 H    7.381867    0.886805   -3.180638
 H    8.451384    1.696990   -2.002874
 H    6.395803    2.826315   -1.468527
 H    5.418836    1.405896   -1.870375
 H    6.860986    1.962462    0.690667
 H    0.332946    3.652787    0.584399
 H   -0.323242    2.958297   -0.912368
 H   -0.936549    2.883462    2.789229
 H   -3.187142    2.873848    3.777982
 H   -5.179416    2.856759    2.319657
 H   -4.902741    2.867790   -0.128653
 H   -2.648127    2.860160   -1.116360
