46 
6dha_ligand_dft.xyz
 C   -1.337392    2.324342    0.305261
 C    0.994241    0.984509    1.213801
 C    2.501170   -0.908556    0.954593
 C    0.628786   -0.612638   -0.558755
 C    4.838788   -1.424046   -0.871908
 C   -5.990919   -2.626265    0.804259
 C   -6.625754   -1.344751    0.278311
 C   -5.586682   -0.268529    0.032249
 C   -5.302947    0.703520    0.988392
 C   -3.682123    1.682075   -0.297149
 C   -3.890563    0.754982   -1.319833
 C   -4.853100   -0.229071   -1.152194
 C   -2.617964    2.746712   -0.402554
 C    0.251661    0.553652    0.114631
 C    2.107170    0.249859    1.619068
 C    1.735918   -1.330454   -0.141078
 C    3.731094   -1.675275    1.377085
 C    5.023667   -1.262321    0.635299
 C    5.288798    0.921784   -0.787469
 N   -4.378958    1.654188    0.844140
 N    4.951775   -0.212800   -1.516502
 O   -0.841072    1.186680   -0.376289
 O    4.592191   -2.474045   -1.417256
 O    5.416847    2.023973   -1.244774
 O   -7.311319   -1.695439   -0.912588
 S    5.534479    0.468914    0.922605
 H   -0.595696    3.134366    0.279464
 H   -1.555311    2.078142    1.353112
 H    0.722825    1.882158    1.757187
 H    0.030716   -0.940298   -1.402662
 H   -5.477521   -2.439326    1.751957
 H   -6.760533   -3.388079    0.958107
 H   -5.261619   -3.005431    0.081374
 H   -7.340468   -0.973398    1.030670
 H   -5.856092    0.719855    1.927809
 H   -3.296265    0.806540   -2.226371
 H   -5.048582   -0.963838   -1.928195
 H   -2.983362    3.664279    0.068446
 H   -2.389205    2.964087   -1.450961
 H    2.678125    0.597373    2.475866
 H    2.015534   -2.235616   -0.673341
 H    3.905167   -1.562348    2.452084
 H    3.595658   -2.744811    1.182084
 H    5.839173   -1.922938    0.941647
 H    4.796541   -0.136235   -2.513282
 H   -7.716725   -0.893355   -1.264938
