96 
6dhc_ligand_dft.xyz
 N    2.177013   -0.132428   -1.711554
 C    4.251512   -1.103566   -1.406651
 O    5.172641   -1.614683   -2.270927
 C    4.577808   -2.710716   -2.977853
 C    3.703682   -3.389101   -1.921764
 C    3.182124   -2.186472   -1.124680
 C    1.876334   -1.593998   -1.685198
 C    0.659151   -2.045224   -0.868008
 O   -0.016820   -2.969536   -1.299666
 O    3.529330   -0.004688   -2.052657
 N    0.497892   -1.488031    0.346307
 C   -0.524340   -1.941001    1.278493
 C   -0.098681   -1.653401    2.718093
 S    1.598278   -2.148837    3.127844
 C    1.505768   -3.932507    2.808567
 C   -1.811155   -1.174474    0.926496
 O   -2.065874   -0.101237    1.475133
 C   -6.527602   -1.822250    1.815952
 C   -5.658336   -3.291325   -0.037167
 C   -5.325098   -2.149694    0.926807
 C   -4.866278   -0.877771    0.200866
 N   -2.528292   -1.715260   -0.072486
 C   -3.667448   -1.060469   -0.736751
 C   -3.260498    0.251578   -1.449360
 O   -3.133104    1.344678   -0.550909
 C   -2.005160    0.031333   -2.304191
 C   -1.480896    1.241970   -3.115792
 C   -2.580034    2.177311   -3.634458
 C   -0.396222    1.984396   -2.345205
 O    0.798588    1.913407   -2.683914
 N   -0.786026    2.705490   -1.284915
 C    0.144842    3.431719   -0.458390
 C    1.142918    2.489452    0.227876
 O    0.982444    1.256550    0.245895
 C   -0.598314    4.301749    0.584664
 C   -1.425005    3.466662    1.569712
 C   -1.452311    5.368517   -0.104071
 C    2.147327    2.911449    3.795358
 C    2.678749    1.782711    2.911948
 C    3.795346    1.000437    3.604514
 C    3.193139    2.314950    1.567713
 N    2.196590    3.065544    0.809464
 H    1.991222    0.358136   -0.809930
 H    1.637859    0.451045   -2.401530
 H    4.762717   -0.687149   -0.536971
 H    5.389235   -3.331345   -3.356266
 H    3.991753   -2.333667   -3.825592
 H    4.316151   -4.025711   -1.278716
 H    2.897501   -3.995531   -2.342189
 H    3.078055   -2.383278   -0.054964
 H    1.705862   -1.895782   -2.719465
 H    0.941377   -0.609073    0.590940
 H   -0.663158   -3.012994    1.116925
 H   -0.806770   -2.131998    3.401179
 H   -0.159773   -0.576259    2.899020
 H    2.448823   -4.368142    3.145504
 H    1.378079   -4.150770    1.744072
 H    0.691908   -4.388231    3.378976
 H   -7.383905   -1.499879    1.211219
 H   -6.838755   -2.698787    2.393406
 H   -6.292971   -1.018536    2.522101
 H   -4.778578   -3.642025   -0.589096
 H   -6.413782   -2.977082   -0.768153
 H   -6.061614   -4.152050    0.505586
 H   -4.504890   -2.480201    1.578668
 H   -5.693481   -0.488703   -0.408131
 H   -4.637776   -0.105965    0.940721
 H   -2.123090   -2.525730   -0.526073
 H   -3.954144   -1.756718   -1.530821
 H   -4.093886    0.511894   -2.111914
 H   -2.784352    0.988355    0.293831
 H   -1.197906   -0.332698   -1.658555
 H   -2.228547   -0.781740   -3.005752
 H   -0.944414    0.840712   -3.980797
 H   -3.280505    1.617754   -4.262441
 H   -3.147326    2.636481   -2.820066
 H   -2.149264    2.976138   -4.244637
 H   -1.732832    2.522684   -0.945731
 H    0.733995    4.090138   -1.109623
 H    0.182180    4.820391    1.157027
 H   -0.873270    2.605584    1.961696
 H   -2.343224    3.092265    1.106092
 H   -1.729060    4.088087    2.416932
 H   -0.853557    5.987862   -0.779952
 H   -2.262090    4.916216   -0.686002
 H   -1.908027    6.024970    0.642998
 H    1.317965    3.444100    3.316697
 H    2.936763    3.638510    4.022939
 H    1.778572    2.514153    4.745661
 H    1.854863    1.090761    2.696530
 H    4.160472    0.180474    2.975805
 H    3.434815    0.561607    4.539214
 H    4.643371    1.653127    3.844440
 H    4.043181    2.985164    1.728132
 H    3.547714    1.486985    0.942704
 H    2.278279    4.071120    0.772384
