21 
6dhu_ligand_xtb.xyz
 C   -0.083979   -1.833984   -0.052731
 C   -0.992315   -0.774524   -0.028493
 C   -2.447444   -1.202612    0.007992
 C   -0.494725    0.533134    0.049158
 C   -1.358107    1.753468    0.101810
 C    0.884553    0.747385    0.036840
 C    1.278021   -1.617411   -0.060101
 C    3.259375   -0.114266   -0.046945
 C    1.773617   -0.315824   -0.043268
 O    3.705583    0.992302   -0.662951
 O    4.012566   -0.887992    0.468329
 O   -2.739979   -2.226819    0.565049
 O   -3.349047   -0.474451   -0.624809
 O   -2.290057    1.933032   -0.642879
 O   -1.007489    2.682572    0.988186
 H   -0.481707   -2.837205   -0.058418
 H    1.257233    1.764216    0.090294
 H    1.975500   -2.440214   -0.079891
 H    3.010276    1.489265   -1.113848
 H   -3.042547    0.411371   -0.923655
 H   -0.285346    2.411221    1.572544
