36 
6di1_ligand_dft.xyz
 C   -0.885594   -0.559059    0.044748
 C   -2.763069    0.250028   -0.971725
 C   -3.470062    0.158413    0.266607
 C   -2.734711   -0.380242    1.319055
 C    6.075848    2.156532    0.765116
 C    4.816284    1.871965    0.448509
 C    4.458640    0.516291   -0.069268
 O    5.283001   -0.370341   -0.245052
 N    3.135759    0.340308   -0.348170
 C    2.624412   -0.940606   -0.808646
 C    1.182920   -0.775629   -1.287132
 C    2.472799   -1.946637    0.343524
 C    1.183684   -1.497779    1.038663
 N    0.421865   -0.884077   -0.049441
 N   -1.475448   -0.101499   -1.066873
 N   -3.353658    0.707139   -2.088216
 N   -1.461878   -0.740575    1.255959
 C   -4.885115    0.559648    0.379073
 O   -5.602919    0.772837   -0.598214
 N   -5.404118    0.665133    1.645514
 H   -3.213818   -0.556899    2.281764
 H    6.365916    3.131270    1.144004
 H    6.845887    1.399895    0.644990
 H    4.026768    2.613457    0.557449
 H    2.473138    1.060462   -0.101422
 H    3.291816   -1.308642   -1.589872
 H    0.996155    0.181710   -1.780567
 H    0.909250   -1.569895   -1.993306
 H    3.345125   -1.949847    0.998829
 H    2.350997   -2.952455   -0.073377
 H    0.622979   -2.320757    1.487782
 H    1.378084   -0.762805    1.828956
 H   -4.358409    0.838761   -2.073544
 H   -2.830763    0.661731   -2.947738
 H   -4.802485    0.877502    2.425393
 H   -6.335178    1.053975    1.684230
