75 
6dif_ligand_dft.xyz
 O   -0.732897    1.341583    1.404069
 C    0.051577    0.572928    2.197413
 C    1.517953    0.606369    2.005842
 C    2.032311    1.573361    1.223538
 C    1.137977    2.598569    0.592059
 C   -0.190542    1.945061    0.205476
 O   -0.499054   -0.125633    3.023798
 O    3.357642    1.654862    0.993264
 C   -1.231056    2.975208   -0.241696
 C   -1.661916    3.994089    0.814782
 C   -2.831657    4.848108    0.329153
 C   -0.071021    0.804827   -0.830537
 C    0.257856    1.169329   -2.287328
 C    1.630133    1.772390   -2.469579
 C    2.766942    1.025637   -2.147762
 C    4.034846    1.596907   -2.208085
 C    4.187298    2.928357   -2.595814
 C    3.063422    3.673126   -2.944429
 C    1.797218    3.095088   -2.884999
 C    2.274224   -0.601388    2.537047
 C    3.608840   -0.306323    3.233997
 C    4.203049   -1.555392    3.883017
 C    2.343608   -1.577597    1.366202
 C    3.396094   -1.582544    0.448337
 C    3.329126   -2.369772   -0.699228
 C    2.218790   -3.167072   -0.954367
 C    1.172282   -3.171449   -0.034888
 N    0.049836   -4.032015   -0.244702
 C    1.234621   -2.387397    1.113386
 S   -1.082935   -3.727317   -1.417297
 O   -1.988321   -4.859946   -1.406290
 O   -0.400030   -3.304516   -2.626602
 C   -2.032554   -2.300531   -0.838897
 N   -1.992261   -2.062290    0.463084
 C   -2.713755   -1.039620    0.926083
 C   -3.520044   -0.263409    0.095411
 C   -3.559987   -0.541266   -1.268015
 C   -2.779084   -1.577043   -1.761560
 C   -4.361393    0.843001    0.672508
 F   -5.556351    0.387246    1.077737
 F   -4.598064    1.799828   -0.250376
 F   -3.775587    1.427656    1.720620
 H    1.610544    3.044531   -0.287029
 H    0.953153    3.408948    1.306816
 H    3.518445    2.199503    0.208725
 H   -2.117809    2.428068   -0.584991
 H   -0.831292    3.501144   -1.118442
 H   -1.947262    3.461837    1.726687
 H   -0.821788    4.649210    1.077199
 H   -3.707074    4.223183    0.126897
 H   -3.115346    5.591326    1.080583
 H   -2.579211    5.383320   -0.593982
 H    0.654848    0.065181   -0.476417
 H   -1.040781    0.304239   -0.825381
 H   -0.504004    1.843478   -2.694058
 H    0.189660    0.238339   -2.863261
 H    2.656851   -0.006135   -1.824211
 H    4.905209    1.000390   -1.948420
 H    5.175316    3.376359   -2.640913
 H    3.172097    4.706361   -3.260579
 H    0.922541    3.685931   -3.147784
 H    1.616319   -1.045854    3.290478
 H    3.422684    0.456359    3.999395
 H    4.327413    0.133483    2.537971
 H    4.419924   -2.326036    3.135400
 H    5.136754   -1.320186    4.403776
 H    3.509075   -1.986645    4.613673
 H    4.264394   -0.954411    0.618416
 H    4.155941   -2.367314   -1.404027
 H    2.157796   -3.787748   -1.840593
 H   -0.410677   -4.339183    0.606252
 H    0.388749   -2.369304    1.795484
 H   -2.604332   -0.814594    1.982283
 H   -4.171571    0.057458   -1.934171
 H   -2.742279   -1.816730   -2.817847
