52 
6dik_ligand_xtb.xyz
 C   -1.872178   -4.195870    0.197762
 C    3.670107   -0.839162   -0.380974
 C    3.746904   -0.544514   -1.882333
 C    3.772240    0.465674    0.418414
 C    2.735655    2.582382    0.402805
 C    1.442065    3.246278    0.220968
 C    0.305224    2.538562    0.179874
 C   -1.045181    3.029043    0.010178
 C   -2.092296    2.117572    0.176516
 C   -3.405696    2.487692   -0.022162
 C   -3.701201    3.810070   -0.382246
 C   -3.203389   -4.527446    0.345155
 C   -2.670634    4.724217   -0.533861
 C   -1.356279    4.341633   -0.344015
 C    3.758655    0.174662    1.922564
 C   -4.183553   -3.545167    0.314501
 C   -3.807024   -2.202188    0.131471
 C   -2.475715   -1.881624   -0.017978
 C   -1.480182   -2.868032    0.013524
 C   -0.100708   -2.462803   -0.127232
 C    0.963790   -3.264618   -0.293191
 C    2.320192   -2.755079   -0.452128
 O    3.266799   -3.396599   -0.840829
 O    4.797876   -0.580060    2.272334
 O   -4.822250   -1.286887    0.116091
 O   -5.487650   -3.869245    0.462268
 O    2.435588   -1.448522   -0.084555
 O    2.866315   -0.746443   -2.663541
 O    4.932821   -0.029258   -2.204805
 O    2.660433    1.265163    0.090963
 O    3.758361    3.113746    0.757061
 O   -5.021212    4.120373   -0.566151
 O   -4.406630    1.570934    0.120132
 O    2.929383    0.576402    2.683095
 H   -1.128933   -4.974838    0.238567
 H    4.505846   -1.504321   -0.119161
 H    4.712177    0.982102    0.175075
 H    1.478848    4.323897    0.185871
 H    0.390302    1.465456    0.287368
 H   -1.877687    1.105777    0.480279
 H   -3.510687   -5.550462    0.491106
 H   -2.905139    5.743020   -0.810766
 H   -0.570113    5.064972   -0.483747
 H   -2.197887   -0.850491   -0.180196
 H    0.079741   -1.395804   -0.109114
 H    0.880535   -4.336746   -0.381975
 H    4.787609   -0.757696    3.227480
 H   -4.473259   -0.382787    0.068314
 H   -6.001389   -3.049514    0.414571
 H    4.982808    0.142736   -3.159659
 H   -5.108197    5.049466   -0.805398
 H   -5.248004    2.020706   -0.040788
