52 
6dik_ligand_dft.xyz
 C   -1.856704   -4.105472    0.239926
 C    3.743081   -0.792809   -0.337489
 C    3.873993   -0.560431   -1.840616
 C    3.790472    0.524921    0.430398
 C    2.723258    2.625155    0.233630
 C    1.389335    3.226568    0.058135
 C    0.283400    2.472227    0.113323
 C   -1.107623    2.907895   -0.026798
 C   -2.115948    2.015439    0.365222
 C   -3.448319    2.345675    0.212763
 C   -3.805262    3.586774   -0.324994
 C   -3.205285   -4.421630    0.336962
 C   -2.816734    4.483896   -0.707865
 C   -1.475568    4.144284   -0.564638
 C    3.669289    0.291284    1.934448
 C   -4.166532   -3.428675    0.188441
 C   -3.768670   -2.105682   -0.065366
 C   -2.423690   -1.799780   -0.174942
 C   -1.442107   -2.793687   -0.017102
 C   -0.035657   -2.407580   -0.119449
 C    1.030880   -3.222876   -0.152744
 C    2.408324   -2.730933   -0.269763
 O    3.376936   -3.415152   -0.504189
 O    4.664442   -0.495175    2.372163
 O   -4.791535   -1.215324   -0.208531
 O   -5.479794   -3.724309    0.297078
 O    2.497497   -1.385702   -0.060761
 O    3.065132   -0.883693   -2.666627
 O    5.037708    0.051218   -2.119968
 O    2.689327    1.286497   -0.001637
 O    3.731021    3.218315    0.533114
 O   -5.148060    3.804492   -0.430458
 O   -4.422433    1.459082    0.580204
 O    2.811489    0.753853    2.637062
 H   -1.121663   -4.891233    0.379923
 H    4.563746   -1.441404   -0.015912
 H    4.732688    1.044106    0.229157
 H    1.377538    4.307153   -0.039370
 H    0.422824    1.408695    0.290735
 H   -1.862125    1.057867    0.810054
 H   -3.532195   -5.435295    0.542704
 H   -3.094538    5.444160   -1.135226
 H   -0.715594    4.843519   -0.896832
 H   -2.129197   -0.779776   -0.409314
 H    0.154501   -1.338230   -0.185914
 H    0.948248   -4.304387   -0.149394
 H    4.537111   -0.608889    3.327719
 H   -4.503884   -0.308748    0.004799
 H   -5.963362   -2.889866    0.194684
 H    5.070350    0.166899   -3.083104
 H   -5.319406    4.681069   -0.793596
 H   -5.282488    1.884181    0.440406
