75 
6dil_ligand_dft.xyz
 O   -0.732896    1.341583    1.404069
 C    0.051578    0.572927    2.197413
 C    1.517953    0.606368    2.005842
 C    2.032312    1.573360    1.223538
 C    1.137979    2.598569    0.592059
 C   -0.190541    1.945061    0.205476
 O   -0.499054   -0.125633    3.023798
 O    3.357643    1.654861    0.993264
 C   -1.231055    2.975209   -0.241695
 C   -1.661914    3.994090    0.814783
 C   -2.831655    4.848110    0.329153
 C   -0.071021    0.804827   -0.830537
 C    0.257857    1.169329   -2.287328
 C    1.630134    1.772390   -2.469579
 C    2.766942    1.025637   -2.147762
 C    4.034847    1.596906   -2.208085
 C    4.187299    2.928356   -2.595814
 C    3.063423    3.673126   -2.944429
 C    1.797219    3.095088   -2.884998
 C    2.274224   -0.601390    2.537047
 C    3.608840   -0.306324    3.233997
 C    4.203048   -1.555394    3.883017
 C    2.343607   -1.577598    1.366202
 C    3.396093   -1.582545    0.448337
 C    3.329124   -2.369773   -0.699228
 C    2.218788   -3.167072   -0.954368
 C    1.172281   -3.171449   -0.034889
 N    0.049834   -4.032015   -0.244702
 C    1.234620   -2.387398    1.113386
 S   -1.082937   -3.727317   -1.417297
 O   -1.988323   -4.859945   -1.406289
 O   -0.400032   -3.304516   -2.626602
 C   -2.032555   -2.300531   -0.838897
 N   -1.992261   -2.062289    0.463084
 C   -2.713756   -1.039619    0.926083
 C   -3.520044   -0.263407    0.095411
 C   -3.559987   -0.541265   -1.268015
 C   -2.779084   -1.577042   -1.761560
 C   -4.361392    0.843002    0.672508
 F   -5.556351    0.387248    1.077737
 F   -4.598063    1.799830   -0.250375
 F   -3.775587    1.427657    1.720620
 H    1.610546    3.044531   -0.287029
 H    0.953154    3.408947    1.306816
 H    3.518446    2.199502    0.208725
 H   -2.117808    2.428069   -0.584991
 H   -0.831291    3.501145   -1.118441
 H   -1.947260    3.461838    1.726688
 H   -0.821786    4.649211    1.077199
 H   -3.707073    4.223184    0.126898
 H   -3.115343    5.591327    1.080583
 H   -2.579209    5.383321   -0.593981
 H    0.654848    0.065181   -0.476417
 H   -1.040781    0.304239   -0.825381
 H   -0.504003    1.843478   -2.694058
 H    0.189661    0.238340   -2.863261
 H    2.656851   -0.006136   -1.824211
 H    4.905209    1.000389   -1.948420
 H    5.175317    3.376358   -2.640913
 H    3.172098    4.706361   -3.260579
 H    0.922542    3.685931   -3.147783
 H    1.616319   -1.045855    3.290478
 H    3.422685    0.456357    3.999395
 H    4.327413    0.133481    2.537971
 H    4.419924   -2.326039    3.135399
 H    5.136754   -1.320189    4.403775
 H    3.509075   -1.986647    4.613672
 H    4.264394   -0.954413    0.618415
 H    4.155940   -2.367315   -1.404028
 H    2.157794   -3.787748   -1.840593
 H   -0.410679   -4.339183    0.606252
 H    0.388748   -2.369305    1.795484
 H   -2.604333   -0.814593    1.982283
 H   -4.171571    0.057460   -1.934171
 H   -2.742280   -1.816728   -2.817847
