82 
6dj5_ligand_dft.xyz
 C   -6.875475   -0.720470   -0.180986
 C   -6.125328    0.304591   -0.772045
 C   -4.838341    0.060544   -1.212103
 C   -4.288546   -1.214378   -1.061622
 C   -5.027500   -2.238833   -0.481251
 C   -6.324428   -1.998336   -0.040997
 S   -2.598953   -1.511879   -1.510260
 O   -2.235191   -0.499784   -2.501948
 O   -2.446854   -2.928748   -1.788879
 N   -1.683833   -1.170137   -0.173974
 C   -1.608312   -2.156069    0.906365
 C   -0.181482   -2.327061    1.444189
 C    0.747472   -2.891152    0.369510
 C   -0.213710   -3.228738    2.679778
 C   -1.529057    0.241231    0.198925
 C   -0.174051    0.795325   -0.266547
 O   -0.172802    1.213979   -1.610324
 C    0.354506    1.962872    0.588539
 N    1.807273    2.031249    0.477093
 C    2.557766    1.136630    1.175005
 O    2.170242    0.477272    2.121366
 O    3.817650    1.090196    0.684837
 C    4.704509    0.192608    1.343456
 C    4.384217   -1.289783    1.140131
 O    5.610169   -1.927459    1.435616
 C    6.682411   -1.123464    0.990276
 O    7.234846   -1.567582   -0.210015
 C    6.768389   -0.836289   -1.329515
 C    6.151175    0.477076   -0.776382
 C    6.112534    0.297145    0.750000
 C   -0.233122    3.334048    0.227235
 C   -2.545009    3.451370   -0.789721
 C   -3.932747    3.459317   -0.675543
 C   -4.533235    3.384518    0.578482
 C   -3.736695    3.318515    1.718669
 C   -2.350252    3.327295    1.601221
 C   -1.736877    3.386444    0.347371
 O   -8.119623   -0.377188    0.215825
 C   -8.940687   -1.373520    0.789642
 O    7.832631   -0.485142   -2.152416
 C    8.368267    0.729002   -1.645520
 C    7.128775    1.551768   -1.289749
 H   -6.577710    1.284263   -0.879959
 H   -4.260865    0.848501   -1.682643
 H   -4.597017   -3.230605   -0.390566
 H   -6.890430   -2.810042    0.399919
 H   -2.288062   -1.857591    1.719464
 H   -1.953742   -3.115616    0.512347
 H    0.202089   -1.346171    1.757423
 H    0.759793   -2.258353   -0.523286
 H    1.771413   -2.974730    0.748149
 H    0.418125   -3.890067    0.058712
 H   -0.856533   -2.813428    3.464280
 H    0.790862   -3.346410    3.097949
 H   -0.590184   -4.227920    2.426810
 H   -2.346110    0.844540   -0.204561
 H   -1.605855    0.300754    1.289510
 H    0.543189   -0.026762   -0.125642
 H   -0.705263    0.581965   -2.124103
 H    0.150250    1.738852    1.639197
 H    2.179510    2.316951   -0.418695
 H    4.713058    0.417426    2.413399
 H    3.624076   -1.664429    1.824709
 H    4.058282   -1.472013    0.102777
 H    7.462574   -1.199035    1.750057
 H    6.097646   -1.464730   -1.921287
 H    5.148900    0.638894   -1.173646
 H    6.708110    1.059290    1.257589
 H    0.225420    4.075187    0.891701
 H    0.059337    3.582121   -0.797348
 H   -2.078381    3.473150   -1.769933
 H   -4.545939    3.519212   -1.570983
 H   -5.615399    3.383068    0.669508
 H   -4.196396    3.264856    2.701103
 H   -1.733808    3.283749    2.496807
 H   -8.501364   -1.773414    1.711808
 H   -9.122788   -2.194354    0.085231
 H   -9.885597   -0.882927    1.023287
 H    8.989281    0.532387   -0.759869
 H    8.992996    1.168382   -2.425201
 H    7.326378    2.335407   -0.553220
 H    6.729762    2.024347   -2.191844
