118 
6djc_ligand_dft.xyz
Cl    9.116899    2.299093    0.215936
 C    7.540499    1.589408   -0.052731
 C    7.362897    0.227055    0.163970
 C    6.105170   -0.327867   -0.041288
 C    6.489976    2.398829   -0.472816
 C    5.240384    1.830820   -0.686481
 C    5.040965    0.466014   -0.470979
 C    3.690156   -0.106352   -0.715126
 C    3.177557   -1.107956    0.255246
 C    3.340744   -1.055225    1.690508
 C    3.888931    0.130307    2.433203
 N    3.081307    0.291973   -1.765781
 C    1.708563   -0.148610   -1.986265
 C    1.736046   -1.596079   -2.359284
 N    1.442765   -2.158675   -3.496197
 N    1.658595   -3.511731   -3.364763
 C    2.083855   -3.738607   -2.151596
 C    2.433930   -5.075883   -1.601958
 N    2.157959   -2.547094   -1.458636
 C    2.540329   -2.254857   -0.146389
 S    2.156093   -3.294083    1.183441
 C    2.860071   -2.171079    2.312293
 C    2.845128   -2.482718    3.781270
 C    1.065668    0.720088   -3.076014
 C   -0.449664    0.671132   -2.971820
 O   -1.080579    1.510743   -2.327881
 N   -1.038040   -0.388249   -3.572602
 C   -2.424425   -0.716938   -3.293691
 C   -2.729806   -2.211710   -3.394609
 C   -1.781488   -3.140324   -2.615877
 C   -1.402285   -2.658379   -1.212415
 C   -2.578042   -2.431885   -0.261749
 C   -3.335186   -3.684978    0.186225
 C   -2.488516   -4.727176    0.930760
 C   -1.596267   -4.146215    2.032379
 C   -2.333704   -3.354770    3.115047
 C   -1.381662   -2.701243    4.121418
 N   -0.499207   -1.728252    3.502903
 C   -0.713003   -0.384642    3.569904
 O   -1.568310    0.128623    4.275939
 C    0.233635    0.442144    2.710044
 C   -0.560978    1.500241    1.950777
 C    0.290908    2.180213    0.928536
 N    1.530621    1.937787    0.610199
 N    1.864415    2.777358   -0.427536
 C    0.816707    3.497157   -0.724871
 C    0.723502    4.439799   -1.869755
 N   -0.214776    3.175067    0.126337
 C   -1.502884    3.699760    0.241272
 C   -2.624326    3.000719    0.611110
 C   -3.775378    3.864541    0.748778
 C   -5.139738    3.421194    1.204059
 C   -3.486318    5.167748    0.466594
 C   -4.409068    6.351485    0.502553
 S   -1.815468    5.388129    0.051574
 C   -2.623057    1.530152    0.780918
 N   -1.691075    0.832673    1.306958
 C   -3.825202    0.783339    0.323517
 C   -4.426744   -0.117394    1.203268
 C   -5.547813   -0.838332    0.814375
 C   -6.045997   -0.665403   -0.473451
Cl   -7.436730   -1.594035   -0.983196
 C   -5.459731    0.228627   -1.364092
 C   -4.353162    0.965356   -0.953441
 H    8.196479   -0.386952    0.486603
 H    5.953245   -1.389702    0.132992
 H    6.649727    3.460482   -0.625443
 H    4.392076    2.436601   -0.991525
 H    4.979365    0.192292    2.366634
 H    3.615089    0.081577    3.490935
 H    3.467279    1.047728    2.010811
 H    1.134862   -0.039027   -1.051432
 H    2.438111   -5.787072   -2.429417
 H    1.701603   -5.414229   -0.861009
 H    3.420595   -5.072028   -1.128549
 H    3.822352   -2.280667    4.229266
 H    2.094951   -1.879558    4.305908
 H    2.607732   -3.534537    3.965327
 H    1.388437    1.745224   -2.897926
 H    1.422325    0.399829   -4.059355
 H   -0.429847   -1.088258   -3.986099
 H   -3.089090   -0.159736   -3.967062
 H   -2.634601   -0.356930   -2.284107
 H   -2.735461   -2.520838   -4.447360
 H   -3.758917   -2.338323   -3.034809
 H   -0.861194   -3.288804   -3.189317
 H   -2.251355   -4.130299   -2.552430
 H   -0.852465   -1.712732   -1.294339
 H   -0.693914   -3.378309   -0.777420
 H   -3.297792   -1.761975   -0.742700
 H   -2.215734   -1.875913    0.611063
 H   -4.164815   -3.364371    0.829038
 H   -3.805611   -4.167760   -0.680181
 H   -1.845907   -5.256389    0.214939
 H   -3.156157   -5.486965    1.357883
 H   -1.032137   -4.961581    2.506949
 H   -0.851141   -3.497075    1.556664
 H   -3.020908   -4.017900    3.656773
 H   -2.942021   -2.564148    2.660728
 H   -0.769513   -3.466435    4.615954
 H   -1.940191   -2.165581    4.891509
 H    0.130149   -2.057022    2.785650
 H    0.776670   -0.182677    1.995269
 H    0.978698    0.921012    3.354400
 H   -0.943360    2.248462    2.660923
 H   -0.108661    4.146419   -2.517546
 H    1.657098    4.373080   -2.431526
 H    0.583087    5.478735   -1.557184
 H   -5.712162    2.961945    0.391386
 H   -5.067733    2.681080    2.005619
 H   -5.712483    4.271023    1.584817
 H   -4.684265    6.603329    1.533218
 H   -5.330017    6.145567   -0.051537
 H   -3.946046    7.236644    0.058322
 H   -4.000205   -0.246940    2.193964
 H   -6.024956   -1.535548    1.494308
 H   -5.862148    0.342643   -2.364750
 H   -3.865874    1.651891   -1.640232
