118 
6djc_ligand_xtb.xyz
Cl    9.090282    2.421368   -0.483504
 C    7.507094    1.734570   -0.582253
 C    7.336742    0.380634   -0.338079
 C    6.068394   -0.164959   -0.406393
 C    6.427028    2.544032   -0.902087
 C    5.165302    1.988754   -0.980416
 C    4.974977    0.633607   -0.727253
 C    3.619032    0.073290   -0.827697
 C    3.230481   -0.938916    0.167100
 C    3.547751   -0.908086    1.561315
 C    4.197712    0.257224    2.227453
 N    2.896435    0.473956   -1.790916
 C    1.535757    0.016341   -1.914217
 C    1.565899   -1.414120   -2.309152
 N    1.198028   -1.977849   -3.418281
 N    1.430531   -3.303841   -3.310479
 C    1.935011   -3.545270   -2.139551
 C    2.325196   -4.870192   -1.613430
 N    2.058571   -2.363225   -1.440924
 C    2.546016   -2.075364   -0.183245
 S    2.307124   -3.141807    1.167090
 C    3.121342   -2.017895    2.223038
 C    3.254700   -2.345022    3.670668
 C    0.790661    0.887552   -2.930381
 C   -0.699054    0.756809   -2.665274
 O   -1.305899    1.541559   -1.952417
 N   -1.266473   -0.313432   -3.241117
 C   -2.631592   -0.697661   -2.947377
 C   -2.904392   -2.183339   -3.167603
 C   -1.898575   -3.141815   -2.519204
 C   -1.493983   -2.794264   -1.086711
 C   -2.638017   -2.816874   -0.074910
 C   -3.198929   -4.201119    0.258999
 C   -2.195219   -5.207045    0.833984
 C   -1.308564   -4.661235    1.954024
 C   -2.086008   -4.118076    3.151936
 C   -1.164453   -3.441264    4.174373
 N   -0.391955   -2.375680    3.572558
 C   -0.875175   -1.121273    3.403840
 O   -1.870122   -0.708745    3.957254
 C    0.006054   -0.282079    2.487086
 C   -0.708166    0.978758    2.005610
 C    0.225598    1.794309    1.183588
 N    1.469929    1.537704    0.912114
 N    1.943837    2.540684    0.141335
 C    0.987738    3.397069   -0.056269
 C    1.077455    4.623388   -0.875203
 N   -0.149023    2.978040    0.595954
 C   -1.384761    3.566572    0.742543
 C   -2.573259    2.910157    0.944637
 C   -3.655245    3.819299    1.165245
 C   -5.054316    3.410137    1.495525
 C   -3.267588    5.123552    1.107179
 C   -4.107553    6.338080    1.295050
 S   -1.570819    5.290294    0.777534
 C   -2.692707    1.450688    0.816003
 N   -1.859208    0.587617    1.228067
 C   -3.893504    0.966209    0.114235
 C   -4.586955   -0.133909    0.609293
 C   -5.716503   -0.598439   -0.038710
 C   -6.144235    0.036227   -1.194471
Cl   -7.547485   -0.549642   -2.019401
 C   -5.462436    1.131853   -1.702016
 C   -4.341967    1.599061   -1.041797
 H    8.188989   -0.235769   -0.097505
 H    5.932799   -1.221401   -0.222566
 H    6.579450    3.595745   -1.087298
 H    4.299389    2.587908   -1.209803
 H    5.280089    0.225828    2.108807
 H    3.965152    0.265019    3.289032
 H    3.825872    1.171979    1.773317
 H    1.036498    0.080710   -0.929757
 H    2.264894   -5.593131   -2.420986
 H    1.654518   -5.176162   -0.810109
 H    3.340950   -4.843585   -1.220508
 H    4.273097   -2.160205    4.008650
 H    2.580715   -1.732380    4.271568
 H    3.014743   -3.390820    3.847889
 H    1.099430    1.920024   -2.769791
 H    1.051787    0.575591   -3.939899
 H   -0.682257   -0.954304   -3.762928
 H   -3.316779   -0.115361   -3.577553
 H   -2.831252   -0.416792   -1.909500
 H   -2.918468   -2.389704   -4.240263
 H   -3.907738   -2.380989   -2.784855
 H   -0.995475   -3.175237   -3.130147
 H   -2.326321   -4.146134   -2.539295
 H   -1.052619   -1.794843   -1.071931
 H   -0.715891   -3.497023   -0.778194
 H   -3.456339   -2.209868   -0.462722
 H   -2.295058   -2.327467    0.837665
 H   -4.013785   -4.065100    0.973567
 H   -3.636843   -4.639900   -0.640173
 H   -1.545452   -5.564082    0.031251
 H   -2.753440   -6.070629    1.204275
 H   -0.641779   -5.459803    2.292693
 H   -0.685484   -3.868171    1.539575
 H   -2.629558   -4.927186    3.642438
 H   -2.810621   -3.376338    2.817945
 H   -0.469081   -4.165033    4.607418
 H   -1.765288   -2.997452    4.970908
 H    0.390293   -2.661420    3.004762
 H    0.282951   -0.869251    1.610850
 H    0.920587    0.001982    3.009739
 H   -1.034363    1.578528    2.872981
 H    0.239402    4.668042   -1.569491
 H    2.011481    4.604995   -1.428959
 H    1.055000    5.512536   -0.245163
 H   -5.668799    3.369228    0.596255
 H   -5.065562    2.427447    1.958744
 H   -5.501335    4.128215    2.179957
 H   -4.488819    6.386027    2.315983
 H   -4.960606    6.321205    0.617441
 H   -3.524791    7.235237    1.103371
 H   -4.234168   -0.608213    1.511762
 H   -6.260693   -1.447742    0.343983
 H   -5.807504    1.610405   -2.605234
 H   -3.783597    2.429642   -1.443852
