21 
6djd_ligand_xtb.xyz
 C   -1.331113   -0.936086   -0.002743
 C   -2.693893   -1.283382    0.000031
 C   -3.654317   -0.306661    0.004367
 C   -3.296952    1.048658    0.006063
 C   -1.978279    1.417396    0.003304
 C   -0.971782    0.435127   -0.000826
 C    0.415197    0.768078   -0.002703
 C    0.847765   -1.603085   -0.008279
 N   -0.406866   -1.925584   -0.008152
 C    2.782529    0.051205    0.000766
 C    1.349678   -0.278626   -0.003523
 O    3.673845   -0.943901    0.017613
 O    3.183619    1.201317   -0.008467
 O    0.755027    2.045426   -0.002593
 H   -2.948370   -2.331260   -0.001202
 H   -4.699862   -0.577402    0.006286
 H   -4.070150    1.802071    0.009556
 H   -1.683209    2.455200    0.004679
 H    1.522631   -2.454240   -0.014904
 H    3.268301   -1.820739    0.027331
 H    1.745782    2.106986   -0.005841
