19 
6dji_ligand_dft.xyz
 C    0.455478    0.174716    0.020118
 C   -2.199243   -0.067041   -0.118755
 C   -0.752004   -0.567122    0.018375
 C   -0.697165   -1.961183    0.072137
 C    0.509429   -2.638245    0.159325
 C    1.699938   -1.931158    0.148305
 C    1.665936   -0.545606    0.058674
 C    0.495033    1.682826    0.003363
 O   -2.561673    1.071528    0.440519
 O   -3.001269   -0.776834   -0.678059
 O    2.835478    0.166835    0.009056
 O    1.510600    2.285406   -0.601135
 O   -0.363186    2.375294    0.515398
 H   -1.631914   -2.505382    0.028236
 H    0.523306   -3.721421    0.221155
 H    2.655311   -2.447727    0.200470
 H   -1.775685    1.598689    0.720912
 H    3.589130   -0.435060   -0.014853
 H    2.215835    1.649950   -0.811394
