52 
6dki_ligand_dft.xyz
 C    4.488850   -2.769448    0.297795
 C    2.860250   -0.746108    1.048346
 C    2.481345   -2.097555    1.160538
 C   -1.502884    3.225480    0.011271
 C   -4.263348   -0.351552    1.624528
 C   -4.842186   -0.545025    0.376882
 C   -4.689777    0.398920   -0.634493
 C    4.945408   -1.464282    0.131479
 C    6.294043   -1.243124   -0.473229
 C    4.100027   -0.429342    0.544297
 N    3.294562   -3.090176    0.796780
 O    1.978439    0.225403    1.486276
 C    1.137707    0.738828    0.482756
 N    1.224948   -2.420173    1.619143
 C    0.017468    1.547489    1.132019
 C    1.794543    1.771700   -0.447695
 N   -0.353571    2.499776    0.092542
 C    0.646892    2.630182   -0.957990
 C   -2.532161    3.014690    1.114150
 O   -1.709344    3.972428   -0.933999
 C   -3.345329    1.758793    0.866083
 C   -3.521008    0.798198    1.862694
 C   -3.938666    1.540428   -0.378192
 O   -5.567585   -1.721683    0.263050
 C   -6.044159   -2.142148   -0.928001
 F   -5.080351   -2.275666   -1.847192
 F   -6.965508   -1.309784   -1.433510
 F   -6.610266   -3.322654   -0.731373
 F    2.675554    2.523333    0.271801
 F    2.499215    1.207535   -1.463856
 O    7.175344   -2.088161   -0.424266
 N    6.471654   -0.031382   -1.081244
 C    7.707227    0.258208   -1.779336
 H    5.133284   -3.595005    0.008864
 H   -4.402717   -1.103813    2.393200
 H   -5.143398    0.263372   -1.607500
 H    4.390351    0.614612    0.489950
 H    0.730513   -0.067627   -0.140769
 H    0.812517   -1.759451    2.261784
 H    1.123005   -3.391294    1.879430
 H    0.413864    2.044594    2.026536
 H   -0.825077    0.912718    1.414565
 H    0.272901    2.245118   -1.912162
 H    0.955639    3.668503   -1.100191
 H   -3.177761    3.896850    1.096389
 H   -2.056367    2.967895    2.099362
 H   -3.075452    0.948232    2.843141
 H   -3.810823    2.279007   -1.164661
 H    5.650334    0.492687   -1.342426
 H    8.544353   -0.085204   -1.169839
 H    7.790482    1.336816   -1.930703
 H    7.763129   -0.249100   -2.750256
