52 
6dki_ligand_xtb.xyz
 C    4.664984   -2.720039    0.008971
 C    2.914093   -0.858453    0.889300
 C    2.574493   -2.222494    0.772649
 C   -1.483846    3.154688    0.091199
 C   -4.147213   -0.459605    1.630415
 C   -4.815533   -0.564194    0.419513
 C   -4.730830    0.443886   -0.525453
 C    5.098137   -1.400575    0.089365
 C    6.500786   -1.075750   -0.296352
 C    4.186603   -0.450749    0.555187
 N    3.452237   -3.120044    0.337804
 O    1.961713    0.049106    1.368650
 C    1.107545    0.544436    0.376705
 N    1.311645   -2.659429    1.058582
 C   -0.052619    1.307836    1.021062
 C    1.747107    1.608574   -0.549783
 N   -0.413016    2.323252    0.056314
 C    0.594002    2.506066   -0.973619
 C   -2.466754    2.920686    1.229641
 O   -1.644299    4.001886   -0.759336
 C   -3.288139    1.689349    0.962111
 C   -3.387407    0.663488    1.895854
 C   -3.966797    1.563845   -0.243150
 O   -5.553729   -1.749806    0.253643
 C   -6.324081   -1.915854   -0.801173
 F   -5.658855   -1.955148   -1.970857
 F   -7.264744   -0.968440   -0.954678
 F   -6.960885   -3.075924   -0.688051
 F    2.712315    2.311475    0.097579
 F    2.381127    1.045008   -1.612179
 O    7.410863   -1.871516   -0.168635
 N    6.671222    0.166643   -0.806030
 C    7.955430    0.645482   -1.252112
 H    5.341618   -3.489334   -0.335525
 H   -4.237683   -1.260024    2.346042
 H   -5.244692    0.382960   -1.471050
 H    4.458060    0.585885    0.689071
 H    0.745108   -0.263833   -0.277105
 H    0.785914   -2.110472    1.719916
 H    1.220966   -3.660023    1.133831
 H    0.312489    1.750266    1.957419
 H   -0.895510    0.648571    1.235087
 H    0.215863    2.195157   -1.953517
 H    0.896306    3.555490   -1.036486
 H   -3.121533    3.794255    1.260530
 H   -1.940554    2.839071    2.180452
 H   -2.881251    0.746368    2.846760
 H   -3.898381    2.355577   -0.973310
 H    5.869883    0.753750   -0.970118
 H    8.684776   -0.133442   -1.034989
 H    8.229836    1.558879   -0.720831
 H    7.947397    0.844112   -2.325766
