22 
6dko_ligand_dft.xyz
 C   -1.955338   -1.187565   -0.245341
 C   -4.075654   -0.204383    0.213449
 C   -2.109881    1.154177    0.134419
 C    3.557373    0.018625   -0.161267
 C    2.364816   -0.326124    0.758235
 C    1.101797   -0.909873    0.114368
 C    0.165563    0.197010   -0.353240
 C   -1.299047    0.044350   -0.147103
 C   -3.319781   -1.335464   -0.077956
 C   -3.477857    1.045559    0.326268
 F   -1.232330   -2.275186   -0.546436
 F   -1.550012    2.351064    0.265950
 O    3.284856    0.785993   -1.211930
 O    4.647150   -0.429104    0.070882
 O    2.450321   -0.190597    1.951111
 O    0.612695    1.208413   -0.870822
 H   -5.147232   -0.299291    0.353385
 H    0.620042   -1.552089    0.852031
 H    1.361400   -1.520729   -0.759532
 H   -3.766241   -2.316996   -0.181806
 H   -4.049216    1.936110    0.559056
 H    2.350192    1.094591   -1.183684
