22 
6dlx_ligand_dft.xyz
 C   -3.514143   -1.461786    1.022489
 C   -1.829858   -0.443294   -0.232317
 C   -0.587072   -1.051766   -0.172208
 C    0.568363   -0.277887   -0.166297
 C    0.476147    1.113172   -0.219623
 C   -0.777726    1.716219   -0.284891
 C   -1.947342    0.955810   -0.295866
 C    2.126228    2.195027    1.030272
 N   -3.214561    1.527098   -0.322432
 O   -2.978933   -1.200116   -0.268677
 O    1.588251    1.905865   -0.251839
Br    2.263417   -1.115804   -0.109980
 H   -2.808495   -2.045581    1.626407
 H   -3.751465   -0.528423    1.548046
 H   -4.427337   -2.040301    0.870108
 H   -0.529816   -2.134393   -0.144270
 H   -0.821164    2.800262   -0.336314
 H    1.392283    2.725010    1.651139
 H    2.444257    1.279385    1.542379
 H    2.993431    2.835439    0.861873
 H   -3.916057    0.904687   -0.703103
 H   -3.255422    2.448395   -0.735170
