74 
6dn6_ligand_xtb.xyz
 N   -3.300948   -0.437636    0.173806
 C   -3.192993    0.751255   -0.638129
 C   -1.813267    1.412182   -0.574963
 O   -1.415770    2.097451   -1.502234
 C   -4.303421    1.777710   -0.326777
 C   -4.258664    2.246171    1.133678
 C   -5.663139    1.183343   -0.686418
 C   -5.044827    3.534031    1.357842
 N   -1.127500    1.258961    0.566157
 C    0.297439    1.493584    0.659834
 C    0.811216    0.526573    1.724628
 O    0.076886    0.154227    2.625528
 C    0.623345    2.943671    1.090129
 C    1.437131    3.696787    0.039392
 O    2.502630    4.222918    0.307604
 N    0.859279    3.744116   -1.163849
 N    2.095573    0.129841    1.662608
 C    3.002296    0.175011    0.532821
 C    3.835172   -1.125724    0.513303
 O    5.023286   -1.135912    0.754129
 C    3.922783    1.396619    0.527608
 C    3.939747    2.031671   -0.857092
 O    3.250025    1.633519   -1.774579
 N    4.822695    3.039659   -0.985526
 N    3.158892   -2.251323    0.221744
 C    1.757020   -2.416790   -0.067025
 C    1.394097   -3.854053    0.333126
 O    2.205718   -4.748814    0.185166
 C    1.429752   -2.213866   -1.565244
 C    0.003283   -1.700694   -1.693029
 O   -0.462009   -0.942525   -0.857707
 N   -0.706205   -2.128763   -2.739279
 N    0.173136   -4.102479    0.835010
 C   -0.948525   -3.240670    1.137445
 C   -2.231610   -3.789632    0.506384
 C   -3.397661   -2.809567    0.662982
 C   -3.293756   -1.677164   -0.350633
 O   -3.247756   -1.894412   -1.547605
 H   -3.342631   -0.321089    1.173441
 H   -3.309050    0.418449   -1.676026
 H   -4.111043    2.640376   -0.972743
 H   -4.666193    1.468128    1.784116
 H   -3.220949    2.423460    1.423518
 H   -5.874947    0.312286   -0.069485
 H   -6.453486    1.912920   -0.536316
 H   -5.678986    0.874553   -1.728469
 H   -4.667150    4.325860    0.715277
 H   -4.948170    3.856619    2.391882
 H   -6.101225    3.393332    1.145685
 H   -1.463336    0.637740    1.292135
 H    0.741188    1.290321   -0.318663
 H    1.175567    2.959673    2.031111
 H   -0.313751    3.481704    1.242950
 H    0.021454    3.202425   -1.377124
 H    1.375112    4.143722   -1.930148
 H    2.409232   -0.407742    2.461764
 H    2.418233    0.209975   -0.395093
 H    4.937465    1.090063    0.793195
 H    3.583240    2.147951    1.240188
 H    4.787572    3.589209   -1.829173
 H    5.191085    3.487641   -0.164753
 H    3.695091   -3.113797    0.180499
 H    1.174949   -1.698141    0.510688
 H    1.577799   -3.138447   -2.123374
 H    2.099241   -1.453684   -1.976452
 H   -1.693682   -1.894177   -2.753485
 H   -0.338121   -2.775270   -3.413681
 H    0.031334   -5.078028    1.070173
 H   -1.069136   -3.178720    2.226231
 H   -0.766552   -2.237946    0.757345
 H   -2.487220   -4.743952    0.972075
 H   -2.067104   -3.961905   -0.559018
 H   -3.435937   -2.428149    1.683850
 H   -4.330923   -3.336307    0.451594
