74 
6dn6_ligand_dft.xyz
 N   -3.299664   -0.665967    0.295496
 C   -3.241986    0.465048   -0.612003
 C   -1.983472    1.316798   -0.426102
 O   -1.728860    2.189584   -1.253215
 C   -4.514911    1.334391   -0.576895
 C   -4.710428    2.006692    0.791468
 C   -5.730236    0.511099   -1.007185
 C   -5.843895    3.031280    0.819238
 N   -1.240490    1.078679    0.670006
 C    0.140188    1.499398    0.782285
 C    0.778235    0.528978    1.785810
 O    0.088959   -0.012799    2.643727
 C    0.306288    2.966336    1.284045
 C    1.016918    3.896233    0.302890
 O    1.988828    4.567956    0.648663
 N    0.512157    3.912620   -0.943146
 N    2.122441    0.341282    1.726911
 C    2.967164    0.469311    0.536227
 C    3.964525   -0.714528    0.532121
 O    5.140349   -0.561488    0.805325
 C    3.703438    1.799709    0.433626
 C    3.864361    2.175520   -1.030014
 O    3.898543    1.325575   -1.910814
 N    4.001045    3.506373   -1.269717
 N    3.436530   -1.940446    0.266687
 C    2.077466   -2.226838   -0.121549
 C    1.799296   -3.681473    0.271368
 O    2.683707   -4.518973    0.160881
 C    1.816405   -2.027533   -1.638089
 C    0.344040   -1.716516   -1.829495
 O   -0.134440   -0.710861   -1.307253
 N   -0.408907   -2.603617   -2.507969
 N    0.548422   -4.011583    0.683450
 C   -0.578166   -3.157239    1.038043
 C   -1.888820   -3.903428    0.785974
 C   -3.118537   -3.008464    0.967045
 C   -3.159849   -1.950766   -0.126308
 O   -3.044634   -2.255759   -1.307323
 H   -3.530462   -0.504329    1.265053
 H   -3.133179    0.031255   -1.609034
 H   -4.340171    2.123760   -1.317881
 H   -4.911146    1.240849    1.556157
 H   -3.777004    2.503237    1.085222
 H   -5.976233   -0.249578   -0.256855
 H   -6.610966    1.145098   -1.142509
 H   -5.539840   -0.003899   -1.954332
 H   -5.698474    3.793460    0.045502
 H   -5.884109    3.539613    1.787474
 H   -6.818986    2.563204    0.651894
 H   -1.464805    0.279795    1.247547
 H    0.600357    1.387737   -0.202837
 H    0.870507    3.011129    2.217848
 H   -0.693083    3.364494    1.485150
 H   -0.300817    3.347594   -1.198451
 H    0.959039    4.499025   -1.630857
 H    2.470138   -0.233671    2.484712
 H    2.326450    0.360733   -0.341441
 H    4.703330    1.690061    0.867705
 H    3.184601    2.583144    0.989224
 H    4.041907    3.782332   -2.240081
 H    3.619142    4.170593   -0.602899
 H    4.080508   -2.723068    0.251226
 H    1.413185   -1.559540    0.423524
 H    2.161854   -2.900980   -2.200172
 H    2.390384   -1.157963   -1.974208
 H   -1.418693   -2.501729   -2.443538
 H   -0.022998   -3.475534   -2.831830
 H    0.477808   -4.987987    0.942866
 H   -0.510396   -2.836958    2.086538
 H   -0.555865   -2.252827    0.426764
 H   -1.964843   -4.762176    1.463842
 H   -1.887382   -4.286721   -0.239090
 H   -3.123215   -2.555442    1.965477
 H   -4.025037   -3.616007    0.875312
