87 
6do3_ligand_dft.xyz
 N   -3.487453   -0.233053   -1.217634
 C   -2.329220    0.722061   -1.242989
 C   -2.964702    2.110886   -1.051190
 O   -4.185984    2.220415   -1.156169
 C   -1.731242    0.559868   -2.654383
 C   -2.912496    0.073437   -3.498856
 C   -3.604144   -0.902576   -2.557130
 N   -2.153088    3.169088   -0.880017
 C   -0.779847    3.117301   -0.388082
 C   -0.736360    2.431432    0.983411
 O   -1.780002    2.368324    1.643252
 C   -0.383414    4.613038   -0.226515
 C   -1.491404    5.394512   -0.945865
 C   -2.721211    4.513263   -0.761475
 N    0.442725    2.020805    1.480165
 C    1.739564    1.959226    0.800481
 C    1.757990    0.886427   -0.301778
 O    0.730696    0.578334   -0.907941
 C    2.745758    1.691010    1.948446
 C    1.987474    2.065025    3.222979
 C    0.560009    1.645720    2.892667
 N    2.954645    0.350330   -0.582513
 C    3.149580   -0.640525   -1.641537
 C    2.737194   -2.040073   -1.125379
 O    3.540173   -2.934822   -0.902714
 C    4.580436   -0.612569   -2.188585
 C    5.717719   -0.827130   -1.180857
 S    6.093857    0.689528   -0.223260
 C    7.199492   -0.014962    1.028282
 N    1.404130   -2.175004   -0.936414
 C    0.845817   -3.330624   -0.281647
 C   -0.658482   -3.311952   -0.530784
 O   -1.233694   -2.359838   -1.041620
 C    1.123013   -3.312248    1.232356
 N   -1.353660   -4.383326   -0.060859
 C   -2.800949   -4.352124   -0.093803
 C   -3.339603   -3.207385    0.769259
 O   -4.195099   -2.432015    0.351888
 N   -2.834300   -3.129371    2.020630
 C   -3.124686   -1.983680    2.845244
 C   -2.355137   -0.746774    2.392395
 O   -2.757524    0.335236    3.022122
 O   -1.482664   -0.780289    1.543646
 H   -3.439989   -0.940349   -0.469972
 H   -4.313868    0.372713   -1.058777
 H   -1.621743    0.449907   -0.459899
 H   -1.294537    1.492388   -3.017392
 H   -0.945570   -0.196111   -2.613391
 H   -3.583393    0.900020   -3.754586
 H   -2.598435   -0.413455   -4.424076
 H   -3.060898   -1.844063   -2.480418
 H   -4.657024   -1.091110   -2.766934
 H   -0.140720    2.594610   -1.098430
 H   -0.365882    4.880103    0.834927
 H    0.609304    4.811051   -0.637325
 H   -1.261507    5.494405   -2.011140
 H   -1.627615    6.395112   -0.530737
 H   -3.177148    4.637724    0.227993
 H   -3.491802    4.656298   -1.519581
 H    1.955670    2.920391    0.317205
 H    2.991434    0.624377    1.979815
 H    3.678153    2.242771    1.812092
 H    2.383520    1.560756    4.106747
 H    2.026477    3.144857    3.398132
 H   -0.201159    2.169354    3.471834
 H    0.407362    0.565853    3.005705
 H    3.781186    0.619844   -0.052269
 H    2.462750   -0.373659   -2.452586
 H    4.646606   -1.413780   -2.930541
 H    4.729306    0.330431   -2.727249
 H    5.461703   -1.638009   -0.496331
 H    6.623795   -1.112345   -1.722431
 H    7.509824    0.797038    1.689116
 H    8.087286   -0.441213    0.554832
 H    6.691114   -0.783505    1.616039
 H    0.792282   -1.372761   -1.065928
 H    1.290805   -4.231501   -0.720315
 H    0.614542   -2.457125    1.689630
 H    0.783785   -4.233129    1.718287
 H    2.200257   -3.228947    1.391276
 H   -0.868605   -5.222616    0.217463
 H   -3.182607   -5.305721    0.280250
 H   -3.178328   -4.196061   -1.106805
 H   -2.000925   -3.662317    2.222162
 H   -2.878523   -2.203318    3.887452
 H   -4.193500   -1.764482    2.800107
 H   -2.310172    1.130578    2.616995
