34 
6dpx_ligand_xtb.xyz
 C    2.220058   -1.338072    1.311071
 C    0.332429   -2.804753    1.395165
 C    0.546267   -1.222631   -0.433681
 C   -0.769580    1.955900   -0.588025
 C   -3.319597    0.391947   -0.543814
 C   -3.226724    1.878586   -0.241251
 C   -1.826911    2.035755    0.304186
 C   -1.572629    2.108876    1.666562
 C   -0.262696    2.107761    2.120676
 C    0.793289    1.988505    1.237493
 C    0.540848    1.902619   -0.130068
 C    1.735631   -0.786450    0.141464
 C    1.520464   -2.348902    1.944352
 C   -0.147503   -2.249264    0.223292
 N    1.589358    1.708702   -1.022860
 O   -2.832784   -0.114749   -1.515717
 O   -3.907581   -0.360765    0.394103
 O    3.251429    0.069818   -1.883464
 O    3.611124    1.017037    0.351593
 O    0.099916   -0.656231   -1.562397
 S    2.709641    0.512587   -0.638181
Cl   -1.633961   -2.812133   -0.469323
 H    3.144236   -0.947515    1.704795
 H   -0.226495   -3.594836    1.871527
 H   -0.966775    1.878401   -1.646416
 H   -3.981312    2.199738    0.477619
 H   -3.337618    2.437637   -1.169811
 H   -2.387922    2.171355    2.373037
 H   -0.066097    2.178387    3.179658
 H    1.812995    1.950563    1.583207
 H    1.893387   -2.783399    2.857630
 H    1.295602    1.600225   -1.983620
 H   -4.231458    0.153947    1.144909
 H   -0.807876   -0.960702   -1.760610
