34 
6dpx_ligand_dft.xyz
 C    1.657547    0.627711    1.984689
 C    3.221662   -1.193923    1.866900
 C    2.594696   -0.011521   -0.162033
 C   -1.889897    0.341207   -0.133199
 C   -5.186950   -0.393907    0.468727
 C   -3.829118   -0.647277    1.133830
 C   -2.670365   -0.773449    0.175192
 C   -2.414447   -1.988612   -0.467584
 C   -1.381805   -2.086881   -1.391207
 C   -0.585562   -0.982716   -1.678472
 C   -0.843792    0.236119   -1.053311
 C    1.766072    0.810182    0.611293
 C    2.388188   -0.371829    2.615950
 C    3.315206   -1.014512    0.493716
 N   -0.051468    1.373601   -1.363728
 O   -6.224768   -0.736624    0.967256
 O   -5.166981    0.279868   -0.694691
 O    1.737198    3.025513   -0.851939
 O   -0.090682    2.614249    0.849983
 O    2.642886    0.175712   -1.496186
 S    0.835953    2.130851   -0.156589
Cl    4.346829   -2.054388   -0.464029
 H    0.994326    1.278771    2.542757
 H    3.799000   -1.981748    2.338295
 H   -2.073252    1.295975    0.349916
 H   -3.947693   -1.547038    1.741561
 H   -3.661610    0.186410    1.826436
 H   -3.029786   -2.855281   -0.242893
 H   -1.183686   -3.033130   -1.884819
 H    0.241919   -1.065885   -2.376919
 H    2.309150   -0.513204    3.687803
 H    0.551220    1.251566   -2.171880
 H   -4.251705    0.437973   -0.972875
 H    3.311223   -0.411936   -1.879700
