44 
6dpz_ligand_xtb.xyz
 N    0.318344   -0.864602   -0.858359
 C   -2.367610   -1.928635   -0.110729
 O   -1.851466   -2.632457   -0.946196
 C   -1.738385   -0.708808    0.511720
 C    4.405154    0.495653    0.672368
 C    4.350218    0.818411   -0.823826
 C    2.847078    0.770126   -1.167052
 C   -2.779199    0.183293    1.204507
 C   -2.248918    1.545801    1.667202
 C   -2.622032    2.719024    0.756372
 C   -1.986179    2.770990   -0.635483
 C   -2.441757    1.660200   -1.591358
 C   -1.439531    0.516087   -1.765530
 C   -0.789633   -0.003581   -0.481898
 C    3.036084    0.968423    1.159251
 N    2.124217    0.599699    0.087197
 O   -3.582698   -2.208245    0.371304
 O    1.037708   -1.076235    1.595885
 O    2.453953   -1.960084   -0.204390
 S    1.536536   -0.963097    0.253525
 H    0.010227   -1.768548   -1.196673
 H   -1.066568   -1.098333    1.291296
 H    5.228322    0.991647    1.182442
 H    4.481564   -0.581403    0.819993
 H    4.916235    0.101153   -1.412930
 H    4.747085    1.816249   -1.013291
 H    2.511533    1.697998   -1.637578
 H    2.592918   -0.067284   -1.815193
 H   -3.641031    0.328216    0.554437
 H   -3.139070   -0.371188    2.072935
 H   -1.168885    1.499844    1.808469
 H   -2.684372    1.763870    2.645394
 H   -3.709140    2.732836    0.640011
 H   -2.344931    3.639490    1.277541
 H   -0.899102    2.766085   -0.549736
 H   -2.265462    3.734926   -1.068473
 H   -3.404635    1.271800   -1.262402
 H   -2.604386    2.088634   -2.583224
 H   -0.619358    0.859226   -2.399645
 H   -1.922773   -0.315402   -2.281384
 H   -0.305981    0.822935    0.041117
 H    2.702845    0.494873    2.080185
 H    3.009548    2.056816    1.272332
 H   -3.918814   -3.026294   -0.029979
