44 
6dpz_ligand_dft.xyz
 N    0.233672   -1.026118   -0.749892
 C   -2.639966   -1.727678   -0.241562
 O   -2.233927   -2.347623   -1.203664
 C   -1.903811   -0.607469    0.464549
 C    4.477796    1.007578    0.502467
 C    4.012145    1.338955   -0.919284
 C    2.998186    0.233566   -1.202940
 C   -2.866153    0.415497    1.105066
 C   -2.185715    1.669658    1.688900
 C   -2.260373    2.932942    0.817346
 C   -1.531031    2.949128   -0.534221
 C   -2.046360    1.943859   -1.584336
 C   -1.211366    0.663152   -1.725298
 C   -0.784795   -0.020710   -0.422450
 C    3.196879    0.543859    1.207463
 N    2.329955    0.075574    0.099952
 O   -3.816501   -2.028124    0.331386
 O    0.987943   -1.222265    1.724101
 O    2.112815   -2.504609   -0.121966
 S    1.440864   -1.300491    0.340580
 H   -0.141058   -1.891903   -1.129919
 H   -1.375465   -1.099091    1.294739
 H    4.945321    1.854174    1.011693
 H    5.204231    0.188385    0.471827
 H    4.825542    1.349461   -1.648965
 H    3.517631    2.316515   -0.942437
 H    2.263749    0.495390   -1.967649
 H    3.499991   -0.696059   -1.502471
 H   -3.640171    0.713777    0.390890
 H   -3.396459   -0.111582    1.902820
 H   -1.144401    1.448764    1.957392
 H   -2.682024    1.912810    2.635176
 H   -3.321889    3.151706    0.631933
 H   -1.880532    3.772125    1.413847
 H   -0.451649    2.811211   -0.380797
 H   -1.641169    3.962629   -0.937565
 H   -3.095824    1.704992   -1.379363
 H   -2.049270    2.423943   -2.569469
 H   -0.278222    0.916109   -2.242039
 H   -1.733567   -0.056696   -2.365319
 H   -0.261803    0.722252    0.184458
 H    3.383539   -0.245095    1.939589
 H    2.693105    1.366550    1.724933
 H   -4.174077   -2.781772   -0.166049
