52 
6dq4_ligand_dft.xyz
 O    5.988771   -2.477778    1.287263
 C    5.290019   -2.286086    0.146215
 O    5.263934   -3.141635   -0.697618
 C    4.565966   -0.957129    0.037394
 C    3.864898   -0.788695   -1.316306
 N    3.077508    0.416309   -1.395974
 C    1.909968    0.623582   -0.719271
 N    1.481288    1.899430   -0.723391
 C    0.348654    2.130687   -0.076462
 C   -0.149415    3.546032   -0.043155
 N    0.648267    4.491335   -0.550127
 C    0.212240    5.748777   -0.525443
 C   -1.020911    6.134067   -0.006165
 C   -1.844479    5.145948    0.520358
 C   -1.403636    3.829785    0.504289
 N   -0.415661    1.237083    0.551112
 C    0.004712   -0.041628    0.541619
 C    1.212024   -0.402189   -0.077526
 N   -0.791902   -0.951810    1.174096
 C   -1.953011   -0.507424    1.925163
 C   -3.223120   -0.427859    1.074183
 C   -3.529531   -1.592787    0.146166
 C   -2.914126   -2.855662    0.195170
 C   -1.834870   -3.209771    1.197783
 C   -0.556132   -2.380434    1.042174
 C   -4.507572   -1.366497   -0.828254
 C   -4.888801   -2.347150   -1.733710
 C   -4.276959   -3.594644   -1.685758
 C   -3.299319   -3.832631   -0.729142
 H    5.910105   -1.704275    1.861556
 H    5.278379   -0.136901    0.195858
 H    3.827775   -0.887872    0.847900
 H    3.235228   -1.660983   -1.514931
 H    4.607410   -0.768036   -2.117217
 H    3.517457    1.271322   -1.703848
 H    0.887132    6.492751   -0.944795
 H   -1.320940    7.176915   -0.016628
 H   -2.816118    5.395597    0.936710
 H   -2.003218    3.020586    0.902521
 H    1.588512   -1.415142   -0.055382
 H   -1.738566    0.485236    2.322317
 H   -2.085850   -1.172607    2.782117
 H   -3.137269    0.472439    0.454589
 H   -4.079050   -0.263249    1.743559
 H   -1.547956   -4.257596    1.059232
 H   -2.215974   -3.144378    2.222138
 H    0.193035   -2.726026    1.771519
 H   -0.157058   -2.575839    0.041288
 H   -4.977826   -0.386628   -0.874634
 H   -5.652587   -2.134940   -2.475915
 H   -4.553784   -4.374735   -2.388436
 H   -2.816582   -4.806512   -0.692620
