54 
6dq6_ligand_dft.xyz
 C   -0.485676   -3.765811    0.532810
 C   -1.472809   -0.898191   -1.731838
 C   -2.076825   -1.978815    1.366517
 C   -1.060824   -1.590688    2.458687
 C   -1.865159    2.618475    0.337508
 C   -3.860100    3.412103    1.400757
 C   -3.178015    4.121652   -0.773013
 C    5.888869    0.720152   -0.129605
 C    4.553039    1.439806   -0.169938
 C    3.709060    1.017168   -1.378148
 C    1.396188    1.245874   -0.498162
 C    1.463260    0.106790    0.309939
 C    0.358298   -0.136484    1.138569
 C    1.204277   -2.339191    1.826929
 C    0.956220   -3.256878    0.625809
 C   -2.297472    0.109877   -1.982264
 C   -0.645850    1.748730    0.336894
 C   -2.729532    2.606788    1.434158
 C   -4.094250    4.190216    0.273044
 N    2.386229    1.593104   -1.368005
 N    0.256117   -1.238799    1.946090
 N   -1.440792   -2.693067    0.267751
 N   -0.682704    0.713637    1.173467
 N   -2.084777    3.361233   -0.752509
 N    0.329111    2.067459   -0.501922
 O    6.726500    1.098529    0.860237
 O    6.213663   -0.141449   -0.901979
 O   -3.526796   -2.413901   -1.160063
 O   -1.431268   -3.486309   -2.100677
 S   -2.076588   -2.492599   -1.254146
 H   -0.786485   -4.269709    1.461242
 H   -0.561968   -4.499285   -0.270273
 H   -0.390193   -0.839061   -1.792834
 H   -2.520897   -1.066819    0.962655
 H   -2.881388   -2.575879    1.817319
 H   -0.914951   -2.422130    3.153889
 H   -1.471481   -0.753991    3.027633
 H   -4.548343    3.429631    2.240531
 H   -3.331831    4.706724   -1.677458
 H    4.718344    2.524867   -0.187691
 H    4.007062    1.223423    0.758341
 H    3.645081   -0.074303   -1.417820
 H    4.206603    1.319096   -2.302253
 H    2.302651   -0.571632    0.252871
 H    2.221612   -1.937858    1.804452
 H    1.132507   -2.921182    2.752512
 H    1.190277   -2.733446   -0.308130
 H    1.638390   -4.113403    0.694205
 H   -3.372272   -0.017063   -1.893373
 H   -1.913566    1.087325   -2.260776
 H   -2.504375    1.971992    2.282502
 H   -4.965998    4.831847    0.198379
 H    2.228084    2.476755   -1.829622
 H    6.323246    1.796319    1.393873
