55 
6dqa_ligand_xtb.xyz
 C   -3.673303   -1.022143    0.645549
 C   -3.645383    0.405412    0.271235
 C   -2.451735    0.912047   -0.230325
 C   -2.352393    2.273534   -0.597016
 C   -1.047352    2.593606   -1.085974
 C   -0.224043    1.525173   -1.085266
 C    1.211427    1.405523   -1.479663
 C    2.129874    1.801138   -0.340435
 C    3.173504    2.688892   -0.560938
 C    4.038195    2.998626    0.477632
 C    3.878222    2.426493    1.722114
 C    2.827866    1.536344    1.961170
 C    1.957671    1.233607    0.913924
 C    2.661682   -0.488407   -1.972975
 C    2.492315   -2.012797   -1.956221
 C    2.119112   -2.381096    0.457022
 C    1.034915   -2.591023    1.506074
 C    0.321334   -3.916375    1.268127
 C   -0.258245   -3.915557   -0.141613
 C    0.841755   -3.672371   -1.166447
 C   -4.518623    2.616608   -0.013329
 C   -4.711909    1.290586    0.379465
 N    2.701222    0.897842    3.174286
 N    1.524560   -2.386125   -0.899684
 N   -3.385458    3.096152   -0.480957
 O   -2.694457   -1.733515    0.537998
 O   -4.839778   -1.446686    1.103245
 O    1.357249    0.026773   -1.842532
 S   -0.987491    0.058374   -0.487539
 H   -0.775491    3.578906   -1.414094
 H    1.423135    2.039241   -2.352807
 H    3.307638    3.138096   -1.532693
 H    4.845745    3.693625    0.309466
 H    4.558060    2.669067    2.524603
 H    1.131307    0.561382    1.096498
 H    3.120564   -0.175398   -2.919075
 H    3.301461   -0.141573   -1.151839
 H    3.446287   -2.514098   -1.791628
 H    2.081742   -2.328962   -2.916635
 H    2.622945   -1.427343    0.620579
 H    2.856688   -3.186004    0.507110
 H    0.305038   -1.781491    1.449433
 H    1.494565   -2.571004    2.493675
 H    1.019068   -4.746526    1.391837
 H   -0.479901   -4.040579    1.993664
 H   -0.731536   -4.872214   -0.359216
 H   -1.019184   -3.137227   -0.216110
 H    1.590242   -4.468002   -1.123601
 H    0.418015   -3.641041   -2.171345
 H   -5.327072    3.330414    0.056217
 H   -5.662023    0.953761    0.759119
 H    3.195204    1.317135    3.946240
 H    1.782173    0.560196    3.412546
 H    0.811684   -1.630130   -0.923984
 H   -4.812192   -2.388805    1.334796
