56 
6dqb_ligand_xtb.xyz
 C    2.514178    2.740959   -0.164542
 C    3.262621    1.512228   -0.473587
 C    2.720921    0.264611   -0.163488
 C    3.475936   -0.901953   -0.454241
 C    2.797246   -2.082605   -0.033479
 C    1.602131   -1.818940    0.538654
 C    0.615568   -2.799518    1.110715
 C   -0.505757   -3.000677    0.115351
 C   -0.556080   -4.103805   -0.723975
 C   -1.608821   -4.247833   -1.612923
 C   -2.607741   -3.292950   -1.682210
 C   -2.541653   -2.179909   -0.855036
 C   -3.326851    0.117054   -0.797725
 C   -4.544065    1.020679   -0.718987
 C   -4.498206    1.949758    0.508251
 C   -3.643054    3.205440    0.331694
 C   -1.607747    2.744277    1.632826
 C   -1.449370    3.965490   -0.434826
 C   -1.499959   -2.039130    0.047714
 C    0.939974   -2.377821    3.410562
 C    5.169596    0.327473   -1.325889
 C    4.521505    1.534061   -1.069425
 N   -3.558812   -1.192136   -0.909403
 N   -2.189146    2.933073    0.297693
 N    4.669179   -0.852314   -1.027661
 O    3.201935    3.855605   -0.388717
 O    1.373083    2.751709    0.254361
 O   -2.184915    0.579696   -0.741507
 O    0.053320   -2.324351    2.317717
 S    1.217983   -0.107950    0.587300
 H    3.215814   -3.063785   -0.155816
 H    1.134883   -3.756094    1.282174
 H    0.217160   -4.855038   -0.678848
 H   -1.653446   -5.112811   -2.255849
 H   -3.428000   -3.408952   -2.374737
 H   -5.450668    0.418272   -0.671426
 H   -4.589030    1.619351   -1.632309
 H   -4.168852    1.382933    1.380420
 H   -5.516029    2.286353    0.709574
 H   -3.920757    3.690173   -0.607108
 H   -3.849101    3.904886    1.146504
 H   -0.556300    2.483453    1.523283
 H   -2.112949    1.937908    2.157580
 H   -1.694250    3.660986    2.215572
 H   -0.391423    3.709601   -0.414093
 H   -1.784409    4.008396   -1.468821
 H   -1.594996    4.939676    0.031880
 H   -1.454091   -1.197538    0.717303
 H    1.824456   -1.752416    3.246484
 H    0.386087   -2.005070    4.269158
 H    1.264657   -3.406127    3.604581
 H    6.144972    0.314784   -1.791050
 H    4.980533    2.474557   -1.324778
 H   -4.494363   -1.521116   -1.104140
 H   -2.069173    1.984903   -0.221308
 H    2.693371    4.646959   -0.152867
