20 
6dsp_ligand_dft.xyz
 O    1.678348    0.002437    1.281164
 C    1.083638    0.149188   -0.000700
 C    2.059362   -0.268991   -1.080953
 O    0.727683    1.500750   -0.202010
 C   -0.681403    1.675401   -0.069414
 C   -1.266437    0.357732   -0.576101
 O   -2.586630    0.093656   -0.197490
 C   -0.258973   -0.644390    0.018298
 O   -0.688694   -0.874584    1.331742
 O   -0.128549   -1.833499   -0.692822
 H    2.048646    0.866017    1.504945
 H    2.399194   -1.290346   -0.902043
 H    2.916528    0.410815   -1.064285
 H    1.586501   -0.219825   -2.064306
 H   -0.967149    2.547100   -0.660424
 H   -0.966610    1.838749    0.979161
 H   -1.219477    0.318596   -1.668157
 H   -2.541888   -0.126501    0.746394
 H    0.106531   -0.809515    1.889336
 H   -0.996658   -2.258809   -0.672078
