45 
6dtw_ligand_dft.xyz
 N    5.242271    2.148145   -1.766345
 C    4.175225    2.274187   -1.330524
 C   -3.528742   -1.397963   -0.119643
 C   -4.622854   -1.085330   -0.920379
 C   -4.605245   -0.064448   -1.852346
 C   -3.434473    0.681813   -1.984761
 C   -2.331757    0.393048   -1.204261
 C   -2.362285   -0.654004   -0.266731
 C   -0.727988    1.896596   -0.388520
 C   -1.209074   -1.811732    1.468366
 C    0.166022   -1.743377    2.107176
 C    1.438011   -3.483610    0.993013
 C    3.216721   -2.889081   -0.669345
 C    2.892450   -1.492327   -0.417133
 C    1.930781   -1.176714    0.467931
 C    0.664043    2.198239   -0.445490
 C    0.425317    3.556991    1.562302
 C   -0.890991    3.248730    1.572468
 C   -1.508645    2.410098    0.604070
 C    1.687031    1.809109   -1.291836
 C    2.539711    3.151141    0.338776
 C    2.863104    2.409914   -0.791711
 F   -5.735951   -1.814361   -0.769767
 F   -1.666464    3.747580    2.541482
 N    1.226490   -2.120906    1.183113
 N    2.433510   -3.778395    0.090837
 N    1.202049    3.020662    0.546379
 O   -1.153012    1.089493   -1.390210
 O   -1.226991   -0.841073    0.436651
 O    0.790234   -4.331879    1.579413
 O    4.052422   -3.315544   -1.438667
 H   -3.608433   -2.217256    0.583797
 H   -5.482419    0.139374   -2.454118
 H   -3.366479    1.492609   -2.701876
 H   -1.978715   -1.586046    2.218379
 H   -1.386052   -2.814557    1.063392
 H    0.197074   -2.422417    2.961022
 H    0.362351   -0.725664    2.453765
 H    3.441558   -0.729547   -0.952150
 H    1.651562   -0.148629    0.667171
 H    0.908869    4.189105    2.292964
 H   -2.567428    2.195721    0.677303
 H    1.593681    1.164337   -2.151617
 H    3.160796    3.746613    0.989639
 H    2.605735   -4.764813   -0.057007
