45 
6dtw_ligand_xtb.xyz
 N    5.639346    1.586443   -2.383238
 C    4.708800    1.636258   -1.715644
 C   -3.891565   -0.037899   -0.330838
 C   -4.721456    0.739317   -1.121423
 C   -4.252929    1.800214   -1.869186
 C   -2.901072    2.089228   -1.812179
 C   -2.043369    1.336853   -1.026507
 C   -2.534592    0.250380   -0.276845
 C    0.042799    1.767110    0.020045
 C   -2.064955   -1.567493    1.200187
 C   -0.849244   -2.113059    1.951804
 C    0.055701   -3.674041    0.342093
 C    2.141303   -3.136691   -0.903464
 C    2.182470   -1.897266   -0.151362
 C    1.230911   -1.625298    0.756883
 C    1.449540    1.758127   -0.184540
 C    1.814813    2.099323    2.173067
 C    0.468247    2.115722    2.346670
 C   -0.448288    1.965257    1.284840
 C    2.231665    1.612710   -1.317234
 C    3.574980    1.904999    0.480392
 C    3.570076    1.708960   -0.896902
 F   -6.031286    0.434248   -1.153559
 F   -0.027463    2.271647    3.589331
 N    0.204262   -2.476594    1.029047
 N    1.046043   -3.937247   -0.562817
 N    2.297651    1.936045    0.906275
 O   -0.698231    1.627235   -1.099491
 O   -1.627852   -0.444378    0.458557
 O   -0.875343   -4.418309    0.543699
 O    2.926650   -3.504604   -1.742369
 H   -4.320460   -0.861369    0.215183
 H   -4.927784    2.379247   -2.476679
 H   -2.486470    2.903477   -2.384190
 H   -2.837325   -1.280213    1.923923
 H   -2.459594   -2.341165    0.531321
 H   -1.154007   -3.007422    2.500434
 H   -0.466821   -1.359993    2.641960
 H    2.992597   -1.218461   -0.350620
 H    1.231633   -0.711721    1.333026
 H    2.518162    2.218543    2.979869
 H   -1.503379    2.019524    1.491801
 H    1.880821    1.459732   -2.316519
 H    4.405961    2.025156    1.146333
 H    0.959505   -4.814734   -1.064968
