45 
6dtx_ligand_dft.xyz
 N    5.241508    2.149046   -1.766713
 C    4.174466    2.274889   -1.330825
 C   -3.528382   -1.398768   -0.119668
 C   -4.622712   -1.086468   -0.920228
 C   -4.605580   -0.065523   -1.852137
 C   -3.435084    0.681140   -1.984675
 C   -2.332148    0.392717   -1.204356
 C   -2.362198   -0.654412   -0.266894
 C   -0.728661    1.896529   -0.388598
 C   -1.208422   -1.811560    1.468228
 C    0.166718   -1.742513    2.106890
 C    1.438953   -3.482866    0.993254
 C    3.217618   -2.888556   -0.669293
 C    2.893146   -1.491782   -0.417466
 C    1.931409   -1.176075    0.467487
 C    0.663342    2.198327   -0.445616
 C    0.424631    3.556530    1.562574
 C   -0.891653    3.248131    1.572768
 C   -1.509283    2.409709    0.604182
 C    1.686316    1.809513   -1.292102
 C    2.538938    3.151335    0.338712
 C    2.862364    2.410321   -0.791911
 F   -5.735530   -1.815894   -0.769527
 F   -1.667070    3.746608    2.541994
 N    1.227192   -2.120144    1.182891
 N    2.434403   -3.777761    0.091044
 N    1.201318    3.020617    0.546405
 O   -1.153691    1.089587   -1.390403
 O   -1.226740   -0.841181    0.436280
 O    0.791484   -4.331064    1.580093
 O    4.053444   -3.315148   -1.438402
 H   -3.607674   -2.218101    0.583771
 H   -5.482913    0.138019   -2.453770
 H   -3.367473    1.492008   -2.701745
 H   -1.978075   -1.585952    2.218258
 H   -1.385086   -2.814556    1.063539
 H    0.198080   -2.421039    2.961127
 H    0.362709   -0.724536    2.452907
 H    3.442155   -0.729040   -0.952628
 H    1.652061   -0.147976    0.666474
 H    0.908199    4.188472    2.293374
 H   -2.568043    2.195196    0.677386
 H    1.592985    1.164896   -2.152001
 H    3.159983    3.746800    0.989618
 H    2.606910   -4.764190   -0.056386
