70 
6duf_ligand_dft.xyz
 C   53.882493  -27.743101   38.194097
 C   52.381993  -27.807318   38.277030
 C   51.705487  -29.005787   38.493271
 C   50.308969  -29.063874   38.517324
 C   49.659667  -30.363345   38.717488
 C   48.374853  -30.551372   39.061677
 C   47.817625  -31.858456   39.198170
 C   49.581911  -27.883919   38.317684
 C   50.217407  -26.669426   38.089318
 C   49.450829  -25.408494   37.800551
 C   51.611820  -26.664921   38.072618
 C   52.586502  -25.217426   36.538134
 C   52.482699  -25.806146   34.333167
 C   51.042508  -27.738589   33.796929
 C   51.634817  -28.843809   34.673817
 C   50.550417  -29.851404   35.020107
 C   49.020080  -31.488740   34.126685
 C   49.622167  -32.605212   34.949543
 C   50.824148  -33.195070   34.553461
 C   51.420705  -34.178145   35.333334
 C   50.800156  -34.572127   36.515024
 C   49.593224  -34.012136   36.921665
 C   49.010870  -33.030050   36.129980
 C   49.422994  -29.447451   32.934868
 C   50.444256  -28.377452   32.545690
 C   53.715360  -23.992570   34.846056
 C   54.577472  -22.859395   34.631385
 C   54.883286  -22.224313   35.788075
 C   53.409358  -24.140361   36.212045
 N   47.348553  -32.916263   39.291605
 N   52.112861  -26.018602   35.617407
 N   52.002410  -26.706873   33.438471
 N   50.000072  -30.458878   33.811487
 N   50.463997  -36.893343   37.850274
 N   53.265012  -24.821380   33.889166
 O   52.271305  -25.458627   37.830478
 O   52.734832  -36.304638   36.823465
 O   51.856445  -35.092590   38.871025
 S   51.633067  -35.726170   37.579990
 S   54.166395  -22.933079   37.205170
 H   54.281510  -26.935051   38.814201
 H   54.332186  -28.685322   38.516863
 H   54.202146  -27.551427   37.162731
 H   52.280204  -29.917517   38.638316
 H   50.287145  -31.241203   38.572631
 H   47.698418  -29.724820   39.256852
 H   48.495978  -27.910810   38.294887
 H   49.603917  -25.102610   36.759323
 H   48.379498  -25.556268   37.959597
 H   49.786352  -24.584070   38.436614
 H   50.231364  -27.264417   34.369532
 H   52.446262  -29.344830   34.132256
 H   52.038866  -28.414890   35.591645
 H   49.756181  -29.351630   35.612084
 H   50.967879  -30.638148   35.653742
 H   48.147498  -31.070889   34.666640
 H   48.640884  -31.893220   33.179128
 H   51.307333  -32.847839   33.645327
 H   52.360626  -34.634675   35.042587
 H   49.113283  -34.326127   37.842933
 H   48.074740  -32.580992   36.449384
 H   48.554191  -28.953576   33.417604
 H   49.047988  -29.943228   32.032382
 H   51.244505  -28.840567   31.954206
 H   49.953768  -27.621537   31.920675
 H   54.933174  -22.564356   33.652695
 H   55.509840  -21.349474   35.903256
 H   52.220733  -26.529113   32.470518
 H   50.612675  -37.707802   37.262993
 H   50.443831  -37.132743   38.836665
