71 
6dug_ligand_xtb.xyz
 C   -2.832569    0.091683   -3.124231
 C   -2.618027    1.198453   -2.141592
 C   -1.405822    1.853167   -2.033194
 C   -1.197340    2.839958   -1.064125
 C    0.158923    3.263821   -0.816347
 C    0.588439    4.012460    0.218576
 C    1.949918    4.046818    0.529429
 C   -2.276929    3.252036   -0.277576
 C   -3.502613    2.617291   -0.359306
 C   -4.647597    2.988615    0.527181
 C   -3.634203    1.554189   -1.253610
 C   -4.606187   -0.322583   -0.449623
 C   -3.278974   -1.546843    0.948941
 C   -1.082063   -0.626686    1.607028
 C    0.037517   -0.962892    0.600366
 C    1.176916    0.044357    0.681388
 C    2.996485    0.856444    2.162684
 C    4.079168    0.255433    1.303406
 C    4.531542   -1.037398    1.559151
 C    5.499692   -1.605135    0.749335
 C    6.011777   -0.874558   -0.304370
 C    5.589832    0.414733   -0.558188
 C    4.617324    0.984012    0.247925
 C    0.692368    0.511305    3.008196
 C   -0.471900   -0.470224    3.006815
 C   -5.274838   -2.444974    0.429971
 C   -6.338281   -3.387078    0.414537
 C   -7.375127   -2.970892   -0.349135
 C   -5.579447   -1.313729   -0.362123
 N    3.045998    3.897663    0.847178
 N   -3.466355   -0.442916    0.212798
 N   -2.104509   -1.629719    1.633833
 N    1.735484    0.066886    2.055741
 N    8.637393   -1.005534   -0.753371
 N   -4.113090   -2.558704    1.081510
 O   -4.782573    0.770821   -1.206666
 O    7.192511   -3.044146   -1.157750
 O    7.024178   -1.104506   -2.699392
 S    7.226436   -1.632735   -1.386512
 S   -7.140697   -1.433628   -1.097022
 H   -3.796572    0.205706   -3.615936
 H   -2.047789    0.083012   -3.875245
 H   -2.836402   -0.871594   -2.612014
 H   -0.590635    1.564397   -2.681095
 H    0.905689    2.837129   -1.477561
 H   -0.075093    4.516226    0.905782
 H   -2.156421    4.054401    0.433910
 H   -4.833906    2.193260    1.249560
 H   -4.442542    3.909798    1.064969
 H   -5.553773    3.113225   -0.062071
 H   -1.570951    0.301410    1.290887
 H   -0.379333   -0.951071   -0.405739
 H    0.411013   -1.971641    0.792931
 H    0.820803    1.049173    0.442687
 H    1.977451   -0.219038   -0.013100
 H    2.806642    1.888652    1.857479
 H    3.304902    0.852790    3.211428
 H    4.144800   -1.600360    2.398302
 H    5.860457   -2.608233    0.908893
 H    6.012682    0.948395   -1.393296
 H    4.283941    1.996027    0.072776
 H    1.127395    0.580091    4.007530
 H    0.361500    1.506245    2.704138
 H   -0.132336   -1.447534    3.360000
 H   -1.235903   -0.121026    3.700596
 H   -6.307870   -4.314525    0.953740
 H   -8.298190   -3.487113   -0.529227
 H   -1.939385   -2.510726    2.092534
 H    1.975679   -0.905838    2.285892
 H    9.239044   -1.715457   -0.368858
 H    9.127986   -0.415750   -1.405778
