70 
6dug_ligand_dft.xyz
 C   53.883008  -27.743797   38.194509
 C   52.382491  -27.807850   38.277270
 C   51.705840  -29.006257   38.493424
 C   50.309318  -29.064212   38.517341
 C   49.659903  -30.363616   38.717527
 C   48.374969  -30.551571   39.061314
 C   47.817723  -31.858626   39.197978
 C   49.582399  -27.884174   38.317647
 C   50.218039  -26.669746   38.089362
 C   49.451601  -25.408756   37.800485
 C   51.612460  -26.665381   38.072792
 C   52.586916  -25.217749   36.538296
 C   52.482669  -25.806220   34.333280
 C   51.042293  -27.738522   33.797022
 C   51.634423  -28.843795   34.673952
 C   50.549949  -29.851401   35.020046
 C   49.019791  -31.488774   34.126194
 C   49.621822  -32.605215   34.949129
 C   50.823608  -33.195352   34.552908
 C   51.420260  -34.178251   35.332947
 C   50.799978  -34.571768   36.514918
 C   49.593185  -34.011537   36.921679
 C   49.010748  -33.029641   36.129845
 C   49.422776  -29.447307   32.934713
 C   50.444087  -28.377301   32.545709
 C   53.715108  -23.992461   34.846091
 C   54.576931  -22.859082   34.631344
 C   54.882904  -22.224077   35.788034
 C   53.409471  -24.140472   36.212136
 N   47.348590  -32.916392   39.291586
 N   52.113214  -26.018908   35.617591
 N   52.002341  -26.706929   33.438588
 N   49.999770  -30.458791   33.811313
 N   50.464060  -36.892509   37.850920
 N   53.264662  -24.821230   33.889205
 O   52.272116  -25.459174   37.830694
 O   52.734780  -36.304055   36.823764
 O   51.856477  -35.091369   38.870987
 S   51.633035  -35.725416   37.580178
 S   54.166482  -22.933139   37.205221
 H   54.282062  -26.935985   38.814902
 H   54.332541  -28.686169   38.517051
 H   54.202795  -27.551852   37.163239
 H   52.280460  -29.918038   38.638540
 H   50.287433  -31.241511   38.573113
 H   47.698450  -29.724988   39.256066
 H   48.496463  -27.910922   38.294802
 H   49.603921  -25.103568   36.758933
 H   48.380356  -25.556098   37.960515
 H   49.787927  -24.584047   38.435744
 H   50.231151  -27.264265   34.369570
 H   52.445947  -29.344813   34.132510
 H   52.038329  -28.414918   35.591859
 H   49.755649  -29.351668   35.611979
 H   50.967356  -30.638180   35.653667
 H   48.147023  -31.071062   34.665952
 H   48.640904  -31.893198   33.178491
 H   51.306631  -32.848473   33.644553
 H   52.360064  -34.634977   35.042119
 H   49.113426  -34.325234   37.843145
 H   48.074738  -32.580382   36.449311
 H   48.553925  -28.953466   33.417400
 H   49.047848  -29.943015   32.032155
 H   51.244370  -28.840405   31.954264
 H   49.953682  -27.621319   31.920707
 H   54.932332  -22.563854   33.652601
 H   55.509307  -21.349124   35.903166
 H   52.220300  -26.528879   32.470606
 H   50.612504  -37.707078   37.263741
 H   50.443907  -37.131691   38.837359
