62 
6dvn_ligand_xtb.xyz
 C   -0.075603    3.419617    0.387161
 C   -2.231798    4.441406   -0.043695
 C   -4.408099    5.441198   -0.506367
 C   -2.735145    6.643275    0.868383
 C   -0.976951    4.443601    0.585839
 C   -0.387825    2.342052   -0.432672
 C    0.598352    1.253614   -0.679465
 C   -4.428980   -4.278767    0.008882
 C   -3.466669   -3.179330    0.249755
 C   -3.690826   -1.872404   -0.176572
 C   -2.757860   -0.889283    0.091469
 C   -1.588061   -1.187225    0.781048
 C   -0.557814   -0.117569    1.034302
 C   -2.519466    3.365719   -0.898521
 C   -1.615659    2.341375   -1.084618
 C    1.216776   -1.058768   -0.386463
 C    2.398634   -1.070326    0.591635
 C    4.504489    0.077830    1.102349
 C    5.701469   -0.424795    0.336337
 C    5.928883   -1.792326    0.240172
 C    7.001440   -2.273307   -0.488247
 C    7.856065   -1.391717   -1.129552
 C    7.631577   -0.028766   -1.042625
 C    6.556454    0.452511   -0.315225
 C   -1.375522   -2.488638    1.222420
 C   -2.308562   -3.474461    0.963756
 N   -5.268747   -4.109862   -1.041050
 N    0.329973    0.055883   -0.103859
 N   -3.142108    5.440028    0.183479
 N    3.291135   -0.104773    0.330462
 O   -4.530593   -5.277235    0.706005
 O   -6.113291   -5.182413   -1.344375
 O    1.580360    1.412707   -1.392890
 O    2.469068   -1.847579    1.523905
 H    0.884273    3.450517    0.882015
 H   -4.938212    4.503000   -0.328500
 H   -5.026754    6.249198   -0.122784
 H   -4.291092    5.579497   -1.588002
 H   -1.863799    7.104239    0.391427
 H   -3.550168    7.362493    0.853263
 H   -2.490859    6.432206    1.913426
 H   -0.695768    5.251567    1.240120
 H   -4.605623   -1.613196   -0.688472
 H   -2.940930    0.126464   -0.225399
 H    0.049318   -0.397729    1.903981
 H   -1.046194    0.838210    1.234402
 H   -3.451363    3.328911   -1.437939
 H   -1.853345    1.537438   -1.766928
 H    0.656781   -1.990273   -0.290371
 H    1.583867   -0.948570   -1.409455
 H    4.617859    1.139016    1.342174
 H    4.378512   -0.495464    2.025242
 H    5.258114   -2.474978    0.741025
 H    7.173253   -3.337644   -0.554634
 H    8.695402   -1.766842   -1.696516
 H    8.294202    0.661805   -1.543567
 H    6.382902    1.517417   -0.250663
 H   -0.479859   -2.726573    1.777870
 H   -2.157724   -4.485778    1.309287
 H   -5.106742   -3.518205   -1.838628
 H    3.128289    0.500083   -0.467699
 H   -5.936262   -5.806690   -0.605987
