56 
6dxg_ligand_xtb.xyz
 C    3.086365   -0.022523   -1.024213
 C    4.179300   -0.801142   -0.714502
 C    4.053107   -2.068712   -0.124614
 C    2.803877   -2.603023    0.150778
 C    1.691714   -1.831483   -0.157512
 C   -0.269833   -1.034660   -0.421746
 C   -4.781705    2.109559    1.240121
 C   -5.261630    1.457926   -0.053741
 C   -5.737703   -1.988487    0.268381
 C   -6.674401   -3.114141    0.519445
 C   -4.359067   -2.040586    0.039419
 C   -3.967174   -0.715123   -0.137991
 C   -2.657123   -0.133092   -0.433601
 C    1.837652   -0.548267   -0.731948
 C    0.247164    1.257704   -1.369183
 C    0.097839    2.241541   -0.172100
 C    1.466490    2.660724    0.296818
 C    2.131358    3.702914   -0.334572
 C    3.418030    4.038787    0.045597
 C    4.054293    3.328133    1.049564
 C    3.393429    2.290514    1.684344
 C    2.102147    1.961166    1.313531
 C    5.318830   -2.807112    0.153786
 N   -5.100738    0.027436   -0.014876
 N   -6.151402   -0.727436    0.235258
 N   -1.651766   -1.063080   -0.365681
 N    0.359580   -2.096887    0.014700
 N    0.559215   -0.064551   -0.910799
 N    5.251393   -3.731887    1.144811
 O   -2.498817    1.043307   -0.714671
 O   -0.664806    3.354510   -0.550484
 O    6.348246   -2.602612   -0.456060
 H    3.207091    0.954325   -1.465375
 H    5.176847   -0.446915   -0.922889
 H    2.667802   -3.591704    0.559299
 H   -5.292616    1.672127    2.094678
 H   -4.991678    3.174809    1.212370
 H   -3.710071    1.973055    1.358577
 H   -4.703702    1.856972   -0.903004
 H   -6.329731    1.635737   -0.193308
 H   -7.674638   -2.722031    0.676416
 H   -6.686077   -3.795253   -0.330145
 H   -6.366057   -3.675318    1.400178
 H   -3.759886   -2.928264   -0.004200
 H    1.047464    1.596881   -2.029710
 H   -0.688325    1.240048   -1.930402
 H   -0.408450    1.696621    0.642287
 H    1.623620    4.249495   -1.114234
 H    3.928688    4.852961   -0.447413
 H    5.062676    3.583812    1.339057
 H    3.884046    1.735328    2.469968
 H    1.588154    1.151793    1.813895
 H   -1.934079   -1.986236   -0.059357
 H    4.441806   -3.835718    1.727663
 H    6.091046   -4.231368    1.385667
 H   -1.552629    3.028346   -0.750565
