52 
6dxx_ligand_xtb.xyz
 C    4.638982   -3.388790   -0.508051
 C    4.775149   -1.985534    0.038963
 S    3.825322   -0.881720   -1.048728
 O    2.420716   -1.212071   -0.963517
 O    4.412343   -0.907276   -2.362244
 C    4.034010    0.786157   -0.395569
 C    3.256971    1.202038    0.674914
 C    3.429161    2.491049    1.168679
 C    4.352096    3.340447    0.581046
 C    5.110350    2.916957   -0.499894
 C    4.948908    1.632039   -0.991219
 C    2.368057    0.203061    1.353493
 O    2.877030   -0.669237    2.041241
 N    1.039138    0.365372    1.227038
 C    0.420327    1.275166    0.287926
 C   -0.224405    0.483127   -0.858840
 N   -1.119365   -0.512343   -0.312601
 C   -0.450115   -1.434194    0.569253
 C    0.163250   -0.672428    1.758267
 C   -0.896086   -0.092619    2.690254
 C   -2.436961   -0.285679   -0.286571
 N   -3.021658    0.705928   -0.862054
 C   -4.378846    0.641936   -0.751128
 C   -4.867062   -0.470094   -0.027133
 S   -3.537308   -1.456038    0.514123
 C   -6.217143   -0.671743    0.177061
 C   -7.076871    0.267011   -0.361994
 F   -8.407101    0.101693   -0.181945
 C   -6.633942    1.370009   -1.078646
 C   -5.280942    1.561089   -1.275013
 H    3.589957   -3.675397   -0.514115
 H    5.196688   -4.098678    0.098940
 H    5.011076   -3.421879   -1.529840
 H    5.798863   -1.622939    0.008868
 H    4.350862   -1.875455    1.033221
 H    2.842519    2.820832    2.013233
 H    4.479214    4.339752    0.969218
 H    5.824424    3.584899   -0.956155
 H    5.508841    1.267335   -1.837937
 H    1.168736    1.958740   -0.112093
 H   -0.346681    1.856097    0.810177
 H   -0.790453    1.143544   -1.514277
 H    0.559872   -0.039293   -1.414487
 H   -1.146820   -2.196024    0.919663
 H    0.361610   -1.903932    0.004705
 H    0.809196   -1.353043    2.321448
 H   -1.616860    0.517149    2.150710
 H   -0.426081    0.518388    3.456973
 H   -1.433665   -0.903382    3.174514
 H   -6.594443   -1.517941    0.727326
 H   -7.357486    2.064554   -1.474540
 H   -4.910552    2.407503   -1.829670
