23 
6dyo_ligand_xtb.xyz
 C    2.173225    0.709858    0.848520
 C    0.753332    0.258136    0.629083
 C   -1.824645   -0.635209   -0.008371
 C   -0.229670    1.168479    0.252610
 C    0.436461   -1.099581    0.681546
 C   -0.844862   -1.537999    0.371115
 C   -1.509629    0.740486   -0.047411
 O   -2.520711    1.573107   -0.402071
 O   -3.052954   -1.068187   -0.321220
 C    2.932947    0.588988   -0.476802
 N    2.797636   -0.815943   -0.956412
 H    2.656656    0.100070    1.612751
 H    2.203316    1.746395    1.178765
 H    0.000638    2.224003    0.215984
 H    1.136608   -1.815348    1.092878
 H   -1.106338   -2.581105    0.433728
 H   -2.253955    2.497459   -0.342122
 H   -3.626069   -0.311928   -0.516405
 H    3.985162    0.847901   -0.363533
 H    2.482037    1.248810   -1.218842
 H    2.934353   -0.906422   -1.966861
 H    3.459722   -1.433425   -0.474713
 H    1.810790   -1.103110   -0.672154
