27 
6dyr_ligand_xtb.xyz
 N    3.476500   -0.882766    0.259905
 C    2.487721    0.037066    0.385969
 N   -0.917476   -1.278307   -0.397802
 C    1.094486   -0.347454    0.690485
 N   -4.241229    1.318056    0.000470
 C    0.424555   -0.809436   -0.631280
 C   -1.992948   -0.499383   -0.423977
 C    3.028082    1.306076    0.126984
 C    4.542979   -0.151029   -0.038917
 C   -3.289477   -0.927001    0.188537
 C   -3.944630    0.243147    0.945354
 N    4.332748    1.176328   -0.119248
 O   -1.913253    0.672426   -1.041102
 H   -0.988621   -2.140384    0.125882
 H    0.533271    0.496162    1.098450
 H    1.079134   -1.178136    1.399727
 H   -4.460779    2.181866    0.481894
 H   -2.757074    1.175118   -0.855074
 H   -5.032028    1.074942   -0.587683
 H    0.388511    0.022049   -1.333296
 H    1.016460   -1.621940   -1.050770
 H    2.538839    2.263665    0.152375
 H    5.514116   -0.584508   -0.197436
 H   -3.130707   -1.763859    0.868172
 H   -3.977197   -1.256912   -0.599134
 H   -4.833421   -0.123870    1.475708
 H   -3.242880    0.631310    1.687799
