18 
6dzq_ligand_dft.xyz
 O    2.905631    0.539094   -0.101992
 C    2.099941   -0.514417    0.058491
 O    2.521152   -1.629460    0.201423
 C    0.616940   -0.231101    0.061328
 O   -0.104757   -1.363310    0.214729
 C   -1.472555   -1.314898    0.000198
 C   -2.051929   -2.372131   -0.552528
 C   -2.169027   -0.072189    0.478040
 C   -1.403394    1.167309    0.085673
 O   -1.879748    2.284921   -0.022279
 C    0.041458    0.983868   -0.071758
 O    0.750101    2.122188   -0.289274
 H    2.404955    1.367755   -0.207108
 H   -3.124253   -2.392049   -0.706165
 H   -1.465235   -3.236257   -0.841568
 H   -2.221785   -0.069822    1.577632
 H   -3.192044   -0.018447    0.101440
 H    0.090722    2.842702   -0.301757
