47 
6e06_ligand_dft.xyz
 N    4.248233    0.106884    0.256673
 C    5.158341    0.838457   -0.456120
 N    6.382970    0.245386   -0.645054
 C    6.676988   -1.069031   -0.266535
 C    5.864233   -1.686637    0.595374
 C    4.742407   -0.903394    1.212277
 O    4.932857    1.951792   -0.937206
 N    7.848998   -1.554986   -0.844835
 C    2.996055    0.795104    0.591799
 C    2.183017    1.247484   -0.643583
 O    2.354570    2.584722   -1.007099
 C    0.743860    1.069278   -0.160762
 C    0.840981   -0.132188    0.775211
 O    2.177058   -0.113208    1.281571
 O    0.371813    2.225672    0.578835
 C    0.582519   -1.491557    0.098724
 O   -0.653650   -2.082719    0.523196
 P   -2.067433   -1.653334   -0.028883
 O   -3.188258   -2.217753    0.749168
 O   -2.011954   -1.956145   -1.580094
 O   -2.034762   -0.030170   -0.033145
 P   -2.872042    1.059899    0.851652
 O   -2.851201    0.785178    2.288806
 O   -2.280224    2.404988    0.295730
 O   -4.325040    1.076122    0.151549
 P   -5.130740   -0.075044   -0.672418
 O   -5.610289   -1.118969    0.393260
 O   -4.344630   -0.566582   -1.831074
 O   -6.480537    0.672353   -1.033831
 H    7.079097    0.811120   -1.106744
 H    6.000950   -2.729343    0.852901
 H    3.905806   -1.556344    1.453803
 H    5.044688   -0.406746    2.150107
 H    8.080637   -2.487750   -0.528883
 H    7.847563   -1.514865   -1.858660
 H    3.207557    1.662615    1.235250
 H    2.391837    0.557506   -1.474038
 H    3.324121    2.704033   -1.074189
 H    0.041329    0.908749   -0.983497
 H    0.158025   -0.023676    1.622867
 H    0.906018    2.949428    0.198620
 H    0.604886   -1.430816   -0.995266
 H    1.352091   -2.188918    0.427812
 H   -2.826387   -1.562022   -1.981137
 H   -1.305461    2.479743    0.489396
 H   -4.845269   -1.680311    0.686180
 H   -6.452106    1.026436   -1.932915
