39 
6e13_ligand_dft.xyz
 C   -4.552228   -0.155718    1.194039
 C   -4.085302   -0.967243   -0.023290
 C   -3.500465   -0.119845   -1.159059
 C   -2.082387    0.346042   -0.879617
 C   -1.013127   -0.510939   -1.118908
 C    0.309141   -0.099275   -0.906321
 C    2.642658   -1.275444    0.152260
 C    4.098498   -0.899907   -0.138642
 C    4.891810   -0.758864    1.163931
 C    0.541102    1.193398   -0.447727
 C   -0.535941    2.049662   -0.177559
 C   -1.838486    1.635498   -0.398473
 N   -5.276393   -1.775799   -0.510001
 N    4.185564    0.365602   -0.949335
 O   -5.378328   -0.902310    1.939526
 O   -4.213321    0.966628    1.427815
 O    4.660592   -1.416925    2.135071
 O    5.863039    0.155573    1.037580
 O    1.804509    1.674185   -0.232878
 O   -0.159058    3.268108    0.281594
 S    1.612067   -1.223925   -1.362944
 H   -3.357945   -1.708021    0.325335
 H   -3.494483   -0.723876   -2.075089
 H   -4.152945    0.740091   -1.342103
 H   -1.182768   -1.515042   -1.498343
 H    2.219155   -0.604138    0.901190
 H    2.633284   -2.282882    0.570297
 H    4.588951   -1.678816   -0.731901
 H   -2.661945    2.308708   -0.183104
 H   -5.977707   -1.178421   -0.963810
 H   -5.737559   -2.238343    0.285271
 H   -4.997589   -2.491238   -1.189757
 H    4.029537    0.171659   -1.942905
 H    5.103864    0.807713   -0.826854
 H    3.429916    1.021933   -0.665895
 H   -5.659258   -0.402092    2.727346
 H    6.384934    0.189674    1.859489
 H    1.714944    2.592242    0.080213
 H   -0.910749    3.858774    0.419612
