39 
6e13_ligand_xtb.xyz
 C   -3.971411   -0.430458    1.307049
 C   -4.060508   -1.054536   -0.098610
 C   -3.594013   -0.024197   -1.143729
 C   -2.167327    0.405492   -0.890189
 C   -1.122473   -0.462140   -1.157569
 C    0.197019   -0.086789   -0.930742
 C    2.509782   -1.280159    0.147969
 C    3.951956   -0.925256   -0.200079
 C    4.773008   -0.700204    1.089950
 C    0.476948    1.182736   -0.445691
 C   -0.580869    2.057719   -0.157749
 C   -1.890090    1.668343   -0.380734
 N   -5.462478   -1.486394   -0.383902
 N    3.996686    0.286318   -1.063083
 O   -5.186904   -0.200521    1.798901
 O   -2.939559   -0.171713    1.838291
 O    4.598073   -1.313905    2.091223
 O    5.684131    0.253930    0.904151
 O    1.760635    1.625972   -0.232166
 O   -0.210173    3.272068    0.316509
 S    1.464489   -1.256584   -1.369433
 H   -3.395942   -1.922792   -0.127055
 H   -3.653717   -0.474594   -2.136908
 H   -4.245293    0.850760   -1.116366
 H   -1.305254   -1.444346   -1.563615
 H    2.088646   -0.580587    0.865457
 H    2.469349   -2.281603    0.572900
 H    4.422513   -1.761560   -0.730032
 H   -2.688642    2.362176   -0.163808
 H   -6.107608   -0.722054   -0.126781
 H   -5.725552   -2.306121    0.180364
 H   -5.583960   -1.714194   -1.380153
 H    3.888825    0.036533   -2.051974
 H    4.889309    0.777336   -0.910750
 H    3.185830    0.907343   -0.801295
 H   -5.155320    0.202624    2.684082
 H    6.250393    0.371318    1.686700
 H    1.685245    2.538134    0.095264
 H   -0.971859    3.837545    0.489252
