96 
6e1a_ligand_xtb.xyz
 O   -4.275758    1.437357   -1.219336
 C   -1.707847    2.548260   -0.319057
 N    1.488551    4.410613    1.050079
 C   -1.215715    1.127123   -0.573226
 C   -1.790759    0.189992    0.496506
 C   -4.165857    0.913886   -2.313526
 C   -4.960304    2.834926   -3.608758
 C   -2.386990   -3.274551   -1.281643
 C   -3.553378   -3.460828   -2.246312
 C   -4.571104   -2.455647   -1.727580
 N   -1.265627    3.029539    1.015173
 N   -4.406253    1.506645   -3.486114
 C   -3.728415   -1.226612   -1.365012
 C   -2.289143   -1.751395   -1.079945
 C   -1.556405   -1.334198    0.243068
 C    6.791147   -1.328795   -2.556081
 C    7.382854   -1.047869   -0.374768
 C   -0.031982   -1.576827    0.033275
 C    0.271565   -2.557945    2.222708
 N    7.727028   -1.218249   -1.635426
 C   -1.599494    4.466787    1.267677
 S    3.362900   -0.982861   -0.481321
 C    0.626843    5.247452    0.219729
 C   -0.362943    5.355353    1.394843
 C    2.023812    3.207956    0.715231
 C    2.348177    2.260140    1.703324
 C    5.431263   -1.266320   -2.261009
 C    5.089248   -1.084057   -0.936333
 O    3.110130   -1.808777    0.707469
 C    2.949675    0.687611    0.001624
 C    2.809751    1.012366    1.341181
 O    2.509939   -1.320014   -1.596165
 C    6.056682   -0.968254    0.042100
 C    2.702673    1.630851   -0.984209
 C    2.247538    2.882723   -0.636196
 C    0.761737    4.764318    2.266969
 C   -1.791766    2.125338    2.068851
 C   -1.295181    0.699461    1.854638
 N    0.625798   -2.660010    0.798227
 C    0.437489   -4.023694    0.288599
 C   -2.081616   -2.088522    1.463537
 C   -3.448567   -2.191539    1.711888
 C   -3.939359   -2.862727    2.817271
 C   -3.070132   -3.450237    3.719170
 C   -1.710394   -3.345850    3.501075
 C   -1.215482   -2.666224    2.394761
 O   -3.702540   -0.344850   -2.495146
 H   -2.801410    2.558594   -0.361265
 H   -1.318575    3.220066   -1.084933
 H   -1.561430    0.834173   -1.561956
 H   -0.122968    1.108088   -0.585920
 H   -2.872305    0.336983    0.490918
 H   -5.114032    3.231739   -2.607411
 H   -4.278549    3.482313   -4.161814
 H   -5.917122    2.801978   -4.129051
 H   -1.469811   -3.693452   -1.686348
 H   -2.628085   -3.765325   -0.337911
 H   -3.932854   -4.479303   -2.246926
 H   -3.251768   -3.198091   -3.259788
 H   -5.064455   -2.844931   -0.837416
 H   -5.330947   -2.200522   -2.462469
 H   -0.241350    2.931840    1.027380
 H   -4.323291    0.945150   -4.319901
 H   -4.180347   -0.657083   -0.551585
 H   -1.693292   -1.351787   -1.906356
 H    7.137325   -1.473505   -3.569525
 H    8.196643   -0.971648    0.332186
 H    0.514249   -0.674776    0.315625
 H    0.184126   -1.750386   -1.021770
 H    0.780351   -3.347342    2.778639
 H    0.638475   -1.598012    2.599564
 H   -2.227325    4.829277    0.451572
 H   -2.183386    4.533756    2.187467
 H    1.110432    6.193067   -0.030497
 H    0.260144    4.785268   -0.697894
 H   -0.684324    6.362896    1.651719
 H    2.262317    2.517535    2.746905
 H    4.668382   -1.367240   -3.015581
 H    3.046857    0.272253    2.089580
 H    5.790466   -0.839631    1.078386
 H    2.846925    1.362755   -2.018163
 H    2.079680    3.623917   -1.399989
 H    0.501237    3.937983    2.931522
 H    1.302281    5.516696    2.843907
 H   -2.882507    2.153315    2.021521
 H   -1.473606    2.494321    3.045989
 H   -0.202739    0.683559    1.910300
 H   -1.686008    0.078691    2.660856
 H    1.665944   -2.445412    0.722477
 H   -0.589179   -4.350982    0.433419
 H    1.102786   -4.698177    0.824843
 H    0.694385   -4.057522   -0.767349
 H   -4.157031   -1.748771    1.038177
 H   -5.004839   -2.926464    2.969982
 H   -3.444871   -3.982249    4.578042
 H   -1.017372   -3.792054    4.197608
