96 
6e1a_ligand_dft.xyz
 O   -4.408584    1.601225   -0.992587
 C   -1.625961    2.599099   -0.227524
 N    1.762286    4.358113    1.037766
 C   -1.267297    1.154682   -0.546872
 C   -1.817089    0.203932    0.529796
 C   -4.272480    1.155264   -2.125647
 C   -5.002485    3.188190   -3.290621
 C   -2.578673   -3.142645   -1.478968
 C   -3.780800   -3.213935   -2.423564
 C   -4.763194   -2.247342   -1.764263
 N   -1.081429    3.007314    1.117638
 N   -4.446517    1.847152   -3.266921
 C   -3.895629   -1.065738   -1.323727
 C   -2.454705   -1.643551   -1.124691
 C   -1.670358   -1.325610    0.201278
 C    6.918137   -1.052540   -2.442189
 C    7.361554   -1.334199   -0.215173
 C   -0.160396   -1.615114   -0.077596
 C    0.166868   -2.722125    2.076866
 N    7.810179   -1.193638   -1.462880
 C   -1.340993    4.470811    1.442833
 S    3.363979   -1.114696   -0.581541
 C    0.847227    5.201243    0.252566
 C   -0.071174    5.314176    1.494730
 C    2.215478    3.119535    0.665007
 C    2.549887    2.154151    1.639047
 C    5.539520   -1.031822   -2.232230
 C    5.105671   -1.172050   -0.920852
 O    3.104328   -1.956560    0.609863
 C    2.970838    0.542537   -0.096566
 C    2.927773    0.877195    1.256024
 O    2.617657   -1.409323   -1.803047
 C    6.009782   -1.329827    0.122180
 C    2.683915    1.495536   -1.075332
 C    2.312375    2.774566   -0.701337
 C    1.087569    4.679601    2.304958
 C   -1.586052    2.080717    2.192691
 C   -1.228077    0.633814    1.881303
 N    0.469925   -2.785001    0.619513
 C    0.210691   -4.128359    0.033133
 C   -2.188484   -2.116068    1.414786
 C   -3.555336   -2.163936    1.708949
 C   -4.041104   -2.840870    2.821216
 C   -3.164791   -3.497066    3.678424
 C   -1.804290   -3.460063    3.408445
 C   -1.316663   -2.769146    2.298557
 O   -3.858279   -0.105502   -2.398121
 H   -2.712122    2.723566   -0.194576
 H   -1.207990    3.288290   -0.963984
 H   -1.693166    0.939160   -1.528914
 H   -0.176284    1.064692   -0.646906
 H   -2.892981    0.396231    0.588447
 H   -4.868029    3.635123   -2.305504
 H   -4.481943    3.791326   -4.037842
 H   -6.071802    3.172869   -3.522557
 H   -1.667670   -3.539185   -1.935014
 H   -2.797995   -3.730797   -0.579753
 H   -4.176680   -4.226271   -2.529251
 H   -3.505788   -2.855078   -3.421804
 H   -5.202507   -2.718805   -0.876833
 H   -5.582579   -1.920895   -2.407993
 H   -0.067795    2.854690    1.069574
 H   -4.422646    1.316142   -4.125276
 H   -4.306864   -0.544697   -0.462564
 H   -1.878090   -1.178800   -1.932466
 H    7.319223   -0.952665   -3.446934
 H    8.116615   -1.459499    0.555875
 H    0.454063   -0.772939    0.249827
 H    0.037015   -1.747100   -1.142101
 H    0.679882   -3.554314    2.563744
 H    0.620499   -1.793305    2.440756
 H   -2.032460    4.848136    0.686333
 H   -1.850818    4.498382    2.408285
 H    1.306681    6.143104   -0.056437
 H    0.419737    4.716013   -0.633079
 H   -0.353772    6.328297    1.783228
 H    2.554709    2.416585    2.691590
 H    4.843305   -0.934924   -3.057586
 H    3.183254    0.137620    2.007936
 H    5.687433   -1.465891    1.148267
 H    2.738488    1.232411   -2.127010
 H    2.121780    3.519523   -1.466263
 H    0.832801    3.811148    2.928126
 H    1.656100    5.383922    2.916529
 H   -2.669106    2.226164    2.241809
 H   -1.144260    2.413075    3.135081
 H   -0.132626    0.531181    1.896577
 H   -1.622537    0.021137    2.697010
 H    1.493450   -2.615654    0.535290
 H   -0.830279   -4.404784    0.185655
 H    0.864571   -4.843534    0.534264
 H    0.451854   -4.094942   -1.029189
 H   -4.271171   -1.665452    1.069622
 H   -5.109048   -2.858734    3.012219
 H   -3.536614   -4.035959    4.543018
 H   -1.109110   -3.973989    4.066923
