22 
6e1z_ligand_dft.xyz
 N   -2.245299    0.179561   -0.386122
 C   -1.326019    0.974835   -1.178194
 C   -2.873765    0.568043    0.776488
 C   -3.564732   -0.532499    1.200660
 C   -2.576015   -1.127689   -0.588601
 C    0.691300    2.066513    0.085136
 C    2.954247   -0.861087    0.057018
 C    1.947611    0.224293    0.034648
 C    0.031765    1.067970   -0.565782
 C    1.944938    1.516312    0.477454
 N   -3.374630   -1.587710    0.341628
 O    3.960340   -0.684493    0.940767
 O    2.913149   -1.820847   -0.661935
 O    0.787173   -0.048148   -0.606125
 H   -1.734532    1.981784   -1.299085
 H   -1.258921    0.520562   -2.171067
 H   -2.769189    1.566752    1.173233
 H   -4.195189   -0.625815    2.073861
 H   -2.196613   -1.684615   -1.435372
 H    0.329064    3.069388    0.259340
 H    2.743782    2.034531    0.990612
 H    3.759837    0.042206    1.545311
