22 
6e1z_ligand_xtb.xyz
 N   -2.371505   -0.567742    0.047473
 C   -1.136114   -1.265271    0.259212
 C   -2.875928   -0.161122   -1.158235
 C   -4.013556    0.535455   -0.874384
 C   -3.219162   -0.087468    0.991412
 C    0.091692    1.038291    0.281986
 C    3.568640   -0.137869   -0.108372
 C    2.136754    0.183769    0.040558
 C    0.033024   -0.328162    0.203924
 C    1.455962    1.373073    0.175751
 N   -4.212445    0.571667    0.469344
 O    4.392181    0.929221   -0.121242
 O    3.992250   -1.253459   -0.211346
 O    1.257355   -0.843015    0.057215
 H   -1.005699   -2.042127   -0.502699
 H   -1.168788   -1.756352    1.239102
 H   -2.396408   -0.403024   -2.084037
 H   -4.700741    1.008857   -1.545815
 H   -3.073516   -0.251156    2.040603
 H   -0.731129    1.713379    0.398035
 H    1.856364    2.367637    0.199504
 H    3.925392    1.769155   -0.030541
