29 
6e3m_ligand_xtb.xyz
 O    5.690003    0.105239    0.701977
 C    4.675121    0.590498    0.286540
 O    4.604856    1.909293    0.019291
 C    3.440670   -0.206689    0.022220
 C    2.167272    0.353118    0.050017
 C    3.592249   -1.569352   -0.226913
 C    2.481188   -2.358219   -0.463137
 C    1.216653   -1.800159   -0.443354
 C    1.046358   -0.438803   -0.183944
 C   -0.317700    0.105372   -0.141765
 C   -0.600941    1.469384   -0.245843
 N   -1.289943   -0.785882   -0.024684
 C   -2.555535   -0.418652    0.065000
 C   -3.513641   -1.579087    0.193640
 O   -3.128059   -2.710268    0.249005
 O   -4.816015   -1.281383    0.238658
 C   -2.927793    0.930709    0.045198
 O   -4.240212    1.336675    0.191186
 C   -1.918759    1.884711   -0.163418
 O   -2.206279    3.208951   -0.268459
 H    3.755602    2.161758   -0.365916
 H    2.034104    1.393961    0.313701
 H    4.588562   -1.983867   -0.226068
 H    2.600466   -3.413119   -0.656692
 H    0.336090   -2.399828   -0.610395
 H    0.156096    2.216252   -0.415378
 H   -4.981498   -0.324713    0.192321
 H   -4.278969    2.182885    0.656771
 H   -3.126061    3.342798   -0.534271
