29 
6e3n_ligand_xtb.xyz
 O   -3.883291   -1.648988    0.356595
 C   -2.668603   -1.687595    0.362276
 O   -1.979266   -2.781341    0.651912
 C   -1.835894   -0.506661    0.043103
 N   -0.479958   -0.739769    0.106509
 C   -2.412346    0.707819   -0.228740
 O   -3.717292    0.920172   -0.232551
 C   -1.526296    1.887509   -0.434115
 O   -1.914873    3.028171   -0.392179
 C   -0.084530    1.521911   -0.713584
 C    0.351986    0.185335   -0.193213
 C    1.788403   -0.130288   -0.156976
 C    2.220735   -1.234949   -0.891071
 C    3.558534   -1.570086   -0.945845
 C    4.481818   -0.807403   -0.249993
 C    4.054225    0.265118    0.510153
 C    2.712365    0.620829    0.576554
 C    2.302504    1.754666    1.469815
 H   -1.026412   -2.555232    0.604407
 H   -0.010197    1.452439   -1.808856
 H   -4.182826    0.073447   -0.020153
 H    0.575253    2.336134   -0.416713
 H    1.489412   -1.816759   -1.431886
 H    3.879165   -2.421623   -1.526071
 H    5.531382   -1.057107   -0.287261
 H    4.773719    0.840191    1.074981
 H    2.412111    2.710695    0.956429
 H    1.272787    1.651088    1.802300
 H    2.945688    1.783765    2.346860
