32 
6e3o_ligand_xtb.xyz
 O   -3.764354   -1.721711   -0.276779
 C   -2.551908   -1.630100   -0.276985
 O   -1.751578   -2.679057   -0.381386
 C   -1.856383   -0.328784   -0.149702
 N   -0.484628   -0.412676   -0.166131
 C   -2.574718    0.827173    0.027693
 O   -3.894084    0.878207    0.083760
 C   -1.831108    2.090639    0.275417
 O   -2.348466    3.092840    0.702884
 C   -0.359293    2.019885   -0.071591
 C    0.244450    0.643588   -0.110766
 C    1.704793    0.538816   -0.106666
 C    2.450899    1.597962   -0.640555
 C    3.829039    1.583291   -0.645755
 C    4.505536    0.508859   -0.091417
 C    3.784950   -0.540440    0.443121
 C    2.394323   -0.558700    0.438776
 C    1.717303   -1.772271    1.004549
 C    1.632807   -2.863274   -0.067631
 H   -0.825037   -2.360143   -0.347771
 H   -0.293762    2.441157   -1.083976
 H   -4.256990   -0.036248   -0.026918
 H    0.198009    2.689745    0.586502
 H    1.944315    2.438964   -1.087656
 H    4.374340    2.408987   -1.076921
 H    5.584698    0.490029   -0.079327
 H    4.310543   -1.378551    0.877732
 H    0.719482   -1.523805    1.362349
 H    2.299824   -2.148893    1.847890
 H    1.161305   -2.475534   -0.968008
 H    2.631165   -3.201184   -0.336536
 H    1.068216   -3.717887    0.296779
