31 
6e3p_ligand_xtb.xyz
 O  -18.919810   16.297373  139.044471
 C  -18.756974   16.292265  137.694718
 O  -18.030678   15.511749  137.145681
 C  -19.567129   17.336633  137.052339
 N  -20.337448   18.129764  137.873535
 C  -19.594827   17.554234  135.700576
 O  -18.902410   16.875775  134.800437
 C  -20.445771   18.620206  135.129146
 O  -20.427554   18.755954  133.902846
 C  -21.197669   19.381567  136.070845
 C  -21.127446   19.121377  137.413035
 C  -21.872555   19.902939  138.412004
 C  -23.156304   20.359117  138.129915
 C  -21.299130   20.205959  139.646772
 C  -21.998096   20.950635  140.581187
 C  -23.272986   21.401584  140.301669
 C  -23.857961   21.108487  139.068820
 C  -25.192374   21.603644  138.809733
 N  -25.908805   21.475901  137.657602
 N  -27.083237   22.083693  137.852038
 N  -27.080784   22.543591  139.029832
 N  -25.947915   22.276875  139.655461
 H  -18.374775   15.594874  139.429711
 H  -20.307925   17.915651  138.861576
 H  -19.155196   17.285686  133.934712
 H  -21.801308   20.192521  135.698359
 H  -23.602703   20.103954  137.180793
 H  -20.291008   19.886551  139.867250
 H  -21.541457   21.182868  141.530885
 H  -23.835334   21.982635  141.014619
 H  -25.680430   21.034935  136.781433
