35 
6e4c_ligand_xtb.xyz
 O   -5.404477   -2.175195    0.255210
 C   -4.081706   -2.122963    0.287802
 O   -3.393081   -3.099237    0.363977
 C   -3.462075   -0.738241    0.216192
 N   -2.198163   -0.696071    0.065472
 C   -4.257142    0.528133    0.365384
 O   -5.632109    0.451548    0.109816
 C   -3.620878    1.660188   -0.460112
 O   -4.354490    2.494292   -0.952461
 C   -2.182308    1.621190   -0.507484
 C   -1.519179    0.485041   -0.139350
 C   -0.065834    0.340504   -0.090559
 C    0.802061    1.368402    0.313034
 C    0.329217    2.706742    0.791456
 C    2.167951    1.120101    0.308096
 C    0.460851   -0.910279   -0.441033
 C    1.816544   -1.136373   -0.451395
 C    2.689509   -0.109337   -0.083866
 C    4.118256   -0.357188   -0.108729
 N    4.652688   -1.449393   -0.540367
 O    6.013606   -1.319959   -0.414889
 C    6.316664   -0.110190    0.110493
 O    7.405257    0.313261    0.346165
 N    5.093167    0.516933    0.308330
 H   -5.818237   -1.288991    0.185927
 H   -4.094510    0.854951    1.417023
 H   -5.855203    1.254754   -0.400719
 H   -1.676746    2.455101   -0.965040
 H    0.275009    3.411447   -0.038147
 H   -0.654650    2.643183    1.248683
 H    1.028261    3.111419    1.520161
 H    2.828934    1.916371    0.619057
 H   -0.229146   -1.693970   -0.710084
 H    2.226519   -2.091984   -0.732859
 H    4.986708    1.435383    0.699845
