87 
6e7j_ligand_dft.xyz
 C   -3.857827    0.786987   -0.194212
 C   -5.856802   -0.359529    0.752300
 C   -1.577358   -0.111476   -0.668356
 C   -1.516549   -1.420418   -1.461674
 C   -0.492752   -2.428212   -0.905067
 C    1.940281   -2.688707   -1.021198
 O    1.982900   -3.741564   -0.411298
 C    4.290190   -2.648465   -1.115546
 C    5.599037   -0.593980   -0.987892
 C    3.833867    0.848290   -0.756590
 C    4.949576   -0.870600    0.395810
 O    3.072256    1.734035   -1.061167
 O    4.888205    0.516050   -1.529798
 N    3.824200    0.054947    0.371799
 C    2.837072    0.098629    1.379241
 C    1.584960    0.673534    1.140316
 C    0.635083    0.729874    2.152100
 C    0.894551    0.180370    3.404774
 C    2.128991   -0.418701    3.634298
 C    3.099609   -0.453138    2.638127
 C    5.392060   -1.865398   -1.824481
 C    4.546258   -2.351103    0.364816
 O    3.042916   -2.084745   -1.538216
 N    0.836178   -1.940546   -1.249287
 C   -0.587231   -2.659768    0.617077
 C   -1.976018   -2.877339    1.168251
 C   -2.410630   -2.134801    2.269521
 C   -3.676818   -2.329149    2.813688
 C   -4.538138   -3.268906    2.255969
 C   -4.119550   -4.014848    1.156757
 C   -2.848265   -3.824647    0.623001
 O   -1.169385   -1.196908   -2.810182
 N   -2.699445    0.735604   -1.090092
 C   -4.701347   -0.491529   -0.240546
 C   -5.209222   -0.774081   -1.653410
 S   -2.312959    2.104028   -1.957652
 O   -1.430702    1.641813   -3.027687
 O   -3.556021    2.793477   -2.253172
 C   -1.340624    3.097129   -0.860055
 C   -1.973562    3.765079    0.194569
 C   -1.208911    4.396515    1.156580
 C    0.043896    3.091653   -0.963941
 C    0.816218    3.731416   -0.000210
 C    0.192298    4.360783    1.077354
 O    0.851451    4.954389    2.094038
 C    2.256778    4.795535    2.147865
 H   -4.479847    1.629756   -0.506104
 H   -3.518397    0.971564    0.837958
 H   -6.445768   -1.281825    0.779038
 H   -5.491306   -0.170954    1.767898
 H   -6.526266    0.462103    0.467944
 H   -1.703544   -0.316465    0.397447
 H   -0.628568    0.422301   -0.782140
 H   -2.502921   -1.896988   -1.398371
 H   -0.672348   -3.378191   -1.427076
 H    4.296166   -3.717566   -1.335600
 H    6.648101   -0.300932   -0.922183
 H    5.619429   -0.634243    1.229472
 H    1.370922    1.090340    0.169598
 H   -0.317653    1.211482    1.945908
 H    0.147466    0.219512    4.191292
 H    2.349121   -0.860373    4.601357
 H    4.057799   -0.915369    2.849668
 H    5.146873   -1.625572   -2.861142
 H    6.310912   -2.461367   -1.816646
 H    3.688573   -2.587412    0.995483
 H    5.389537   -2.961289    0.708582
 H    0.863571   -1.286872   -2.023097
 H   -0.122306   -1.804601    1.120026
 H    0.039960   -3.524230    0.850521
 H   -1.738030   -1.399775    2.707370
 H   -3.992191   -1.743174    3.672388
 H   -5.529029   -3.418409    2.673893
 H   -4.784122   -4.751692    0.715110
 H   -2.530646   -4.419956   -0.229508
 H   -1.457882   -0.305482   -3.073112
 H   -4.077808   -1.331629    0.087744
 H   -5.869781    0.031362   -1.996922
 H   -4.385400   -0.852165   -2.369250
 H   -5.774101   -1.712169   -1.677193
 H   -3.057072    3.790125    0.253429
 H   -1.669298    4.913498    1.991554
 H    0.531561    2.577152   -1.785443
 H    1.893230    3.673638   -0.089799
 H    2.748463    5.290319    1.301831
 H    2.574254    5.269011    3.077141
 H    2.531441    3.733678    2.160875
