54 
6e8x_ligand_dft.xyz
 C   -3.743232   -3.509467   -0.180637
 O   -4.315194   -2.253114   -0.468645
 C   -3.520957   -1.169253   -0.398856
 C   -2.167532   -1.173835   -0.159773
 C   -1.417971    0.036703   -0.118497
 C   -0.008728    0.045788    0.131126
 C    0.705924   -1.281118    0.337984
 C    2.205434   -1.188304    0.674444
 C    2.851575   -0.018658   -0.060625
 C    2.770514   -0.212928   -1.583266
 C    4.282271    0.327565    0.357732
 O    5.210200   -0.569482   -0.296901
 S    6.734478   -0.501740    0.203011
 O    6.733942   -0.576448    1.650696
 O    7.432749    0.563362   -0.482693
 N    7.245434   -1.927367   -0.462598
 C    4.471116    1.811620   -0.033790
 C    3.037306    2.401166   -0.116252
 C    2.150717    1.265643    0.417772
 C    0.671694    1.252436    0.129069
 C   -0.017607    2.466426   -0.102436
 C   -1.366178    2.477793   -0.329061
 C   -2.095316    1.266030   -0.342716
 C   -3.494369    1.252767   -0.581951
 C   -4.178450    0.077260   -0.602099
 O   -5.538975    0.056752   -0.893299
 S   -6.573522    0.125561    0.355612
 O   -6.025652   -0.574852    1.491166
 O   -7.843429   -0.197642   -0.241460
 N   -6.516838    1.747721    0.735190
 H   -4.558549   -4.230021   -0.241508
 H   -2.968689   -3.772225   -0.912444
 H   -3.313397   -3.526818    0.828427
 H   -1.659554   -2.115997   -0.004542
 H    0.579072   -1.877743   -0.575943
 H    0.203865   -1.846334    1.132679
 H    2.333655   -1.038453    1.754239
 H    2.697201   -2.135000    0.423734
 H    1.732386   -0.216616   -1.926292
 H    3.232971   -1.163894   -1.862782
 H    3.295799    0.576314   -2.128604
 H    4.400042    0.183964    1.436971
 H    7.253211   -2.682779    0.213503
 H    8.135893   -1.800343   -0.929410
 H    5.095694    2.331271    0.696915
 H    4.989722    1.871950   -0.993766
 H    2.935327    3.318824    0.469377
 H    2.772182    2.645665   -1.150246
 H    2.258666    1.280316    1.515018
 H    0.538858    3.399077   -0.097548
 H   -1.890561    3.413167   -0.505341
 H   -4.031719    2.180851   -0.746238
 H   -6.462395    1.874130    1.739671
 H   -7.291534    2.252656    0.318105
