50 
6e92_ligand_xtb.xyz
 C   -7.253041   -0.732976    1.005251
 O   -6.099749   -1.451950    0.625516
 C   -4.985296   -0.820387    0.175697
 C   -3.980161   -1.690389   -0.251379
 C   -4.760035    0.561407    0.117856
 O   -5.705150    1.466844    0.584736
 C   -5.300691    2.184143    1.737265
 C   -3.553674    1.025584   -0.430024
 O   -3.269007    2.369898   -0.526258
 C   -4.143071    3.131343   -1.340354
 C   -2.572276    0.138895   -0.843744
 C   -2.774341   -1.229020   -0.740689
 C   -1.709845   -2.208045   -1.193615
 N   -0.365325   -1.744132   -0.985712
 C    0.035086   -1.618114    0.402353
 C    0.292332   -1.057038   -1.955562
 C    1.490959   -0.471927   -1.772478
 C    2.145330   -0.559058   -0.493415
 C    3.445714   -0.091407   -0.297239
 C    1.463989   -1.164329    0.571889
 C    2.090719   -1.297951    1.795905
 C    3.384753   -0.838522    1.990797
 C    4.052216   -0.230293    0.936012
 O    5.338041    0.227895    1.176035
 S    6.239718    0.702248   -0.072292
 O    6.422975   -0.381467   -0.971531
 O    5.785811    1.958637   -0.555348
 N    7.652706    0.950867    0.736028
 H   -7.099833   -0.182272    1.936679
 H   -7.572880   -0.040363    0.224759
 H   -8.020399   -1.491606    1.160958
 H   -4.180326   -2.747725   -0.174994
 H   -5.179769    1.509266    2.592772
 H   -4.363497    2.721405    1.574891
 H   -6.100504    2.893716    1.943387
 H   -4.084427    2.797823   -2.381850
 H   -5.180314    3.070740   -1.003957
 H   -3.792628    4.159472   -1.268545
 H   -1.653482    0.543843   -1.238635
 H   -1.845720   -2.411678   -2.260823
 H   -1.843472   -3.152840   -0.654366
 H   -0.104916   -2.594763    0.886100
 H   -0.633071   -0.904180    0.919385
 H   -0.187044   -1.060227   -2.924630
 H    1.995821    0.019592   -2.585365
 H    3.981321    0.377733   -1.105667
 H    1.566914   -1.765582    2.617355
 H    3.875728   -0.941508    2.944695
 H    8.004173    0.104504    1.149307
 H    7.575792    1.701183    1.400649
