77 
6e9a_ligand_xtb.xyz
 O   -5.525394    0.168159   -0.318797
 C   -6.092212    0.797471   -1.446078
 C   -4.414725   -0.595878   -0.490367
 C   -3.950765   -1.258237    0.650706
 C   -2.816234   -2.038026    0.590735
 C   -2.134361   -2.162679   -0.607661
 C   -2.587705   -1.521273   -1.742481
 C   -3.730359   -0.740777   -1.694733
 S   -0.615117   -3.115684   -0.677489
 O   -0.825267   -4.404597   -0.091974
 O   -0.142945   -3.053879   -2.039723
 N    0.466494   -2.280282    0.244224
 C    0.692003   -2.679063    1.616842
 C    1.767358   -3.768450    1.723807
 C    1.870575   -4.237383    3.173217
 C    3.115564   -3.265154    1.219552
 C    0.630096   -0.910788   -0.169005
 C    1.950933   -0.676950   -0.932061
 O    2.310786   -1.763786   -1.738385
 C    1.817968    0.603873   -1.795848
 N    1.249275    1.690734   -1.028181
 C   -0.022792    2.093743   -1.188239
 O   -0.759487    1.787240   -2.093825
 O   -0.374556    2.944624   -0.183339
 C   -1.701421    3.465708   -0.216146
 C   -2.759299    2.377278   -0.012710
 C   -2.669349    2.044419    1.477658
 O   -1.697903    1.032930    1.704890
 C   -0.623814    1.542587    2.339265
 O    0.389318    0.928255    2.534619
 N   -0.900631    2.807789    2.745037
 C   -2.112407    3.321538    2.163291
 C   -1.863601    4.334502    1.031393
 C    3.171516    1.006006   -2.408213
 C    5.063868    0.485005   -0.840005
 C    5.961618    0.851418    0.147164
 C    5.980801    2.151645    0.623019
 C    5.100562    3.084736    0.102568
 C    4.202024    2.716630   -0.883725
 C    4.170370    1.412325   -1.363500
 H   -5.400416    1.514605   -1.898318
 H   -6.970218    1.324988   -1.076631
 H   -6.400536    0.066138   -2.198679
 H   -4.501506   -1.142733    1.570363
 H   -2.458844   -2.557751    1.464119
 H   -2.037167   -1.639490   -2.662240
 H   -4.064206   -0.247320   -2.592770
 H    0.981928   -1.796639    2.192102
 H   -0.241613   -3.074939    2.028845
 H    1.442052   -4.604338    1.097742
 H    0.917904   -4.631145    3.519546
 H    2.618067   -5.021575    3.264098
 H    2.159075   -3.410143    3.819113
 H    3.442230   -2.406976    1.804808
 H    3.865691   -4.047987    1.307456
 H    3.042963   -2.974396    0.176027
 H   -0.201861   -0.662367   -0.836532
 H    0.583510   -0.255714    0.702449
 H    2.766519   -0.537933   -0.211443
 H    1.505059   -2.239146   -2.016430
 H    1.112028    0.396625   -2.607659
 H    1.730510    1.963755   -0.184281
 H   -1.848532    4.008820   -1.155476
 H   -2.567044    1.499930   -0.625810
 H   -3.742814    2.779814   -0.248705
 H   -3.619083    1.689961    1.884159
 H   -0.175165    3.406337    3.098342
 H   -2.768833    3.726357    2.939530
 H   -2.722990    4.992160    0.914586
 H   -0.974118    4.933185    1.217008
 H    3.004986    1.828803   -3.105727
 H    3.538576    0.139842   -2.958958
 H    5.052915   -0.528452   -1.212939
 H    6.650250    0.120629    0.545134
 H    6.682699    2.438641    1.392158
 H    5.116499    4.103274    0.463627
 H    3.523715    3.451518   -1.294737
