77 
6e9a_ligand_dft.xyz
 O   -5.606014    0.711929    0.131295
 C   -6.166426    1.365586   -0.989375
 C   -4.648848   -0.220684   -0.088262
 C   -4.175952   -0.883104    1.051942
 C   -3.162871   -1.819103    0.942216
 C   -2.611677   -2.097048   -0.311049
 C   -3.097749   -1.463540   -1.447977
 C   -4.122874   -0.528590   -1.344920
 S   -1.211930   -3.191844   -0.444360
 O   -1.304665   -4.172950    0.623788
 O   -1.104744   -3.589338   -1.839170
 N    0.123346   -2.238721   -0.114838
 C    0.437771   -2.024927    1.313943
 C    1.412256   -3.050418    1.899225
 C    1.485707   -2.841992    3.414178
 C    2.802725   -2.936741    1.272810
 C    0.241803   -1.045006   -0.968083
 C    1.710265   -0.808470   -1.295087
 O    2.215990   -1.887431   -2.053186
 C    1.930805    0.479529   -2.100026
 N    1.459136    1.623770   -1.335203
 C    0.228492    2.150506   -1.541060
 O   -0.524396    1.903546   -2.462652
 O   -0.066357    3.029483   -0.543900
 C   -1.437222    3.432499   -0.427174
 C   -2.330799    2.253817   -0.031951
 C   -1.983968    1.981606    1.429958
 O   -0.870732    1.081458    1.515139
 C    0.232674    1.724749    1.966973
 O    1.338439    1.236103    1.943659
 N   -0.136342    2.950795    2.445346
 C   -1.461436    3.337599    2.004618
 C   -1.486923    4.321840    0.814033
 C    3.407148    0.663732   -2.499875
 C    4.866664   -0.386626   -0.724616
 C    5.667199   -0.301836    0.409503
 C    5.949769    0.938763    0.976200
 C    5.429819    2.092602    0.398639
 C    4.629157    2.004859   -0.737470
 C    4.333954    0.765768   -1.311222
 H   -5.409696    1.940197   -1.538835
 H   -6.919812    2.046920   -0.593411
 H   -6.644011    0.651667   -1.670950
 H   -4.627747   -0.653970    2.011379
 H   -2.811434   -2.352143    1.818904
 H   -2.679363   -1.706744   -2.418629
 H   -4.484384   -0.043446   -2.243329
 H    0.869477   -1.023604    1.401833
 H   -0.485821   -2.008992    1.904425
 H    1.007287   -4.048637    1.699996
 H    0.507595   -2.989843    3.886039
 H    2.189036   -3.546096    3.871062
 H    1.826879   -1.825578    3.648545
 H    3.247089   -1.955269    1.482925
 H    3.473123   -3.702342    1.678757
 H    2.773828   -3.063494    0.186695
 H   -0.286802   -1.218393   -1.908173
 H   -0.203524   -0.183452   -0.462567
 H    2.267209   -0.711890   -0.350533
 H    1.756275   -2.681470   -1.740365
 H    1.326416    0.437658   -3.009938
 H    1.868635    1.772231   -0.419631
 H   -1.755018    3.923972   -1.349062
 H   -2.196946    1.373909   -0.661789
 H   -3.380982    2.560434   -0.103163
 H   -2.805713    1.539808    1.994281
 H    0.596586    3.630990    2.575771
 H   -2.055972    3.699673    2.847482
 H   -2.430361    4.878486    0.819698
 H   -0.667826    5.045477    0.843073
 H    3.475037    1.569645   -3.111466
 H    3.688556   -0.186426   -3.127085
 H    4.629054   -1.355141   -1.157056
 H    6.068823   -1.208212    0.853456
 H    6.572731    1.004804    1.863320
 H    5.647325    3.064433    0.832535
 H    4.225402    2.908824   -1.187912
