44 
6e9l_ligand_xtb.xyz
 N    8.035619    1.121447   -0.351409
 C   -3.320709    2.085645    1.324062
 C   -4.665640    2.166266    1.025959
 C   -5.277560    1.153257    0.297785
 C   -4.521357    0.072066   -0.160691
 C   -6.334655   -0.588998   -1.463140
 C    1.348098   -1.065290    0.169188
 C    4.000431   -0.206894   -0.033911
 C    1.843611   -0.594058   -1.042906
 C    5.721774    1.401942   -0.858728
 C    6.433854   -0.445760    0.466720
 O   -0.344538   -2.404851    1.160910
 C   -0.054068   -1.545168    0.351847
 C    3.154062   -0.167970   -1.140153
 C    5.391938    0.252012   -0.142578
 C    7.726706    0.029763    0.327665
 C    7.049594    1.788010   -0.927110
 C    3.506489   -0.697909    1.173022
 C    2.197881   -1.123768    1.270391
 N   -0.972552   -0.949980   -0.447721
 C   -2.384559   -1.212844   -0.319699
 C   -3.164684   -0.016254    0.158829
 O   -5.072172   -0.924464   -0.932948
 C   -7.205563    0.046880   -0.381729
 O   -6.624133    1.253982    0.055119
 C   -2.579904    0.991804    0.908346
 H   -2.849865    2.870899    1.894577
 H   -5.270378    2.996541    1.352580
 H   -6.771618   -1.517898   -1.832309
 H   -6.217412    0.120885   -2.293914
 H    1.220155   -0.585839   -1.925743
 H    4.953707    1.992509   -1.334643
 H    6.238694   -1.351967    1.019309
 H    3.535948    0.176422   -2.090365
 H    8.561410   -0.488454    0.781820
 H    7.342916    2.677257   -1.470228
 H    4.148672   -0.727601    2.040855
 H    1.808002   -1.510122    2.200053
 H   -0.702717   -0.168299   -1.022735
 H   -2.479819   -2.032653    0.400799
 H   -2.795441   -1.550677   -1.277202
 H   -7.300525   -0.651395    0.461222
 H   -8.195706    0.298899   -0.763900
 H   -1.535186    0.917491    1.170064
