47 
6ea2_ligand_xtb.xyz
 N   -2.709289   -0.363477   -0.262378
 C   -1.930168    0.728917   -0.825756
 C   -2.366182    2.051827   -0.157835
 O   -1.740302    2.644479    0.703598
 C    1.757203    0.288372   -1.543115
 C    1.419368    0.146697    0.825193
 C    0.401799    0.483774   -1.723284
 C    0.062729    0.330962    0.642674
 C    4.396432    0.519584    0.986385
 C    4.447142   -0.898916   -0.948654
 C   -7.000847   -1.738105    0.587866
 C   -6.236178   -1.976379    1.885199
 C   -5.997320   -2.144176   -0.491478
 C   -4.846977   -1.427633    1.566670
 C   -3.982137   -0.611367   -0.639436
 C    5.752102    0.319392    1.159447
 C    5.801254   -1.095466   -0.761255
 C    2.285370    0.117429   -0.265407
 C    3.728062   -0.088677   -0.073324
 C   -0.459703    0.499444   -0.634516
 C    6.477751   -0.491053    0.292737
 C   -4.613197   -1.789340    0.079960
 F    6.380342    0.917761    2.181376
 F    6.474104   -1.886643   -1.609469
 F    7.790690   -0.684593    0.468643
 N   -3.525102    2.505327   -0.643283
 O   -4.551389    0.076828   -1.468475
 O   -4.090645    3.637921   -0.051208
 H   -2.281175   -0.904663    0.471687
 H   -2.180497    0.791724   -1.891521
 H    2.416199    0.296041   -2.397880
 H    1.809487    0.005097    1.821552
 H    0.009115    0.627522   -2.719029
 H   -0.589646    0.368445    1.501681
 H    3.876806    1.170256    1.671105
 H    3.960267   -1.400455   -1.769455
 H   -7.242474   -0.678966    0.492527
 H   -7.924595   -2.310774    0.530244
 H   -6.689188   -1.481482    2.742610
 H   -6.177820   -3.046294    2.092251
 H   -6.170564   -1.615364   -1.427508
 H   -6.059529   -3.215597   -0.681535
 H   -4.850174   -0.342142    1.687464
 H   -4.077544   -1.840890    2.218314
 H   -3.931407   -2.639972   -0.003216
 H   -4.177061    1.944334   -1.188663
 H   -3.406018    3.935960    0.580286
