64 
6eb1_ligand_dft.xyz
 C    0.555381    1.097807    0.384164
 C   -2.078846   -0.198527    1.613300
 C   -3.870507   -1.607072    0.825017
 C   -5.582915   -3.151365    0.292776
 C   -3.046923   -2.114095   -0.189484
 C   -1.737900   -1.646761   -0.269509
 C    3.196006   -2.202735   -0.064394
 C    4.922761   -3.378318   -1.290707
 C    3.704961   -4.512390    0.450046
 C   -0.836315    3.976600   -2.859080
 C   -1.360146    3.026326   -1.785739
 C   -2.628980    3.597815   -1.146007
 C   -1.605772    1.633432   -2.372890
 O   -0.282507    2.984235   -0.835725
 C   -0.459769    2.223790    0.325871
 C   -0.421096    3.161605    1.536058
 O   -0.337389    2.476199    2.693355
 O   -0.498962    4.362538    1.494508
 C    0.171896   -0.227836    0.445182
 C   -1.236405   -0.682869    0.605573
 C   -3.383602   -0.654325    1.720511
 O   -5.167358   -1.984872    0.990944
 C   -5.110254   -3.139430   -1.152790
 C   -3.581976   -3.128871   -1.174845
 N    1.059112   -1.248918    0.290298
 C    2.341979   -1.004326    0.170797
 C    4.180190   -2.224655   -1.057496
 C    4.691757   -4.522554   -0.533331
 C    2.957538   -3.363556    0.677446
 C    2.877197    0.323152    0.251686
 C    4.267708    0.600845    0.304671
 C    4.721224    1.893904    0.335167
 C    3.801911    2.964476    0.301505
 C    2.451693    2.728173    0.283752
 C    1.949774    1.397770    0.297402
 H   -1.700446    0.520919    2.333359
 H   -6.672216   -3.158858    0.368977
 H   -5.192244   -4.038999    0.811698
 H   -1.081836   -2.038601   -1.042599
 H    5.677422   -3.383877   -2.071493
 H    3.514046   -5.405228    1.038184
 H    0.095077    3.588643   -3.282310
 H   -1.569186    4.088993   -3.664402
 H   -0.636232    4.959713   -2.423213
 H   -3.388202    3.777250   -1.914267
 H   -2.400167    4.541595   -0.643191
 H   -3.067274    2.910148   -0.413788
 H   -1.977970    0.929617   -1.620310
 H   -0.676145    1.230695   -2.787133
 H   -2.352564    1.686918   -3.172301
 H   -1.456405    1.773441    0.359896
 H   -0.355885    3.138013    3.403284
 H   -4.043769   -0.294931    2.503049
 H   -5.506638   -2.244649   -1.646470
 H   -5.506822   -4.013724   -1.679027
 H   -3.209063   -2.904555   -2.179958
 H   -3.204007   -4.127720   -0.918619
 H    4.348839   -1.342401   -1.668137
 H    5.272066   -5.422644   -0.713835
 H    2.173475   -3.351692    1.427362
 H    4.972583   -0.222140    0.339272
 H    5.786795    2.095845    0.384678
 H    4.167829    3.987030    0.299735
 H    1.761474    3.562774    0.246886
