74 
6eb2_ligand_xtb.xyz
 C    1.333963   -1.328440    0.278043
 C    2.316631    1.347771    1.650891
 C    3.166307    3.466927    0.882870
 C    3.868008    5.638616    0.280976
 C    2.507232    3.296319   -0.336398
 C    1.753323    2.150538   -0.534147
 C   -2.541936   -0.339596   -1.016819
 C   -5.493031    1.712517   -1.230905
 C    4.297259   -0.542737   -1.806517
 C    4.580758   -1.839443   -1.037189
 C    4.991108   -2.946769   -2.011290
 C    5.687342   -1.625268    0.001170
 O    3.386365   -2.348728   -0.440232
 C    2.788647   -1.601425    0.594679
 C    2.936301   -2.336214    1.924487
 O    2.107158   -1.840836    2.855255
 O    3.708147   -3.224747    2.155492
 C    0.846262   -0.039900    0.164900
 C    1.655959    1.163236    0.437842
 C    3.062692    2.486819    1.868767
 O    3.935948    4.551786    1.181641
 C    3.881989    5.178690   -1.171971
 C    2.635470    4.334660   -1.418769
 N   -0.400650    0.224081   -0.259842
 C   -1.238198   -0.750600   -0.515797
 C   -3.326423   -0.894775   -2.049322
 N   -4.424218   -0.192419   -2.236542
 N   -4.381629    0.807421   -1.360123
 C   -6.439866    1.253042   -0.146336
 C   -6.936441   -0.044368   -0.181197
 C   -7.791622   -0.490920    0.809076
 C   -8.163253    0.356967    1.839686
 C   -7.673891    1.650836    1.877277
 C   -6.810843    2.096270    0.890127
 C   -3.268353    0.766700   -0.609877
 C   -0.894169   -2.120347   -0.325234
 C   -1.815675   -3.177519   -0.455524
 C   -1.411220   -4.474581   -0.302412
 C   -0.068897   -4.766341   -0.019588
 C    0.841388   -3.761099    0.151386
 C    0.449719   -2.410122    0.032899
 H    2.218751    0.608120    2.431455
 H    2.954153    6.217528    0.478106
 H    4.734996    6.261530    0.515204
 H    1.235541    2.012010   -1.471606
 H   -6.009891    1.722078   -2.195481
 H   -5.117066    2.715367   -1.012239
 H    4.007983    0.265712   -1.137418
 H    3.487949   -0.705572   -2.514614
 H    5.186785   -0.235744   -2.349875
 H    4.178705   -3.140132   -2.706172
 H    5.194302   -3.859049   -1.458142
 H    5.878244   -2.657520   -2.566926
 H    5.744981   -2.493178    0.653678
 H    6.642212   -1.493526   -0.500375
 H    5.500565   -0.743518    0.611481
 H    3.293771   -0.637628    0.731451
 H    2.222154   -2.318914    3.692624
 H    3.576324    2.647342    2.803795
 H    4.777479    4.578255   -1.345563
 H    3.909361    6.044679   -1.833340
 H    2.685012    3.847039   -2.394301
 H    1.748008    4.975780   -1.417135
 H   -3.111770   -1.738510   -2.674685
 H   -6.642143   -0.699268   -0.988597
 H   -8.170838   -1.501580    0.776540
 H   -8.832448    0.008941    2.612477
 H   -7.960513    2.315045    2.679180
 H   -6.428016    3.106448    0.925402
 H   -3.058044    1.486729    0.153419
 H   -2.849904   -2.949043   -0.661977
 H   -2.122661   -5.281624   -0.400181
 H    0.240203   -5.796942    0.077292
 H    1.871116   -3.990900    0.370114
