39 
6ebe_ligand_xtb.xyz
 C    4.017526   -1.494737   -0.958718
 C    5.641029   -0.034978    0.016923
 C    3.302676    0.359980    0.402051
 C   -4.537645    0.019833    0.065050
 C   -4.232027   -1.334707    0.157715
 C   -2.915812   -1.786661    0.001385
 C   -1.914563   -0.844241   -0.315574
 C   -2.231407    0.500459   -0.411797
 C   -3.533365    0.916625   -0.207483
 O   -2.620046   -3.083418    0.174041
 N   -0.604110   -1.321932   -0.517696
 C    0.520160   -0.603761   -0.135283
 N    1.678113   -1.166719   -0.614382
 O    0.454410    0.367347    0.573369
 C    2.989736   -0.750618   -0.379029
 C    5.337166   -1.142356   -0.762795
 C    4.622794    0.712075    0.596750
 S   -3.886903    2.667970   -0.300070
 O   -5.285950    2.852508   -0.529407
 O   -2.932106    3.276259   -1.176524
 N   -3.543550    3.116322    1.273136
 N   -5.304356   -2.265151    0.443911
 O   -6.266062   -1.816227    1.025458
 O   -5.181656   -3.407483    0.075868
 C    7.063937    0.371800    0.264732
 F    7.413464    0.227280    1.558282
 F    7.950868   -0.338391   -0.445646
 F    7.284318    1.664749   -0.033521
 H    3.782965   -2.356330   -1.567028
 H    2.513661    0.938210    0.851131
 H   -5.553743    0.357411    0.196777
 H   -1.478739    1.234553   -0.645624
 H   -1.667956   -3.203079    0.295070
 H   -0.503266   -2.105201   -1.148286
 H    1.603583   -1.975672   -1.215592
 H    6.126979   -1.722595   -1.213633
 H    4.867051    1.572396    1.200212
 H   -4.333349    3.522492    1.745969
 H   -2.717219    3.685732    1.349309
