73 
6edr_ligand_dft.xyz
 N    3.710014    4.405972    0.560414
 C    3.338799    3.170262    0.138889
 O    2.140534    2.945768   -0.102605
 C    4.383093    2.154802   -0.008413
 C    4.000999    0.845591    0.031453
 C    5.815335    2.431936   -0.060703
 C    6.682814    1.451762   -0.333576
 C    6.192993    0.069416   -0.681613
 N    4.893749   -0.172891   -0.045158
 C    4.477731   -1.541798    0.180505
 S    3.145369   -2.134529   -0.939614
 C    3.946410   -1.777238    1.598726
 O    4.970520   -1.759247    2.564204
 C    3.316300   -3.165394    1.579109
 O    4.315271   -4.145880    1.432866
 C    2.397493   -3.217193    0.354082
 C    0.980623   -2.779813    0.699713
 O    0.194174   -2.796935   -0.490233
 P   -0.859665   -1.618086   -0.712734
 O   -1.666582   -1.235701    0.461337
 O   -1.586222   -2.140469   -2.005243
 O    0.142764   -0.418937   -1.173574
 P   -0.213437    1.003111   -1.856801
 O   -1.138947    0.928225   -2.997205
 O    1.203364    1.613418   -2.166353
 O   -0.767765    1.792225   -0.570291
 C   -1.068932    3.185799   -0.728595
 C   -2.273978    3.544493    0.114855
 O   -3.444410    2.917328   -0.426599
 C   -2.202229    3.131170    1.587510
 O   -2.916740    4.072635    2.351943
 C   -2.933813    1.786824    1.601066
 O   -3.525247    1.589346    2.858416
 C   -3.966787    1.987168    0.469996
 N   -4.211522    0.733814   -0.238865
 C   -3.813546    0.379869   -1.493722
 N   -3.993486   -0.898615   -1.751115
 C   -4.530395   -1.410144   -0.584216
 C   -4.650468   -0.413478    0.370460
 N   -5.031602   -0.566971    1.646216
 C   -5.312171   -1.841042    1.918967
 N   -5.235471   -2.900029    1.110020
 C   -4.818086   -2.714942   -0.151386
 N   -4.698779   -3.793904   -0.959134
 H    2.969009    5.070882    0.723990
 H    4.594198    4.572630    1.011757
 H    2.959679    0.570042    0.173963
 H    6.185482    3.437121    0.119923
 H    7.751858    1.633391   -0.367445
 H    6.109384   -0.058603   -1.774720
 H    6.894182   -0.690066   -0.322623
 H    5.359526   -2.171860    0.051796
 H    3.174747   -1.027502    1.829863
 H    5.427010   -0.910467    2.495661
 H    2.737470   -3.332718    2.500744
 H    4.995167   -3.940109    2.090722
 H    2.376975   -4.240267   -0.027772
 H    0.535611   -3.483193    1.411989
 H    0.976774   -1.783652    1.155711
 H   -2.455629   -1.667774   -2.154718
 H    1.632640    2.039616   -1.372346
 H   -0.192298    3.760533   -0.413617
 H   -1.295970    3.407888   -1.776704
 H   -2.418547    4.628414    0.056267
 H   -1.164182    3.037675    1.934341
 H   -3.361411    3.555499    3.043304
 H   -2.257456    0.968964    1.326794
 H   -4.125105    0.821433    2.768973
 H   -4.921606    2.334063    0.883387
 H   -3.359916    1.086587   -2.172760
 H   -5.633606   -2.049931    2.935986
 H   -4.162420   -3.706446   -1.808344
 H   -4.730090   -4.699199   -0.515895
