73 
6edr_ligand_xtb.xyz
 N    4.110567    4.331206    0.220816
 C    3.590620    3.105011   -0.002270
 O    2.364074    2.970880   -0.087284
 C    4.511902    1.982071   -0.116299
 C    4.016180    0.717274    0.010742
 C    5.942950    2.124015   -0.326999
 C    6.696001    1.050097   -0.542729
 C    6.124315   -0.337263   -0.599783
 N    4.787095   -0.385216   -0.020942
 C    4.244556   -1.673126    0.258362
 S    2.842214   -2.166068   -0.857812
 C    3.660126   -1.815177    1.671314
 O    4.659952   -1.841204    2.659563
 C    2.931670   -3.167897    1.672728
 O    3.849589   -4.223366    1.631406
 C    2.055235   -3.218281    0.420519
 C    0.629382   -2.752921    0.686792
 O   -0.101763   -2.744490   -0.522992
 P   -0.933004   -1.421828   -0.834179
 O   -1.754517   -0.942760    0.277172
 O   -1.614041   -1.832997   -2.165531
 O    0.248899   -0.376013   -1.183555
 P   -0.130604    1.084238   -1.735383
 O   -1.097355    1.085328   -2.823044
 O    1.259081    1.709752   -2.070043
 O   -0.634281    1.776590   -0.372335
 C   -0.917981    3.164860   -0.490484
 C   -2.135171    3.549468    0.354030
 O   -3.339480    3.061225   -0.227790
 C   -2.076280    3.004960    1.789958
 O   -2.632741    3.926891    2.686386
 C   -2.916722    1.723232    1.702225
 O   -3.582016    1.479168    2.907798
 C   -3.891000    2.036413    0.538039
 N   -4.105748    0.842003   -0.244284
 C   -3.785230    0.584408   -1.536503
 N   -3.945849   -0.666475   -1.873506
 C   -4.392155   -1.291377   -0.732908
 C   -4.483321   -0.350611    0.301510
 N   -4.834350   -0.624826    1.560376
 C   -5.084428   -1.909881    1.746386
 N   -5.011798   -2.895138    0.871151
 C   -4.649502   -2.627138   -0.387007
 N   -4.577363   -3.643382   -1.269933
 H    3.471894    5.103142    0.312936
 H    5.087963    4.489187    0.379249
 H    2.963482    0.566985    0.206097
 H    6.392085    3.104496   -0.325734
 H    7.757544    1.123458   -0.718110
 H    6.092208   -0.689493   -1.645223
 H    6.770637   -1.026195   -0.041579
 H    5.032718   -2.421366    0.134081
 H    2.937489   -1.010803    1.863206
 H    5.104765   -0.987036    2.682747
 H    2.303212   -3.247571    2.574179
 H    4.517638   -4.054418    2.309552
 H    2.040374   -4.235621    0.025302
 H    0.137536   -3.446325    1.379011
 H    0.622422   -1.753003    1.132450
 H   -2.486298   -1.365125   -2.298608
 H    1.721039    2.112438   -1.287417
 H   -0.040975    3.726044   -0.153810
 H   -1.130320    3.405794   -1.536627
 H   -2.210216    4.642994    0.375113
 H   -1.040297    2.782654    2.074870
 H   -3.162208    3.411578    3.314560
 H   -2.281616    0.879838    1.407733
 H   -4.117106    0.670745    2.769030
 H   -4.868409    2.356778    0.941909
 H   -3.429926    1.344212   -2.202229
 H   -5.373208   -2.193681    2.749811
 H   -4.105723   -3.478656   -2.142318
 H   -4.616009   -4.578167   -0.901226
