70 
6eds_ligand_dft.xyz
 C   -3.841545   -1.593320    0.548032
 C   -4.110460   -1.109170    2.614204
 C   -4.682287   -2.336923    2.417016
 C   -4.943485   -3.879486    0.447175
 C   -1.901866    0.648825   -1.693752
 C   -1.273977    0.837558   -0.336012
 C   -4.427174    0.644531   -2.056664
 C   -4.541105    2.119866   -1.680690
 C   -4.335724    2.439374   -0.193064
 C   -2.912083    2.792448    0.255636
 C   -0.711419    1.979916    1.315017
 C   -0.505107    3.321560    1.978389
 C   -0.029829    1.674483   -0.038560
 C    1.331575    1.043377   -0.016934
 C    2.435538    1.852776    0.267132
 C    3.709028    1.308644    0.349747
 C    3.920944   -0.058839    0.136175
 C    5.276128   -0.663902    0.262414
 C    6.366006   -0.240956   -0.518109
 C    6.221390    0.813433   -1.590306
 C    7.624249   -0.839218   -0.314928
 C    8.818517   -0.408332   -1.129369
 C    7.765356   -1.844110    0.640835
 C    6.681233   -2.274157    1.396688
 C    5.441708   -1.684183    1.205547
 C    2.814574   -0.858459   -0.159670
 C    1.533691   -0.318671   -0.234298
 N   -3.578703   -0.652624    1.439917
 N   -4.503459   -2.642943    1.095177
 N   -3.210651    0.014769   -1.528266
 N   -2.068972    1.634796    0.687245
 O   -4.305983   -2.243599   -1.914175
 O   -0.529509    4.335581    1.002976
 O   -1.899875   -2.076819   -1.142500
 S   -3.267550   -1.587071   -1.145697
 H   -4.055555   -0.534311    3.526691
 H   -5.197352   -3.007847    3.087312
 H   -5.710261   -3.661407   -0.295138
 H   -5.342432   -4.536602    1.219319
 H   -4.097840   -4.366979   -0.039455
 H   -2.053571    1.599350   -2.207516
 H   -1.229372    0.046133   -2.311017
 H   -1.162714   -0.145590    0.128552
 H   -5.278081    0.104347   -1.634324
 H   -4.478780    0.523614   -3.144703
 H   -5.550476    2.427442   -1.973157
 H   -3.867997    2.735495   -2.289917
 H   -4.738571    1.635036    0.433754
 H   -4.930577    3.328696    0.038598
 H   -2.970189    3.436374    1.134406
 H   -2.365668    3.354538   -0.504529
 H   -0.505666    1.184747    2.037463
 H    0.473641    3.257481    2.475147
 H   -1.262462    3.477666    2.762366
 H   -0.025189    2.592187   -0.636891
 H    2.291677    2.920211    0.422084
 H    4.555101    1.946909    0.586660
 H    6.708669    1.752421   -1.298608
 H    5.176230    1.034711   -1.813226
 H    6.696403    0.488522   -2.521650
 H    8.987300    0.672133   -1.057216
 H    9.726993   -0.912480   -0.790143
 H    8.686403   -0.641726   -2.192742
 H    8.740651   -2.299452    0.790758
 H    6.805844   -3.058982    2.136267
 H    4.589775   -1.996737    1.803356
 H    2.962401   -1.918167   -0.344875
 H    0.704949   -0.977478   -0.483333
 H   -2.662633    0.961005    1.218814
 H   -0.267671    5.170197    1.409220
