70 
6eds_ligand_xtb.xyz
 C   -3.718301   -1.586009    0.535407
 C   -3.947606   -1.097648    2.612269
 C   -4.475295   -2.344275    2.430782
 C   -4.696214   -3.887465    0.494179
 C   -1.924275    0.716524   -1.732424
 C   -1.291676    0.795534   -0.361719
 C   -4.398910    0.666178   -2.116103
 C   -4.643096    2.074979   -1.568315
 C   -4.402478    2.205913   -0.060521
 C   -2.982403    2.612343    0.351683
 C   -0.763835    1.901882    1.324573
 C   -0.618324    3.282458    1.945727
 C   -0.061599    1.641582   -0.029790
 C    1.304129    1.020162    0.003684
 C    2.391991    1.840631    0.290106
 C    3.669441    1.323341    0.361478
 C    3.895474   -0.033847    0.143960
 C    5.247332   -0.612639    0.264085
 C    6.314947   -0.190915   -0.531165
 C    6.125291    0.824507   -1.618731
 C    7.579016   -0.756136   -0.331475
 C    8.745582   -0.322997   -1.165023
 C    7.750764   -1.729656    0.642247
 C    6.686612   -2.161098    1.413214
 C    5.437891   -1.606145    1.221066
 C    2.806700   -0.849494   -0.145768
 C    1.525414   -0.332706   -0.219553
 N   -3.474203   -0.637117    1.424713
 N   -4.322718   -2.643112    1.111464
 N   -3.207350    0.067424   -1.562908
 N   -2.082434    1.497974    0.707941
 O   -4.253328   -2.208434   -1.924106
 O   -0.772020    4.277493    0.962239
 O   -1.878026   -2.024125   -1.229619
 S   -3.222937   -1.538338   -1.197754
 H   -3.879345   -0.506934    3.502326
 H   -4.934491   -3.020263    3.121100
 H   -4.892836   -3.727217   -0.564143
 H   -5.587037   -4.278614    0.983248
 H   -3.886779   -4.613194    0.595358
 H   -2.070297    1.694463   -2.187835
 H   -1.268039    0.122571   -2.377578
 H   -1.152593   -0.231896   -0.017201
 H   -5.217584    0.002186   -1.837881
 H   -4.352268    0.696816   -3.211260
 H   -5.680644    2.326406   -1.788123
 H   -4.025481    2.800795   -2.099044
 H   -4.681847    1.278248    0.438971
 H   -5.068011    2.986674    0.309682
 H   -3.062885    3.222642    1.251996
 H   -2.509411    3.229152   -0.412895
 H   -0.487830    1.150882    2.068090
 H    0.388160    3.315281    2.383004
 H   -1.345545    3.413979    2.761022
 H   -0.039738    2.569255   -0.606154
 H    2.232141    2.896951    0.452326
 H    4.501461    1.969702    0.595566
 H    6.649331    1.748991   -1.375793
 H    5.074155    1.051378   -1.773328
 H    6.538019    0.451520   -2.554698
 H    8.871486    0.757845   -1.126055
 H    9.661059   -0.791770   -0.814657
 H    8.596170   -0.602042   -2.208008
 H    8.729792   -2.159827    0.793869
 H    6.832298   -2.925014    2.161785
 H    4.599888   -1.923040    1.825319
 H    2.969759   -1.900842   -0.328376
 H    0.711968   -0.995821   -0.473427
 H   -2.672941    0.752314    1.207863
 H   -0.478590    5.126147    1.309168
