56 
6ee3_ligand_dft.xyz
 C   -5.829295   -0.153704   -1.089626
 C   -5.595851    0.080977    0.412405
 C   -6.507766   -0.851440    1.224290
 C   -6.198500   -2.315963    0.875067
 C   -4.729745   -2.617523    1.209194
 C   -6.432345   -2.545864   -0.627553
 C   -5.518115   -1.616342   -1.443652
 C   -4.048084   -1.917412   -1.106603
 C   -3.807822   -1.692430    0.395978
 C   -4.127685   -0.227938    0.771713
 C   -3.189458    0.824335    0.194950
 O   -3.552095    1.966389   -0.075816
 N   -1.877676    0.499595    0.056321
 C   -0.966392    1.515789   -0.428963
 C   -1.181835    2.774815    0.431020
 O   -1.074349    2.821996    1.621491
 N   -1.442381    4.081298   -0.280141
 O   -0.958633    4.083448   -1.381856
 C    0.471518    1.057875   -0.330746
 C    0.970266    0.529255    0.862018
 C    2.291895    0.113622    0.946254
 C    1.324956    1.182488   -1.425316
 C    2.650157    0.774953   -1.335864
 C    3.152421    0.228996   -0.150875
 C    4.566098   -0.213486   -0.056441
 C    5.172770   -0.879685   -1.125789
 C    6.491583   -1.288408   -1.024915
 F    7.075129   -1.933181   -2.036648
 C    7.233807   -1.052844    0.125586
 F    8.500261   -1.451972    0.212388
 C    6.622918   -0.390944    1.183514
 F    7.339637   -0.156664    2.283842
 C    5.306701    0.030338    1.104500
 H   -5.203052    0.527489   -1.677060
 H   -6.873199    0.078056   -1.335924
 H   -5.802065    1.126120    0.656816
 H   -6.363428   -0.681098    2.299397
 H   -7.558379   -0.625966    1.001872
 H   -6.848405   -2.979942    1.456901
 H   -4.496776   -3.664486    0.976451
 H   -4.548609   -2.477198    2.282817
 H   -6.230654   -3.594691   -0.882718
 H   -7.483151   -2.350135   -0.877122
 H   -5.686213   -1.781131   -2.514308
 H   -3.386212   -1.273319   -1.700535
 H   -3.804570   -2.955772   -1.365621
 H   -2.768842   -1.942256    0.650987
 H   -4.011043   -0.121240    1.861658
 H   -1.528341   -0.427645    0.236766
 H   -1.204295    1.767534   -1.465810
 H    0.322662    0.457235    1.730776
 H    2.657078   -0.320943    1.872230
 H    0.954017    1.616519   -2.349480
 H    3.307933    0.903387   -2.190526
 H    4.625525   -1.110876   -2.032906
 H    4.882614    0.569033    1.944419
