56 
6ee3_ligand_xtb.xyz
 C   -6.113830   -0.097287   -1.360651
 C   -5.751635    0.462554    0.014560
 C   -6.730921   -0.082272    1.053986
 C   -6.645214   -1.608571    1.082939
 C   -5.225084   -2.035502    1.451169
 C   -6.997558   -2.171335   -0.293406
 C   -6.021116   -1.620545   -1.331977
 C   -4.594615   -2.030141   -0.968697
 C   -4.241753   -1.488298    0.415914
 C   -4.329830    0.048239    0.417362
 C   -3.276250    0.690504   -0.459838
 O   -3.478122    1.377973   -1.429096
 N   -1.983335    0.427537   -0.030074
 C   -0.901219    1.029503   -0.602169
 C   -0.619840    3.131651    0.870990
 O   -1.680384    3.101448    1.353984
 N    0.418207    3.526078    0.416209
 O    1.552164    2.985334   -0.073736
 C    0.402774    0.844569   -0.276960
 C    0.888459   -0.098316    0.688578
 C    2.203407   -0.366132    0.809121
 C    1.407127    1.769838   -0.896343
 C    2.790767    1.219162   -0.920328
 C    3.171431    0.251232   -0.066037
 C    4.560875   -0.233982   -0.033177
 C    5.257382   -0.457901   -1.217349
 C    6.559497   -0.917413   -1.180693
 F    7.211751   -1.139283   -2.330247
 C    7.203987   -1.159508    0.028044
 F    8.464616   -1.607805    0.057256
 C    6.501398   -0.925454    1.205123
 F    7.099873   -1.144706    2.384183
 C    5.195634   -0.474259    1.181830
 H   -5.440178    0.309199   -2.114242
 H   -7.129708    0.209165   -1.618178
 H   -5.804621    1.555249   -0.015056
 H   -6.498052    0.323240    2.041690
 H   -7.746333    0.226121    0.798455
 H   -7.345968   -1.999299    1.829022
 H   -5.160258   -3.125629    1.476381
 H   -4.968426   -1.662113    2.445809
 H   -6.946775   -3.262554   -0.272628
 H   -8.018125   -1.889245   -0.559931
 H   -6.272432   -2.022150   -2.319478
 H   -3.896502   -1.636876   -1.711696
 H   -4.506246   -3.119231   -0.967216
 H   -3.227599   -1.813489    0.680830
 H   -4.138434    0.408316    1.437435
 H   -1.848021   -0.133677    0.798236
 H   -1.181376    1.700211   -1.406486
 H    0.173326   -0.637041    1.293690
 H    2.549844   -1.104852    1.514228
 H    1.081904    2.098812   -1.892559
 H    3.496890    1.711898   -1.567903
 H    4.788929   -0.294938   -2.174312
 H    4.695389   -0.290342    2.119042
