36 
6eeh_ligand_dft.xyz
 C    4.044664    1.544940    0.146437
 C    5.924886    0.076414    0.375349
 C    3.886150   -0.711361   -0.632275
 C   -4.193893   -0.662967    0.305390
 C   -3.216619   -1.638789    0.241237
 C   -1.878694   -1.364978   -0.111942
 C   -1.570205   -0.021272   -0.432005
 C   -2.553145    0.959152   -0.383091
 C   -3.855818    0.638851   -0.029593
 O   -0.989143   -2.345951   -0.128491
 N   -0.290671    0.374432   -0.912834
 C    0.921107    0.044498   -0.374865
 N    1.975541    0.790143   -0.869584
 O    1.082510   -0.853304    0.444252
 C    3.290675    0.534555   -0.444311
 C    5.356532    1.333276    0.544104
 C    5.186760   -0.947756   -0.206804
 F    3.213697   -1.687719   -1.227201
 F    5.738004   -2.142557   -0.381490
 F    7.173972   -0.143855    0.762910
 F    6.058906    2.316560    1.095056
 F    3.492920    2.750164    0.312130
 N   -3.636490   -3.010533    0.544512
 O   -4.483444   -3.143520    1.416942
 O   -3.149585   -3.913541   -0.109079
 S   -5.063493    1.938820    0.069845
 O   -5.623451    1.967890    1.409119
 O   -4.453330    3.117638   -0.529316
 N   -6.285872    1.365469   -0.916099
 H   -5.198569   -0.932658    0.608834
 H   -2.309781    1.988073   -0.630119
 H   -0.096520   -1.971483    0.074981
 H   -0.304143    1.047012   -1.665816
 H    1.790230    1.736253   -1.171055
 H   -7.185607    1.532207   -0.475392
 H   -6.237656    1.768486   -1.846769
