68 
6eg9_ligand_xtb.xyz
 N   -9.286900   -1.307549   -1.839751
 N    6.830833   -0.159199   -0.431333
 C   -5.328600    0.826899   -0.144191
 C   -4.159961    1.555220    0.167178
 C   -4.262685    2.860727    0.683512
 C   -3.093016    3.548388    0.980336
 C   -1.848190    2.989521    0.764376
 C   -2.910422    0.983437   -0.034353
 C    1.920687    1.533207   -0.440237
 C    4.198741    2.242565   -0.840433
 C    3.667257   -0.088821   -0.868095
 C    6.061001    0.687308   -1.418715
 C    8.196569   -0.497369   -0.879006
 C    8.844690   -1.466527    0.104090
 C    6.886125    0.450457    0.912940
 C  -10.223411   -2.546101    0.102735
 C   -9.972788   -2.793845    1.427208
 C   -8.835182   -2.215721    2.029721
 N   -7.989254   -1.448432    1.405933
 N   -8.237216   -1.216023    0.130473
 C   -9.323358   -1.724320   -0.584599
 C   -8.200710   -0.541652   -1.950463
 C   -7.513033   -0.457392   -0.741265
 C   -6.345805    0.229113   -0.407820
 C   -1.743137    1.695366    0.245641
 C   -5.603640    3.467121    0.913395
 C   -0.471402    1.005266   -0.000992
 O   -0.345779   -0.195382   -0.061069
 N    0.628080    1.866022   -0.183304
 C    2.885298    2.546638   -0.569293
 C    4.635316    0.927187   -1.006098
 C    2.348357    0.202725   -0.579539
 C    4.037068   -1.538649   -0.946350
 F    3.053266   -2.383453   -1.059094
 F    4.948303   -1.816139   -1.913614
 F    4.747432   -1.900221    0.206148
 C    7.521681   -0.515481    1.903602
 C    9.520338   -1.835278    2.432894
 N    8.892584   -0.898323    1.475895
 H    6.308660   -1.041358   -0.345967
 H   -3.160168    4.544192    1.393152
 H   -0.973264    3.557055    1.051303
 H   -2.831305   -0.020820   -0.422240
 H    4.906455    3.050024   -0.951936
 H    6.105952    0.174749   -2.382822
 H    6.575458    1.645222   -1.512054
 H    8.776125    0.425472   -0.976597
 H    8.150501   -0.970558   -1.863854
 H    9.858088   -1.699962   -0.231974
 H    8.282449   -2.404626    0.145842
 H    5.867595    0.685684    1.236541
 H    7.444092    1.389179    0.847617
 H  -11.072209   -2.951959   -0.422274
 H  -10.626194   -3.418440    2.013090
 H   -8.606155   -2.388470    3.070149
 H   -7.941348   -0.073608   -2.879553
 H   -6.183604    3.459396   -0.008822
 H   -6.159184    2.877084    1.642059
 H   -5.520111    4.488389    1.274538
 H    0.417958    2.855632   -0.159507
 H    2.591088    3.579433   -0.465339
 H    1.619963   -0.587038   -0.474038
 H    6.919681   -1.425755    1.987686
 H    7.563340   -0.049804    2.891076
 H    8.938261   -2.752844    2.499248
 H   10.530285   -2.084783    2.112239
 H    9.574804   -1.385299    3.422626
 H    9.474372   -0.050213    1.454935
