68 
6eg9_ligand_dft.xyz
 N   -7.694934   -3.081322   -0.555154
 N    5.991767   -1.361443    2.564564
 C   -4.213851    0.260369    0.071218
 C   -3.160768    1.207322    0.251045
 C   -3.486337    2.566813    0.450331
 C   -2.441212    3.468565    0.633340
 C   -1.112541    3.057551    0.606026
 C   -1.826539    0.795202    0.234751
 C    2.953187    1.771405   -0.126813
 C    5.177954    1.883077    0.827764
 C    4.796546    0.626795   -1.222777
 C    7.019236    0.493352   -0.032188
 C    6.017631   -2.654551    1.911929
 C    5.123046   -2.717858    0.674721
 C    4.630530   -0.987929    2.907801
 C   -9.785851   -1.724240   -0.388945
 C  -10.208128   -0.439802   -0.192511
 C   -9.240272    0.585574   -0.002780
 N   -7.945244    0.402689    0.000108
 N   -7.564978   -0.869408   -0.195821
 C   -8.397354   -1.966752   -0.393208
 C   -6.402113   -2.696941   -0.461295
 C   -6.267453   -1.332514   -0.238245
 C   -5.152967   -0.489496   -0.074178
 C   -0.794416    1.715017    0.394893
 C   -4.923158    3.010286    0.470079
 C    0.615575    1.192810    0.367563
 O    0.853564    0.030913    0.695555
 N    1.559750    2.074458   -0.046335
 C    3.857855    2.236028    0.857875
 C    5.739858    0.979013   -0.165208
 C    3.459721    1.017560   -1.171657
 C    5.268872   -0.120721   -2.414069
 F    4.287030   -0.349277   -3.316203
 F    6.271427    0.480913   -3.079333
 F    5.753600   -1.374393   -2.110735
 C    3.663382   -1.009861    1.729692
 C    2.822722   -2.355770   -0.171176
 N    3.709582   -2.343614    1.029722
 H    6.384029   -0.673778    1.910453
 H   -2.671877    4.515854    0.808475
 H   -0.329670    3.788808    0.787574
 H   -1.580919   -0.252238    0.098729
 H    5.851177    2.260277    1.594507
 H    7.489446   -0.120368   -0.791164
 H    7.674167    0.920199    0.723831
 H    5.721405   -3.429189    2.635678
 H    7.039565   -2.881509    1.596061
 H    5.088932   -3.713409    0.221607
 H    5.456252   -1.991294   -0.068489
 H    4.625021    0.028355    3.309836
 H    4.273438   -1.656940    3.706121
 H  -10.463723   -2.556131   -0.540183
 H  -11.261548   -0.185975   -0.178247
 H   -9.547783    1.614049    0.155470
 H   -5.591693   -3.406837   -0.556016
 H   -5.418227    2.778628   -0.479338
 H   -5.488286    2.481931    1.245504
 H   -5.001197    4.085719    0.650965
 H    1.232842    2.953492   -0.422028
 H    3.486595    2.880515    1.652438
 H    2.786019    0.711380   -1.966213
 H    3.949533   -0.279295    0.978882
 H    2.624326   -0.822407    2.004432
 H    3.301070   -1.744377   -0.935654
 H    2.719928   -3.385835   -0.517619
 H    1.862989   -1.909806    0.093244
 H    3.360643   -3.043647    1.689679
