70 
6ega_ligand_dft.xyz
 C   -0.842613    3.742313    0.381876
 C    0.452208    3.238899    0.461041
 C   -1.910939    2.892957    0.128055
 C    5.307923    2.118237    1.056774
 C    6.613025    1.721325    1.114060
 C   -2.706833   -0.604604   -0.975534
 C   -3.804355   -1.415482   -1.214744
 C   -0.405351    1.020233    0.062566
 C    4.993741    0.862745   -0.972226
 C    5.078041   -1.063326    2.401551
 C    4.689132   -2.346787    0.283754
 C  -12.125916   -0.471406   -0.327991
 C  -11.931655   -1.134498    0.989546
 C    6.194699   -2.051375    2.731724
 C    5.827227   -3.274508    0.705361
 C    8.405316    0.171837    0.438767
 N   -6.265513   -1.605423   -0.925800
 N   -4.059018    1.074296    0.086575
 N    4.073351   -1.684655    1.478979
 N    3.068883    2.028232    0.003748
 N   -8.509514   -1.310721   -0.443971
 O    2.151035    0.092975    0.810110
 O   -9.493598    0.454148    0.589409
 C    2.038495    1.257638    0.396597
 C   -9.605268   -0.636480    0.057044
 C    4.442904    1.635169    0.043386
 C    0.674491    1.870861    0.295065
 C   -1.703434    1.519197   -0.042204
 C    7.187393    0.745006    0.194239
 C   -2.861688    0.627597   -0.314271
 C   -7.202571   -0.868166   -0.416552
 C    6.316292    0.444506   -0.941791
 C   -5.051492   -0.964689   -0.787044
 C   -5.093730    0.289282   -0.152695
 C  -10.903728   -1.340876   -0.105804
 C    6.831878   -0.383756   -2.059950
 N    6.811425   -2.638490    1.558655
 S   -6.751751    0.676910    0.290538
 F    7.944118    0.105928   -2.636767
 F    7.167374   -1.656632   -1.663929
 F    5.926403   -0.556051   -3.049546
 H   -1.018778    4.803769    0.525172
 H    1.274494    3.909664    0.694228
 H   -2.922718    3.278648    0.067692
 H    4.916512    2.809753    1.800821
 H    7.255992    2.101815    1.903931
 H   -1.727114   -0.911673   -1.323441
 H   -3.710252   -2.366602   -1.728333
 H   -0.205516   -0.043623   -0.009037
 H    4.364627    0.573485   -1.809481
 H    5.475647   -0.191713    1.882032
 H    4.531250   -0.723838    3.285607
 H    3.887370   -2.866776   -0.247359
 H    5.071464   -1.539080   -0.338190
 H  -11.943677    0.596678   -0.383784
 H  -12.882466   -0.856370   -1.003508
 H  -12.551078   -1.987775    1.244729
 H  -11.618379   -0.513601    1.822292
 H    5.806958   -2.860842    3.368855
 H    6.956944   -1.520039    3.307887
 H    6.315324   -3.641528   -0.199977
 H    5.419194   -4.148270    1.235850
 H    8.997838    0.508050    1.285177
 H    8.894467   -0.486957   -0.268425
 H    3.409533   -0.929703    1.156133
 H    3.517792   -2.369636    1.995635
 H    2.829351    2.914681   -0.420672
 H   -8.623768   -2.214494   -0.882716
 H  -10.882376   -2.309624   -0.596597
 H    7.332377   -1.914938    1.051988
