45 
6ei4_ligand_xtb.xyz
 C    3.386842    0.653561    1.169188
 C    4.432561    1.541697    0.998388
 C    3.286545   -0.481397    0.371960
 C    5.374088    1.284523    0.014815
 C    4.248118   -0.719448   -0.607616
 C    5.296050    0.160649   -0.793876
 C    2.150338   -1.453659    0.545742
 C   -0.799844   -2.436981    0.399092
 C    0.256313   -2.500445   -0.701797
 C   -0.644574   -0.034784    0.470590
 C    0.446195   -0.059258   -0.608173
 C   -2.785317   -1.154273   -0.180049
 C   -3.396964    0.200903   -0.292224
 C   -4.643477    2.013737    0.643572
 C   -4.038576    0.774476    0.807711
 C   -4.619264    2.665456   -0.577089
 C   -3.992181    2.082193   -1.665045
 C   -3.384629    0.847816   -1.522707
 C   -4.070885    0.062488    2.125051
 F    6.381693    2.138453   -0.158992
 N    1.196561   -1.347452   -0.602217
 N   -1.500199   -1.178557    0.327353
 O   -3.336459   -2.182687   -0.488687
 H    2.655666    0.841218    1.941195
 H    4.529596    2.420074    1.615254
 H    4.196052   -1.610446   -1.217856
 H    6.052135   -0.014350   -1.541719
 H    1.617938   -1.262500    1.475896
 H    2.533136   -2.476904    0.565078
 H   -0.355243   -2.565600    1.390248
 H   -1.537688   -3.228286    0.237445
 H   -0.244020   -2.448984   -1.671729
 H    0.821046   -3.431781   -0.645890
 H   -1.232882    0.877543    0.353343
 H   -0.201883   -0.027382    1.473040
 H    1.154956    0.757279   -0.459025
 H   -0.025067    0.051730   -1.587194
 H   -5.149591    2.466663    1.482739
 H   -5.102131    3.624329   -0.683313
 H   -3.985229    2.579097   -2.622473
 H   -2.913684    0.372450   -2.371685
 H   -4.283863   -0.995064    1.983010
 H   -3.109789    0.149112    2.633891
 H   -4.834151    0.488137    2.770102
 H    1.788577   -1.352377   -1.441095
