53 
6ei5_ligand_xtb.xyz
 C    0.630985    1.513268   -0.044313
 C   -1.185570   -0.141852    0.491554
 O   -0.414998   -0.981001    0.965539
 C    1.586064    0.534635   -0.358422
 C    2.403425    3.194296   -0.082800
 C    2.918080    0.858125   -0.431731
 C    3.318642    2.206804   -0.303638
 C   -1.121465    3.501656    0.453837
 C    3.907150   -0.216174   -0.637245
 C   -3.019738   -1.703874    0.480610
 C   -4.310370   -1.719402    0.025816
 C   -5.340471   -2.692476    0.058061
 C   -6.536357   -2.386128   -0.507185
 C   -6.776093   -1.123777   -1.123817
 C    4.676916   -0.245382   -1.794777
 C    4.988440   -2.237326    0.092599
 C    2.006772   -3.173836    1.120282
 N   -2.468192   -0.469515    0.180153
 C   -0.731015    1.258187    0.264792
 C    1.032309    2.878746    0.066192
 N   -1.580004    2.226365    0.499298
 N    0.147082    3.845958    0.316832
 N   -2.037755    4.464796    0.598674
 C   -3.404428    0.301736   -0.485268
 C   -4.554745   -0.431953   -0.599567
 C   -5.820962   -0.160880   -1.178056
 C    5.578250   -1.269701   -2.017365
 C    5.728649   -2.273633   -1.074805
 C    4.069282   -1.218900    0.325355
 C    3.366051   -1.153577    1.659496
 N    2.027998   -1.823159    1.704851
 H    1.265661   -0.470594   -0.592504
 H    2.690507    4.230885   -0.017661
 H    4.368213    2.443489   -0.393863
 H   -2.447548   -2.441575    1.004485
 H   -5.159984   -3.648534    0.524639
 H   -7.339407   -3.107358   -0.498725
 H   -7.749996   -0.945741   -1.553724
 H    4.553165    0.540313   -2.524425
 H    5.140756   -3.002072    0.840371
 H    2.327321   -3.126014    0.081554
 H    2.676237   -3.836250    1.665535
 H    0.994657   -3.569107    1.161301
 H   -2.992852    4.218708    0.786854
 H   -1.736204    5.421672    0.643470
 H   -3.176689    1.290797   -0.820319
 H   -6.001512    0.795110   -1.644370
 H    6.166436   -1.282391   -2.921302
 H    6.433099   -3.073229   -1.239530
 H    3.220266   -0.111267    1.951423
 H    3.999247   -1.642867    2.404163
 H    1.734887   -1.884742    2.684618
 H    1.271012   -1.253857    1.237408
