39 
6eil_ligand_xtb.xyz
 C   -4.934783   -1.489658    0.880905
 O   -3.616451   -1.306777    0.429213
 C   -3.201480   -0.041350    0.106616
 C   -4.038673    1.067329    0.112873
 C   -3.561408    2.328614   -0.191594
 C   -2.218187    2.524246   -0.501991
 N   -1.711821    3.794292   -0.718905
 C   -1.381382    1.414211   -0.514442
 C   -1.845223    0.136145   -0.223147
 C   -0.871392   -0.958842   -0.247092
 N    0.398457   -0.610565   -0.077667
 C   -1.178956   -2.309966   -0.488656
 N   -0.265453   -3.253285   -0.479531
 C    1.009051   -2.909470   -0.229400
 N    1.916860   -3.888215   -0.157452
 C    1.347675   -1.536699   -0.057380
 C    2.737931   -1.099242    0.116726
 O    3.680905   -1.883027    0.084118
 C    2.957421    0.356593    0.275271
 C    2.138312    1.191691    1.031880
 C    2.420874    2.546915    1.064115
 C    3.522012    3.012919    0.361234
 N    4.316465    2.226273   -0.346439
 C    4.041072    0.939091   -0.387548
 H   -5.144101   -0.888888    1.771963
 H   -5.666984   -1.252727    0.101468
 H   -5.011811   -2.546305    1.134129
 H   -5.084001    0.960454    0.355283
 H   -4.238031    3.170685   -0.181914
 H   -2.379312    4.487888   -1.016668
 H   -0.833180    3.831914   -1.210798
 H   -0.335112    1.530918   -0.753100
 H   -2.182134   -2.629333   -0.725132
 H    1.624436   -4.835419   -0.321534
 H    2.889218   -3.625639   -0.057014
 H    1.308585    0.788329    1.589623
 H    1.803991    3.225286    1.632954
 H    3.790780    4.061411    0.367842
 H    4.703274    0.325194   -0.984011
