54 
6ej2_ligand_xtb.xyz
 C    6.927251   -0.727758    0.049574
 C    4.565813   -0.550254    0.289357
 C    1.741952    0.226636   -0.293845
 C    2.122175   -0.671384    0.892345
 C    3.403523   -1.478132    0.667337
 C    3.741152   -2.283769    1.919366
 C    1.262566   -0.652415   -1.471969
 C   -0.195350   -0.853909   -1.194044
 C   -1.063418   -1.799896   -1.701772
 C   -2.389255   -1.776202   -1.298781
 C   -2.857464   -0.811476   -0.407866
 C    0.465196    1.052819    0.056884
 C    0.390996    1.688512    1.452722
 C   -0.286520    3.257712   -0.017187
 N    0.336045    2.261577   -0.750824
 N   -6.266173    0.409409    0.477174
 C   -4.991423    0.393731    0.133828
 O    5.683712   -1.376089    0.012528
 C    4.185550    0.314288   -0.918504
 C    2.925391    1.126109   -0.645054
 C   -1.975199    0.145016    0.100619
 C   -0.654255    0.098021   -0.287249
 O   -0.291351    2.917560    1.286391
 N   -0.771635    4.353316   -0.397422
 C   -4.268287   -0.792708   -0.016681
 C   -4.997128   -1.959097    0.227717
 N   -6.275061   -1.944103    0.559624
 C   -6.849796   -0.759666    0.668130
 H    7.077417   -0.209980    1.005350
 H    7.043031   -0.003994   -0.765069
 H    7.679940   -1.506587   -0.060064
 H    4.799352    0.105629    1.145592
 H    2.273344   -0.055888    1.780526
 H    1.298770   -1.357851    1.102827
 H    3.275722   -2.181068   -0.159937
 H    4.662989   -2.835867    1.761807
 H    2.943422   -2.987589    2.144132
 H    3.871781   -1.624462    2.775213
 H    1.800174   -1.595622   -1.538850
 H    1.392767   -0.126354   -2.422184
 H   -0.720030   -2.545416   -2.403229
 H   -3.080154   -2.502188   -1.700984
 H    1.392135    1.901248    1.845679
 H   -0.158800    1.078209    2.171221
 H    0.102439    2.163137   -1.726140
 H   -4.535796    1.360179   -0.043027
 H    4.037472   -0.342449   -1.777318
 H    5.005113    0.995261   -1.155465
 H    2.686266    1.734886   -1.518403
 H    3.111810    1.808220    0.187932
 H   -2.323743    0.893871    0.796618
 H   -0.727092    4.506983   -1.397228
 H   -4.533337   -2.936201    0.170137
 H   -7.896932   -0.746322    0.940076
