66 
6eji_ligand_dft.xyz
 C    2.819451   -0.378594    0.363382
 C    4.278101    0.053502    0.495234
 C    5.066096   -0.288802   -0.780929
 C    4.792437   -1.753372   -1.180823
 C    3.304649   -2.071744   -1.201628
 C    3.022205   -3.548122   -1.360738
 C    5.335507    2.119243    1.360379
 C    5.072564    3.496016    1.924830
 N    4.263939    1.465554    0.858824
 O    2.224718    0.442516   -0.671522
 O    6.459635   -0.225601   -0.592654
 O    5.432240   -2.610458   -0.268201
 O    2.666805   -1.700308    0.021161
 O    1.610975   -3.693386   -1.510525
 O    6.465846    1.629629    1.372270
 N   -4.119990    1.374776    0.067540
 C   -4.342840    1.794059   -1.227065
 N   -3.404226    2.675418   -1.714522
 C   -2.238979    3.090395   -1.076862
 C   -2.164326    2.718197    0.310847
 C   -3.075472    1.856409    0.808494
 O   -5.284719    1.403113   -1.903933
 O   -1.381660    3.697739   -1.720406
 C   -5.022540    0.306539    0.576112
 C   -4.961661   -0.958032   -0.320923
 O   -6.093484   -1.132968   -1.123158
 C   -4.898752   -2.092285    0.708939
 C   -4.211873   -1.429301    1.900752
 O   -4.624490   -0.055093    1.858961
 O   -6.192708   -2.465041    1.105076
 C   -2.701238   -1.551444    1.945492
 O   -2.145734   -1.002752    0.739999
 P   -0.557613   -1.129408    0.547047
 O    0.223074   -1.118820    1.794333
 O   -0.463481   -2.382295   -0.404766
 O   -0.299550    0.139971   -0.433183
 P    0.890226    1.258156   -0.363550
 O    0.712025    2.016272   -1.725490
 O    0.933996    2.036188    0.890218
 H    2.285781   -0.240639    1.305425
 H    4.709859   -0.528208    1.318353
 H    4.740317    0.383864   -1.586684
 H    5.188165   -1.901749   -2.199237
 H    2.834426   -1.525254   -2.029594
 H    3.387670   -4.077396   -0.475617
 H    3.540245   -3.928616   -2.249489
 H    4.063889    3.863805    1.721343
 H    5.806701    4.191806    1.512690
 H    5.223906    3.458649    3.007719
 H    3.358616    1.918223    0.913581
 H    6.648581    0.435153    0.109049
 H    6.280916   -2.169261   -0.091502
 H    1.381140   -4.625877   -1.428295
 H   -3.503295    2.921606   -2.692217
 H   -1.318745    3.044878    0.900335
 H   -3.033867    1.479917    1.820676
 H   -6.036540    0.716245    0.601936
 H   -4.037880   -0.939948   -0.910273
 H   -6.150447   -0.337820   -1.679259
 H   -4.328233   -2.951256    0.330272
 H   -4.609388   -1.851645    2.828004
 H   -6.760129   -2.328928    0.330320
 H   -2.299646   -1.008625    2.805407
 H   -2.430238   -2.608891    2.041071
 H    0.445735   -2.700123   -0.643580
 H    0.057317    2.762987   -1.694177
