50 
6ekd_ligand_dft.xyz
 C    8.651738   32.531706   13.329248
 C    7.039960   33.556542   15.340967
 C    7.124393   34.205166   14.112137
 C    6.569780   31.037759   18.860554
 C    8.802245   30.461980   18.618399
 C   11.140747   35.184264    9.365159
 C    9.806431   35.326952    9.019466
 N    8.779812   35.050760    9.824204
 C    9.069647   34.615993   11.058067
 C   10.384660   34.475498   11.527328
 C   11.443819   34.757175   10.666925
 C   12.824168   34.610174   11.116251
 N   13.182080   33.715758   12.116796
 C   14.517712   33.843254   12.311800
 N   15.041094   34.762660   11.535834
 C   13.996763   35.249002   10.780345
 C   14.226004   36.349384    9.794459
 S   15.371100   32.858756   13.493508
 C   17.063216   33.394610   13.123351
 N    7.969461   34.363174   11.846505
 C    7.933295   33.710006   13.093040
 C    8.578135   31.893069   14.555477
 C    7.774379   32.393066   15.591786
 N    7.708743   31.690301   16.814464
 C    6.671160   32.082304   17.754900
 O    7.801034   30.865944   19.526457
 C    8.982270   31.483358   17.504001
 H    9.245571   32.098626   12.529922
 H    6.411020   33.988422   16.111220
 H    6.565133   35.122212   13.948547
 H    5.845963   31.353951   19.616036
 H    6.236085   30.081900   18.425457
 H    8.544582   29.484770   18.178499
 H    9.725548   30.359000   19.194253
 H   11.921263   35.378623    8.639785
 H    9.538240   35.673621    8.023361
 H   10.562035   34.209126   12.563409
 H   12.578134   33.023064   12.531227
 H   15.075703   36.954984   10.119246
 H   14.460551   35.956720    8.797623
 H   13.347264   36.994810    9.703901
 H   17.713220   32.851869   13.812657
 H   17.322005   33.152144   12.091959
 H   17.160900   34.469243   13.279555
 H    7.097420   34.654673   11.429743
 H    9.113734   30.959555   14.699587
 H    6.876858   33.068214   18.210406
 H    5.712534   32.139920   17.229384
 H    9.733297   31.120094   16.798737
 H    9.352096   32.430843   17.934055
