54 
6ekn_ligand_xtb.xyz
 O    2.736768    0.721961   -1.967349
 S    2.160674   -0.592186   -1.803609
 O    2.279716   -1.495222   -2.918242
 C    2.910256   -1.411772   -0.375155
 C    2.967925   -0.819819    0.878606
 C    2.439039    0.571320    1.126379
 C    1.412947    0.487184    2.240514
 O    0.260501   -0.029084    1.799095
 O    1.588156    0.801626    3.385381
 C    3.573557    1.545067    1.481721
 C    3.166153    2.996948    1.206399
 C    2.840364    3.137663   -0.264664
 O    1.733003    3.310271   -0.704560
 O    3.923062    3.013881   -1.021732
 C    3.550310   -1.537663    1.920059
 C    4.055770   -2.808454    1.709470
 C    3.990696   -3.386202    0.451478
 C    3.414738   -2.681373   -0.590495
 C    0.427364   -0.446458   -1.373733
 C   -0.249665   -1.615490   -1.082063
 C   -0.204257    0.780883   -1.322363
 C   -1.539782    0.834981   -0.968203
 C   -2.244941   -0.328998   -0.664381
 C   -1.582705   -1.556311   -0.727634
 C   -3.662973   -0.269089   -0.286018
 C   -4.170324   -1.080589    0.730045
 C   -5.499509   -1.025196    1.082440
 C   -6.374688   -0.161187    0.420000
 O   -7.667353   -0.189336    0.839246
 C   -8.599275    0.657712    0.210995
 C   -5.879815    0.648557   -0.597168
 C   -4.539832    0.593512   -0.935078
 H    1.923355    0.913355    0.229676
 H   -0.388004   -0.084228    2.519295
 H    3.824526    1.434227    2.537645
 H    4.449946    1.304028    0.878941
 H    3.997592    3.657625    1.452064
 H    2.292744    3.269683    1.798281
 H    3.673728    2.857975   -1.947328
 H    3.599566   -1.092505    2.902436
 H    4.502210   -3.349109    2.530417
 H    4.384268   -4.376904    0.283967
 H    3.347381   -3.089958   -1.586896
 H    0.272951   -2.557698   -1.145078
 H    0.349787    1.680572   -1.542755
 H   -2.033268    1.792614   -0.904477
 H   -2.124303   -2.466069   -0.516445
 H   -3.507207   -1.746227    1.262496
 H   -5.894054   -1.644337    1.872609
 H   -8.692200    0.431767   -0.856109
 H   -8.334130    1.712166    0.338375
 H   -9.551110    0.464652    0.703061
 H   -6.527165    1.322764   -1.135401
 H   -4.176337    1.216470   -1.738628
