49 
6ekq_ligand_xtb.xyz
 C   -6.456810   -0.201326    0.017918
 C   -2.522447   -3.154366   -0.181091
 C    3.990365   -2.751417   -1.996673
 C    2.587119   -1.951625    2.786082
 C    1.307257    3.763600    0.027218
 C    3.258967   -2.394960    0.393452
 C    3.074235    1.867794   -0.333007
 C    3.676647   -0.436036   -1.098864
 C    3.015805   -0.055044    1.209660
 C   -1.596161   -0.025470   -0.147207
 C   -5.066805   -0.689923   -0.041358
 C    1.709430    2.484973   -0.174499
 C   -3.330838   -1.921128   -0.127005
 C   -0.467109    2.106041   -0.121216
 C   -2.915592   -0.600260   -0.114489
 C    3.176079   -1.881719   -1.044030
 C    2.479235   -1.481493    1.339165
 N   -4.687118   -1.931281   -0.080085
 N    0.700289    1.577453   -0.263495
 N   -1.608347    1.373760   -0.122342
 N    2.880836    0.404791   -0.188368
 O   -0.566331   -0.667788   -0.184681
 O   -4.043112    0.180944   -0.058988
 S   -0.420813    3.844930    0.119563
 H   -7.128698   -1.053060    0.021694
 H   -6.670702    0.431740   -0.841947
 H   -6.609898    0.391347    0.918636
 H   -1.847884   -3.196325    0.672018
 H   -1.912398   -3.160826   -1.082427
 H   -3.181596   -4.016447   -0.174561
 H    3.630557   -3.775342   -1.967271
 H    3.906521   -2.391222   -3.018598
 H    5.040827   -2.752027   -1.716069
 H    3.623309   -1.953334    3.116175
 H    2.199124   -2.961216    2.880827
 H    2.015669   -1.304716    3.446302
 H    1.895116    4.652650    0.121419
 H    4.303956   -2.446218    0.707405
 H    2.851023   -3.403642    0.442170
 H    3.784080    2.243744    0.406412
 H    3.469710    2.087148   -1.328795
 H    3.580073   -0.048558   -2.114928
 H    4.727923   -0.384879   -0.801762
 H    2.444879    0.618292    1.851128
 H    4.070081   -0.012442    1.496643
 H    2.126617   -1.893370   -1.358250
 H    1.424907   -1.477846    1.041136
 H   -2.500402    1.844716   -0.056927
 H    1.849870    0.298799   -0.408405
