45 
6eks_ligand_dft.xyz
 C   -3.935638    0.095937   -0.164038
 O   -4.176383    1.399999   -0.337725
 O   -4.797359   -0.737209   -0.006562
 C   -2.485498   -0.247167   -0.177577
 C   -2.196557   -1.708474    0.034626
 C   -0.735224   -2.088871   -0.224448
 C    0.224339   -1.038002    0.347405
 N    1.663338   -1.235205    0.152410
 C    2.441595   -2.330341    0.094484
 O    2.012227   -3.498620    0.115202
 C    3.922365   -2.091748   -0.016829
 C   -0.068769    0.316611   -0.333028
 C   -1.528371    0.668456   -0.318019
 O    0.716082    1.260594    0.347785
 C    1.110996    2.416359   -0.424468
 C    2.457337    2.147641   -1.101170
 C    1.101183    3.608693    0.522665
 C   -0.298194    3.954262    1.025496
 C    3.637175    2.013866   -0.137031
 N   -0.491121   -3.437745    0.379164
 H   -5.139479    1.522250   -0.308521
 H   -2.854845   -2.310420   -0.600601
 H   -2.469602   -1.963585    1.068705
 H   -0.544749   -2.206628   -1.295869
 H    0.022346   -0.917034    1.421494
 H    2.140838   -0.341639    0.210837
 H    4.407102   -2.504082    0.872553
 H    4.186909   -1.037140   -0.116611
 H    4.299428   -2.645376   -0.879996
 H    0.266664    0.231711   -1.381412
 H   -1.781656    1.716460   -0.445383
 H    0.354409    2.582885   -1.205601
 H    2.653272    2.959187   -1.811044
 H    2.364540    1.237122   -1.710800
 H    1.758292    3.389679    1.371868
 H    1.537650    4.465940   -0.003549
 H   -0.962878    4.224300    0.196202
 H   -0.267120    4.803583    1.713057
 H   -0.740006    3.106973    1.559039
 H    3.879165    2.970034    0.334936
 H    3.428630    1.305533    0.675267
 H    4.532766    1.673667   -0.665238
 H   -0.752463   -3.456428    1.367884
 H   -1.035733   -4.161099   -0.095711
 H    0.594036   -3.636685    0.289473
