45 
6eku_ligand_xtb.xyz
 C   -1.454355    2.813491    0.559954
 O   -1.966878    2.170351    1.433221
 O   -1.074473    4.083421    0.720517
 C   -1.148723    2.334892   -0.857874
 C    0.367855    2.326940   -1.097626
 C    0.991675    1.171235   -0.310938
 C    0.294123   -0.141615   -0.737824
 N    0.884076   -1.267992   -0.062262
 C    1.943607   -1.928797   -0.578869
 O    2.396820   -1.676815   -1.681248
 C    2.515370   -2.980364    0.337368
 C   -1.212300   -0.032110   -0.462965
 O   -1.742287    1.096505   -1.158541
 C   -1.995424   -1.278060   -0.961291
 O   -3.096291   -0.918233   -1.763202
 C   -2.611407   -2.119032    0.180316
 O   -3.360111   -1.302887    1.049285
 C   -1.616474   -2.894371    1.051915
 O   -0.930606   -2.056442    1.949509
 N    2.415043    1.092229   -0.534725
 C    3.299908    0.870427    0.517342
 N    4.386398    0.102799    0.186198
 N    3.208193    1.302500    1.707041
 H   -1.266911    4.386545    1.623266
 H   -1.627073    3.047213   -1.540948
 H    0.562070    2.180299   -2.161481
 H    0.797369    3.280299   -0.792255
 H    0.819507    1.322583    0.763251
 H    0.460215   -0.284416   -1.814886
 H    0.561228   -1.464190    0.877879
 H    3.244703   -2.495533    0.984680
 H    3.024891   -3.739112   -0.249528
 H    1.744519   -3.432430    0.954219
 H   -1.380443    0.097314    0.612369
 H   -1.313375   -1.919561   -1.542226
 H   -2.898799   -0.067792   -2.176335
 H   -3.270525   -2.847112   -0.318510
 H   -3.901719   -0.720485    0.502894
 H   -0.871616   -3.390673    0.427866
 H   -2.176325   -3.653827    1.613016
 H   -1.604733   -1.500544    2.367014
 H    2.643305    0.569210   -1.372130
 H    4.605474   -0.020697   -0.787658
 H    5.166162    0.182377    0.816517
 H    2.373582    1.840762    1.905850
