52 
6emu_ligand_xtb.xyz
 N    2.618431    2.048517    0.622905
 C    3.097707    0.715761    0.219216
 C    4.576356    0.822445   -0.154160
 O    5.229758   -0.322640   -0.045809
 O    5.067149    1.859075   -0.513171
 C    2.318413    0.201960   -1.007976
 C    2.460511   -1.299765   -1.179320
 S    1.551059   -2.210111    0.364145
 C    2.582850   -3.680065    0.062368
 C    0.033108   -2.425513   -0.657186
 C   -1.205258   -2.816412    0.144500
 O   -1.433601   -1.938930    1.244219
 C   -2.493291   -2.730581   -0.695586
 O   -3.435472   -3.598681   -0.160516
 C   -2.898166   -1.248925   -0.511587
 O   -4.271965   -1.094769   -0.593085
 C   -2.312465   -0.930065    0.895816
 N   -1.597201    0.341866    0.857377
 C   -0.333730    0.551200    1.234654
 N    0.055673    1.789024    0.972625
 C   -1.012507    2.435508    0.390282
 C   -1.280483    3.731326   -0.113835
 N   -0.403494    4.738993   -0.126216
 N   -2.490317    3.942152   -0.633551
 C   -3.392455    2.983736   -0.661425
 N   -3.266251    1.744585   -0.207454
 C   -2.068650    1.512208    0.317339
 H    3.113268    2.342407    1.462732
 H    2.887638    2.703653   -0.112444
 H    1.139034    2.033468    0.905440
 H    2.976228    0.017735    1.050494
 H    6.159927   -0.226638   -0.312598
 H    2.672462    0.736981   -1.895778
 H    1.262438    0.454094   -0.879926
 H    3.507329   -1.578231   -1.123777
 H    2.064674   -1.612168   -2.141711
 H    2.155498   -4.523429    0.590749
 H    3.576323   -3.465454    0.443422
 H    2.632231   -3.860808   -1.004845
 H    0.257103   -3.198781   -1.388107
 H   -0.115912   -1.477931   -1.171660
 H   -1.094069   -3.814559    0.572374
 H   -2.308622   -2.954765   -1.756479
 H   -4.319193   -3.259229   -0.361749
 H   -2.382153   -0.633600   -1.264597
 H   -4.489421   -0.151102   -0.557757
 H   -3.116258   -0.851717    1.641430
 H    0.270849   -0.214648    1.681831
 H   -0.725632    5.628752   -0.471242
 H    0.481785    4.682122    0.344079
 H   -4.344332    3.236934   -1.104672
 H    0.825382   -3.056604    1.476966
