60 
6en5_ligand_dft.xyz
 C    0.927600    1.451279    2.416689
 C    0.539050    1.628928    0.945801
 C   -1.588895    1.563300   -0.485863
 C   -1.839851    3.054553   -0.668464
 C   -2.944430    0.826366   -0.601362
 C   -4.037470    1.303575    0.368746
 C   -4.871113    0.047157    0.622149
 C   -3.818762   -1.059118    0.685538
 C   -2.085818   -1.378900   -1.132926
 C   -1.868066   -2.885158   -0.805072
 C   -1.557804   -3.267424    0.652435
 C   -0.431512   -2.415285    1.203683
 C    1.328291    0.682608    0.031228
 C    3.298327    2.262817    0.103594
 C    4.768020    1.948320   -0.178938
 C    4.694899    0.888169   -1.280102
 C    3.496791    0.028256   -0.855491
 C    3.829120   -1.129245    0.091847
 N   -0.914633    1.257000    0.815518
 N   -2.810415   -0.611745   -0.301450
 N   -0.712072   -3.258125   -1.691172
 N    2.617647    0.977764   -0.169412
 O   -2.210310    3.515569   -1.708253
 O   -1.652735    3.739314    0.473302
 O   -1.542490   -0.943062   -2.143801
 O    0.740185   -2.838386    0.752273
 O   -0.608405   -1.439526    1.902502
 O    0.774227   -0.318700   -0.429290
 O    3.096099   -1.522659    0.980833
 O    4.994665   -1.686147   -0.182078
 H    0.739874    0.423570    2.737357
 H    1.987684    1.657777    2.564952
 H    0.365645    2.143600    3.051058
 H    0.633887    2.672544    0.636900
 H   -0.929695    1.208536   -1.278528
 H   -3.258580    0.957394   -1.641651
 H   -3.612230    1.663907    1.314201
 H   -4.615817    2.123311   -0.060847
 H   -5.459061    0.104774    1.539431
 H   -5.556180   -0.131823   -0.211580
 H   -4.229076   -2.032869    0.408947
 H   -3.360858   -1.126852    1.678261
 H   -2.740176   -3.447492   -1.152459
 H   -1.283186   -4.326172    0.693049
 H   -2.443154   -3.134361    1.270221
 H    2.917156    3.027376   -0.583116
 H    3.134804    2.598313    1.128926
 H    5.246096    1.539648    0.717537
 H    5.322720    2.838126   -0.480014
 H    4.473924    1.351721   -2.245986
 H    5.609785    0.305938   -1.384712
 H    2.977594   -0.414503   -1.712353
 H   -0.966900    0.236722    0.991235
 H   -1.416119    1.726527    1.575261
 H   -0.795449   -4.190443   -2.102606
 H   -0.689147   -2.518379   -2.429061
 H    0.169841   -3.197602   -1.156130
 H   -1.873362    4.675467    0.316275
 H    1.480661   -2.211807    0.968087
 H    5.145466   -2.429618    0.428093
