60 
6en6_ligand_dft.xyz
 C    0.922474    1.551868    2.472648
 C    0.571751    1.658695    0.988246
 C   -1.515362    1.567554   -0.494995
 C   -1.701755    3.077309   -0.582021
 C   -2.888619    0.867307   -0.629202
 C   -3.988949    1.398444    0.305420
 C   -4.858993    0.171726    0.580651
 C   -3.836359   -0.958087    0.690400
 C   -2.096870   -1.375818   -1.100821
 C   -1.950020   -2.881909   -0.737684
 C   -1.638249   -3.224662    0.729104
 C   -0.476315   -2.391947    1.234751
 C    1.395967    0.702691    0.116869
 C    3.440743    2.164096    0.432164
 C    4.555899    2.253076   -0.607010
 C    4.926843    0.785317   -0.831959
 C    3.571921    0.044139   -0.733734
 C    3.693440   -1.299776   -0.034318
 N   -0.879331    1.282386    0.826825
 N   -2.806511   -0.567363   -0.297311
 N   -0.823558   -3.336181   -1.623778
 N    2.705372    0.959831    0.006842
 O   -2.082485    3.444275   -1.793679
 O   -1.546566    3.801641    0.371819
 O   -1.517523   -0.981432   -2.108881
 O   -0.607653   -1.391893    1.908298
 O    0.672021   -2.865502    0.774732
 O    0.848343   -0.264190   -0.420188
 O    4.601896   -2.056947   -0.627759
 O    3.058621   -1.651868    0.941918
 H    0.301417    2.230172    3.065876
 H    1.960844    1.840413    2.638064
 H    0.791588    0.526776    2.828394
 H    0.658005    2.693317    0.649932
 H   -0.844785    1.196911   -1.270719
 H   -3.177068    0.979286   -1.679131
 H   -3.573433    1.779522    1.246426
 H   -4.539417    2.219133   -0.157797
 H   -5.536527   -0.014553   -0.257687
 H   -5.457741    0.270822    1.487246
 H   -4.268797   -1.929467    0.440700
 H   -3.390930   -1.006010    1.690153
 H   -2.851889   -3.413078   -1.056366
 H   -1.400688   -4.290200    0.807064
 H   -2.510429   -3.037030    1.351233
 H    3.852763    2.018184    1.437247
 H    2.793344    3.043276    0.439891
 H    4.174328    2.704745   -1.527862
 H    5.399124    2.850091   -0.255918
 H    5.604930    0.442060   -0.044759
 H    5.413105    0.600061   -1.789800
 H    3.146768   -0.142581   -1.726663
 H   -0.955303    0.273596    1.049382
 H   -1.388808    1.814097    1.541061
 H   -0.963106   -4.268422   -2.019901
 H    0.064250   -3.317094   -1.095546
 H   -0.760442   -2.610794   -2.373698
 H   -2.226920    4.407811   -1.810259
 H    1.442019   -2.271876    0.982439
 H    4.693489   -2.892683   -0.138193
