60 
6en6_ligand_xtb.xyz
 C    1.013944    1.518930    2.462752
 C    0.643164    1.647425    0.989262
 C   -1.435340    1.556125   -0.444067
 C   -1.563153    3.082713   -0.605179
 C   -2.850235    0.950799   -0.564105
 C   -3.886175    1.545729    0.395477
 C   -4.829870    0.376387    0.664075
 C   -3.877818   -0.815376    0.722571
 C   -2.177044   -1.313880   -1.043621
 C   -2.161411   -2.850287   -0.765924
 C   -1.806086   -3.225377    0.676293
 C   -0.605626   -2.381930    1.089476
 C    1.440363    0.653345    0.126147
 C    3.517328    2.050716    0.369114
 C    4.590909    2.116025   -0.714195
 C    4.929889    0.643630   -0.935371
 C    3.588674   -0.073604   -0.722401
 C    3.711942   -1.369006    0.073732
 N   -0.803645    1.291810    0.867724
 N   -2.872488   -0.490395   -0.280510
 N   -1.101718   -3.323037   -1.687127
 N    2.739881    0.884692   -0.019620
 O   -1.941366    3.420620   -1.812604
 O   -1.343874    3.819374    0.314983
 O   -1.485130   -0.940309   -1.989460
 O   -0.729903   -1.323443    1.662452
 O    0.510930   -2.899701    0.661074
 O    0.858991   -0.305534   -0.372337
 O    4.786002   -2.046155   -0.244466
 O    2.893763   -1.736484    0.887713
 H    0.447578    2.227960    3.062553
 H    2.066175    1.729564    2.617849
 H    0.815922    0.509405    2.816609
 H    0.778046    2.674905    0.643355
 H   -0.806883    1.132679   -1.234405
 H   -3.152189    1.103741   -1.607977
 H   -3.430274    1.875105    1.329555
 H   -4.403177    2.394451   -0.044786
 H   -5.531920    0.258858   -0.160301
 H   -5.394858    0.496894    1.583808
 H   -4.382378   -1.751105    0.488184
 H   -3.407766   -0.884350    1.708460
 H   -3.128442   -3.277649   -1.047356
 H   -1.550827   -4.284608    0.728326
 H   -2.634979   -3.040377    1.354677
 H    3.980366    1.883940    1.347077
 H    2.906440    2.950332    0.408752
 H    4.181058    2.556984   -1.622727
 H    5.453870    2.698005   -0.403869
 H    5.656774    0.307971   -0.196805
 H    5.337873    0.450530   -1.923210
 H    3.110410   -0.343695   -1.673562
 H   -0.853980    0.271412    1.108621
 H   -1.300687    1.840905    1.581275
 H   -1.357755   -4.107155   -2.289179
 H   -0.237519   -3.535790   -1.164611
 H   -0.927611   -2.405847   -2.257747
 H   -2.037961    4.383244   -1.928863
 H    1.328712   -2.363187    0.855043
 H    4.885745   -2.875740    0.254921
