49 
6eog_ligand_xtb.xyz
 C    0.033348    0.745075    0.580208
 C   -2.119081    1.939464    0.953620
 C   -0.644576   -0.014637   -0.572924
 C   -2.149037   -0.066110   -0.270412
 C   -2.878588    3.270605    1.001589
 C    2.375450   -0.121888    0.557766
 C    5.956381    0.715919   -0.351629
 C    6.482478   -1.857241    0.518333
 C    7.531231   -1.067003    0.059799
 C    7.245217    0.224421   -0.374826
 C   -7.180627   -0.522086    0.087786
 C   -6.616977    0.555576   -0.574029
 C    3.567571    0.446758    0.133339
 C    4.916116   -0.087119    0.112108
 C    5.186213   -1.382192    0.547524
Cl   -7.170216   -3.061835    1.000295
 C   -6.472308   -1.710741    0.182955
 C   -5.204949   -1.829768   -0.365736
 C   -4.660162   -0.738081   -1.018891
 C   -5.357005    0.452699   -1.138810
 S   -3.007398   -0.852575   -1.685160
 O   -2.702241    1.198788   -0.103379
 O   -4.233660    3.073359    1.291122
 C   -0.612481    2.141388    0.713690
 O   -0.456213    2.915433   -0.434677
 O   -0.079404   -1.295178   -0.639289
 N    1.452047    0.836693    0.352391
 N    3.280608    1.700163   -0.295579
 N    2.033201    1.917277   -0.167427
 F    8.242252    0.999914   -0.821012
 F    8.784243   -1.537696    0.037549
 F    6.733932   -3.104631    0.941914
 H   -0.118868    0.174548    1.504456
 H   -2.263415    1.393248    1.901089
 H   -0.493415    0.546887   -1.507294
 H   -2.321819   -0.696475    0.620276
 H   -2.739539    3.772052    0.036915
 H   -2.473537    3.896682    1.797895
 H    2.119579   -1.080617    0.951881
 H    5.750462    1.717942   -0.690763
 H   -8.163043   -0.445294    0.525796
 H   -7.167647    1.480494   -0.652014
 H    4.404674   -2.030414    0.907673
 H   -4.654062   -2.753832   -0.290091
 H   -4.909357    1.280283   -1.665969
 H   -4.589516    2.467942    0.628799
 H   -0.177368    2.646397    1.592223
 H    0.498468    3.009189   -0.609545
 H   -0.511532   -1.793267   -1.344495
