44 
6epa_ligand_dft.xyz
 C   -5.188362   -1.642211    0.553417
 C    1.653708   -1.582266   -0.491781
 C    1.788551    0.760647    0.386602
 C    0.232294    2.406151    1.246273
 C    2.025194    1.588283   -0.715043
 C    3.913406   -0.584644    0.214333
 C    4.710508    0.102052    1.137271
 C    6.694725   -0.408505   -0.132345
 C    4.533124   -1.178231   -0.884077
 C   -1.989052   -0.612964   -0.510106
 C   -4.211971    0.392812   -0.326498
 C   -5.438084    1.050212   -0.270531
 C   -6.535358    0.344480    0.205341
 C   -6.410024   -0.989615    0.614054
 C   -4.072485   -0.949228    0.077660
 C    0.192115   -1.693204   -0.081559
 C    2.411178   -0.626653    0.457019
 C    0.890470    1.184851    1.366415
 C    0.464411    3.218374    0.140575
 C    1.365084    2.806953   -0.839984
 C    6.085512    0.189397    0.970089
 C    5.914661   -1.090689   -1.056914
 N   -2.803152   -1.492074   -0.051216
 N   -0.645005   -0.815382   -0.772344
 O   -0.184497   -2.445883    0.784194
 S   -2.658942    0.998931   -0.850404
 H   -5.075360   -2.674989    0.864862
 H    1.745882   -1.238717   -1.528827
 H    2.077921   -2.587248   -0.421887
 H   -0.471060    2.716434    2.012799
 H    2.740155    1.277254   -1.473334
 H    4.238196    0.578556    1.993089
 H    7.770202   -0.341926   -0.266091
 H    3.948266   -1.722738   -1.618944
 H   -5.536132    2.083846   -0.586215
 H   -7.501733    0.835937    0.260744
 H   -7.282854   -1.519575    0.982661
 H    2.252558   -1.013095    1.471574
 H    0.684709    0.540945    2.217816
 H   -0.053035    4.167692    0.042448
 H    1.558592    3.439493   -1.701400
 H    6.684833    0.724803    1.700562
 H    6.377366   -1.561694   -1.919234
 H   -0.179998   -0.084621   -1.294042
