45 
6eq8_ligand_xtb.xyz
 C    3.400243   -0.402843   -0.643661
 C    2.313131   -1.205689    0.089721
 C    2.859137   -2.500746    0.702252
 C   -3.006825   -1.332504   -0.516102
 C   -1.010882   -0.031369    0.324674
 C   -1.964435    1.085932    0.790210
 C   -3.383669    0.577648    1.059812
 C   -3.920403   -0.157997   -0.175728
 C   -1.595374   -0.834604   -0.840684
 C    2.822473    0.944881   -1.102757
 C    1.198374    0.754298    0.780701
 C    2.244594    1.666215    0.125335
 O    0.176418    0.582933   -0.155212
 O    1.640289    2.881152   -0.227155
 O    3.795966    1.742794   -1.722328
 O    4.522966   -0.109350    0.157211
 O    1.765975   -0.458932    1.179664
 O    3.795064   -2.239750    1.723145
 O   -2.055693    2.086921   -0.195297
 O   -4.241029    1.635868    1.400185
 O   -5.216103   -0.658436    0.063219
 O   -3.472566   -2.041375   -1.639764
 O   -0.745216   -1.922811   -1.105668
 H    3.716761   -0.981593   -1.527778
 H    1.513212   -1.448363   -0.621439
 H    2.019818   -3.088046    1.092092
 H    3.379330   -3.084158   -0.059699
 H   -2.961438   -2.008962    0.354131
 H   -0.776237   -0.716468    1.147527
 H   -1.565259    1.526441    1.719827
 H   -3.385693   -0.108573    1.914142
 H   -3.942127    0.543489   -1.025254
 H   -1.647789   -0.177484   -1.721797
 H    2.021444    0.790352   -1.831647
 H    0.823693    1.213407    1.707889
 H    3.058030    1.835103    0.850050
 H    2.166180    3.252334   -0.949832
 H    4.608649    1.640963   -1.206986
 H    4.672881   -0.865784    0.749830
 H    3.349478   -1.682837    2.375296
 H   -1.154245    2.255107   -0.509507
 H   -4.029071    2.369451    0.805747
 H   -5.679532    0.000204    0.597881
 H   -4.427841   -2.134186   -1.535489
 H   -1.226986   -2.501859   -1.711643
